REMARK  Name = ZINC02256205
REMARK  9 active torsions:
REMARK  status: ('A' for Active; 'I' for Inactive)
REMARK    1  A    between atoms: C_1  and  C_2
REMARK    2  A    between atoms: C_7  and  N_28
REMARK    3  A    between atoms: C_8  and  C_13
REMARK    4  A    between atoms: N_17  and  C_21
REMARK    5  A    between atoms: C_21  and  C_22
REMARK    6  A    between atoms: N_28  and  C_29
REMARK    7  A    between atoms: C_29  and  C_30
REMARK    8  A    between atoms: C_30  and  C_31
REMARK    9  A    between atoms: C_30  and  C_32
REMARK                            x       y       z     vdW  Elec       q    Type
REMARK                         _______ _______ _______ _____ _____    ______ ____
ROOT
ATOM      1  C   UNL     1      -5.174   6.244   0.270  0.00  0.00    +0.045 C 
ATOM      2  C   UNL     1      -3.995   5.307   0.331  0.00  0.00    -0.034 A 
ATOM      3  C   UNL     1      -2.705   5.817   0.531  0.00  0.00    +0.008 A 
ATOM      4  C   UNL     1      -1.645   4.962   0.585  0.00  0.00    +0.047 A 
ATOM      5  C   UNL     1      -1.860   3.580   0.438  0.00  0.00    +0.142 A 
ATOM      6  N   UNL     1      -0.817   2.751   0.496  0.00  0.00    -0.214 NA
ATOM      7  C   UNL     1      -0.962   1.441   0.359  0.00  0.00    +0.134 A 
ATOM      8  C   UNL     1      -2.253   0.899   0.155  0.00  0.00    +0.081 A 
ATOM      9  C   UNL     1      -3.353   1.788   0.101  0.00  0.00    +0.267 A 
ATOM     10  O   UNL     1      -4.483   1.365  -0.072  0.00  0.00    -0.267 OA
ATOM     11  N   UNL     1      -3.130   3.112   0.243  0.00  0.00    -0.267 N 
ATOM     12  C   UNL     1      -4.184   3.976   0.192  0.00  0.00    +0.099 A 
ENDROOT
BRANCH   8  13
ATOM     13  C   UNL     1      -2.439  -0.495   0.011  0.00  0.00    +0.037 C 
ATOM     14  C   UNL     1      -1.769  -1.175  -0.965  0.00  0.00    +0.077 C 
ATOM     15  C   UNL     1      -1.720  -2.575  -1.222  0.00  0.00    +0.258 C 
ATOM     16  O   UNL     1      -2.334  -3.362  -0.524  0.00  0.00    -0.269 OA
ATOM     17  N   UNL     1      -0.991  -2.996  -2.241  0.00  0.00    -0.253 N 
ATOM     18  C   UNL     1      -0.310  -2.122  -3.016  0.00  0.00    +0.121 C 
ATOM     19  S   UNL     1       0.686  -2.439  -4.372  0.00  0.00    -0.027 S 
ATOM     20  S   UNL     1      -0.722  -0.551  -2.272  0.00  0.00    -0.061 S 
BRANCH  17  21
ATOM     21  C   UNL     1      -0.918  -4.429  -2.534  0.00  0.00    +0.146 C 
BRANCH  21  22
ATOM     22  C   UNL     1      -2.038  -4.808  -3.506  0.00  0.00    +0.136 C 
ATOM     23  C   UNL     1      -2.035  -6.331  -3.762  0.00  0.00    +0.035 C 
ATOM     24  C   UNL     1      -2.401  -6.461  -5.258  0.00  0.00    +0.031 C 
ATOM     25  C   UNL     1      -2.583  -5.001  -5.728  0.00  0.00    +0.160 C 
ATOM     26  O   UNL     1      -1.803  -4.213  -4.801  0.00  0.00    -0.375 OA
ENDBRANCH  21  22
ENDBRANCH  17  21
ENDBRANCH   8  13
BRANCH   7  27
ATOM     27  N   UNL     1       0.137   0.612   0.419  0.00  0.00    -0.328 N 
ATOM     28  H   UNL     1       0.027  -0.347   0.322  0.00  0.00    +0.147 HD
BRANCH  27  29
ATOM     29  C   UNL     1       1.472   1.179   0.623  0.00  0.00    +0.106 C 
BRANCH  29  30
ATOM     30  C   UNL     1       2.507   0.052   0.644  0.00  0.00    -0.000 C 
ATOM     31  C   UNL     1       3.912   0.652   0.733  0.00  0.00    +0.009 C 
ATOM     32  C   UNL     1       2.259  -0.846   1.857  0.00  0.00    +0.009 C 
ENDBRANCH  29  30
ENDBRANCH  27  29
ENDBRANCH   7  27
TORSDOF 6
