REMARK  Name = ZINC20595909
REMARK  7 active torsions:
REMARK  status: ('A' for Active; 'I' for Inactive)
REMARK    1  A    between atoms: C_1  and  C_2
REMARK    2  A    between atoms: C_2  and  C_3
REMARK    3  A    between atoms: C_3  and  C_4
REMARK    4  A    between atoms: C_7  and  C_10
REMARK    5  A    between atoms: C_12  and  C_20
REMARK    6  A    between atoms: N_22  and  N_23
REMARK    7  A    between atoms: N_26  and  C_27
REMARK                            x       y       z     vdW  Elec       q    Type
REMARK                         _______ _______ _______ _____ _____    ______ ____
ROOT
ATOM      1  C   UNL     1      -8.089  -0.381   0.037  0.00  0.00    +0.261 C 
ATOM      2  O   UNL     1      -8.835  -0.096   0.954  0.00  0.00    -0.269 OA
ATOM      3  N   UNL     1      -6.822   0.079   0.032  0.00  0.00    -0.229 N 
ATOM      4  H   UNL     1      -6.147  -0.178  -0.798  0.00  0.00    +0.173 HD
ENDROOT
BRANCH   1   7
ATOM      5  C   UNL     1      -8.281  -2.297  -3.213  0.00  0.00    +0.072 A 
ATOM      6  C   UNL     1      -7.785  -1.478  -2.188  0.00  0.00    +0.042 A 
ATOM      7  C   UNL     1      -8.572  -1.232  -1.072  0.00  0.00    +0.049 A 
ATOM      8  C   UNL     1      -9.901  -1.842  -1.040  0.00  0.00    +0.013 A 
ATOM      9  C   UNL     1     -10.769  -1.647   0.040  0.00  0.00    +0.011 A 
ATOM     10  C   UNL     1     -11.999  -2.236   0.030  0.00  0.00    +0.001 A 
ATOM     11  C   UNL     1     -12.403  -3.028  -1.043  0.00  0.00    +0.002 A 
ATOM     12  C   UNL     1     -11.583  -3.238  -2.109  0.00  0.00    +0.028 A 
ATOM     13  C   UNL     1     -10.306  -2.648  -2.134  0.00  0.00    +0.072 A 
ATOM     14  N   UNL     1      -9.480  -2.836  -3.165  0.00  0.00    -0.247 NA
BRANCH   5  18
ATOM     15  C   UNL     1      -5.832  -3.045  -6.607  0.00  0.00    -0.047 A 
ATOM     16  C   UNL     1      -7.096  -3.602  -6.534  0.00  0.00    +0.004 A 
ATOM     17  C   UNL     1      -7.895  -3.363  -5.434  0.00  0.00    +0.010 A 
ATOM     18  C   UNL     1      -7.427  -2.558  -4.397  0.00  0.00    +0.000 A 
ATOM     19  C   UNL     1      -6.154  -1.996  -4.479  0.00  0.00    +0.010 A 
ATOM     20  C   UNL     1      -5.362  -2.246  -5.581  0.00  0.00    +0.004 A 
BRANCH  15  21
ATOM     21  C   UNL     1      -4.964  -3.310  -7.810  0.00  0.00    +0.035 C 
BRANCH  21  23
ATOM     22  C   UNL     1      -4.340  -2.506 -10.092  0.00  0.00    +0.004 C 
ATOM     23  C   UNL     1      -5.221  -2.237  -8.870  0.00  0.00    +0.001 C 
ENDBRANCH  21  23
ENDBRANCH  15  21
ENDBRANCH   5  18
ENDBRANCH   1   7
BRANCH   3  24
ATOM     24  N   UNL     1      -6.365   0.885   1.083  0.00  0.00    -0.218 N 
ATOM     25  C   UNL     1      -5.098   1.345   1.077  0.00  0.00    +0.316 C 
ATOM     26  O   UNL     1      -4.701   2.044   1.989  0.00  0.00    -0.251 OA
ATOM     27  N   UNL     1      -4.271   1.029   0.061  0.00  0.00    -0.293 N 
ATOM     28  H   UNL     1      -7.040   1.143   1.912  0.00  0.00    +0.174 HD
ATOM     29  H   UNL     1      -4.630   0.397  -0.764  0.00  0.00    +0.151 HD
BRANCH  27  30
ATOM     30  C   UNL     1      -2.894   1.529   0.055  0.00  0.00    +0.037 C 
ATOM     31  C   UNL     1      -2.175   1.029  -1.200  0.00  0.00    +0.029 C 
ATOM     32  C   UNL     1      -0.737   1.551  -1.206  0.00  0.00    -0.008 C 
ATOM     33  C   UNL     1      -0.005   1.043   0.037  0.00  0.00    +0.007 C 
ATOM     34  C   UNL     1      -0.724   1.543   1.292  0.00  0.00    -0.008 C 
ATOM     35  C   UNL     1      -2.162   1.021   1.298  0.00  0.00    +0.029 C 
ATOM     36  C   UNL     1      -0.736   3.073   1.297  0.00  0.00    +0.007 C 
ATOM     37  C   UNL     1      -1.469   3.581   0.053  0.00  0.00    -0.008 C 
ATOM     38  C   UNL     1      -0.750   3.081  -1.202  0.00  0.00    +0.007 C 
ATOM     39  C   UNL     1      -2.907   3.059   0.059  0.00  0.00    +0.029 C 
ENDBRANCH  27  30
ENDBRANCH   3  24
TORSDOF 6
