REMARK  Name = ZINC02299483
REMARK  8 active torsions:
REMARK  status: ('A' for Active; 'I' for Inactive)
REMARK    1  A    between atoms: C_1  and  C_2
REMARK    2  A    between atoms: C_7  and  N_8
REMARK    3  A    between atoms: N_15  and  N_16
REMARK    4  A    between atoms: N_16  and  C_17
REMARK    5  A    between atoms: C_17  and  N_19
REMARK    6  A    between atoms: N_19  and  C_20
REMARK    7  A    between atoms: C_20  and  C_21
REMARK    8  A    between atoms: C_21  and  C_23
REMARK                            x       y       z     vdW  Elec       q    Type
REMARK                         _______ _______ _______ _____ _____    ______ ____
ROOT
ATOM      1  N   UNL     1      -2.429   1.040   0.020  0.00  0.00    -0.247 N 
ATOM      2  C   UNL     1      -3.017   0.707  -1.150  0.00  0.00    +0.264 A 
ATOM      3  O   UNL     1      -2.515   1.034  -2.214  0.00  0.00    -0.267 OA
ATOM      4  C   UNL     1      -4.211  -0.025  -1.116  0.00  0.00    +0.050 A 
ATOM      5  C   UNL     1      -4.742  -0.381   0.114  0.00  0.00    +0.084 A 
ATOM      6  N   UNL     1      -4.130  -0.001   1.240  0.00  0.00    -0.214 NA
ATOM      7  C   UNL     1      -3.008   0.687   1.202  0.00  0.00    +0.220 A 
ATOM      8  N   UNL     1      -2.409   1.056   2.378  0.00  0.00    -0.234 N 
ATOM      9  C   UNL     1      -5.995  -1.169   0.149  0.00  0.00    +0.004 A 
ATOM     10  C   UNL     1      -6.756  -1.245   1.313  0.00  0.00    +0.010 A 
ATOM     11  C   UNL     1      -7.930  -1.972   1.316  0.00  0.00    +0.001 A 
ATOM     12  C   UNL     1      -8.346  -2.622   0.168  0.00  0.00    +0.000 A 
ATOM     13  C   UNL     1      -7.589  -2.555  -0.988  0.00  0.00    +0.004 A 
ATOM     14  C   UNL     1      -6.410  -1.837  -1.002  0.00  0.00    -0.037 A 
ATOM     15  C   UNL     1      -5.572  -1.776  -2.251  0.00  0.00    +0.047 C 
ATOM     16  C   UNL     1      -4.912  -0.405  -2.391  0.00  0.00    +0.007 C 
ATOM     17  C   UNL     1      -3.892  -0.451  -3.534  0.00  0.00    +0.012 C 
ATOM     18  C   UNL     1      -4.601  -0.833  -4.834  0.00  0.00    +0.001 C 
ATOM     19  C   UNL     1      -5.674   0.209  -5.156  0.00  0.00    +0.000 C 
ATOM     20  C   UNL     1      -6.692   0.262  -4.015  0.00  0.00    +0.001 C 
ATOM     21  C   UNL     1      -5.982   0.642  -2.715  0.00  0.00    +0.012 C 
ATOM     22  H   UNL     1      -1.582   1.563   2.362  0.00  0.00    +0.173 HD
ENDROOT
BRANCH   1  29
ATOM     23  C   UNL     1      -2.551   3.883   0.048  0.00  0.00    +0.046 C 
ATOM     24  C   UNL     1      -1.239   3.143   0.031  0.00  0.00    -0.026 A 
ATOM     25  C   UNL     1      -0.049   3.845   0.023  0.00  0.00    +0.005 A 
ATOM     26  C   UNL     1       1.155   3.166   0.007  0.00  0.00    +0.000 A 
ATOM     27  C   UNL     1       1.173   1.783   0.000  0.00  0.00    +0.002 A 
ATOM     28  C   UNL     1      -0.013   1.076   0.008  0.00  0.00    +0.026 A 
ATOM     29  C   UNL     1      -1.224   1.754   0.017  0.00  0.00    +0.056 A 
ENDBRANCH   1  29
BRANCH   8  30
ATOM     30  N   UNL     1      -2.990   0.702   3.602  0.00  0.00    -0.246 N 
ATOM     31  H   UNL     1      -3.817   0.195   3.617  0.00  0.00    +0.172 HD
BRANCH  30  32
ATOM     32  C   UNL     1      -2.401   1.065   4.758  0.00  0.00    +0.147 C 
ATOM     33  S   UNL     1      -3.112   0.632   6.254  0.00  0.00    -0.017 S 
BRANCH  32  34
ATOM     34  N   UNL     1      -1.252   1.770   4.737  0.00  0.00    -0.322 N 
ATOM     35  H   UNL     1      -0.850   2.015   3.889  0.00  0.00    +0.148 HD
BRANCH  34  36
ATOM     36  C   UNL     1      -0.612   2.165   5.994  0.00  0.00    +0.133 C 
BRANCH  36  37
ATOM     37  C   UNL     1       0.648   2.936   5.695  0.00  0.00    -0.063 C 
ATOM     38  C   UNL     1       0.621   4.246   5.661  0.00  0.00    +0.009 C 
ATOM     39  C   UNL     1       1.938   2.202   5.436  0.00  0.00    +0.040 C 
ENDBRANCH  36  37
ENDBRANCH  34  36
ENDBRANCH  32  34
ENDBRANCH  30  32
ENDBRANCH   8  30
TORSDOF 6
