REMARK  Name = ZINC08794233
REMARK  7 active torsions:
REMARK  status: ('A' for Active; 'I' for Inactive)
REMARK    1  A    between atoms: C_4  and  N_11
REMARK    2  A    between atoms: C_5  and  C_7
REMARK    3  A    between atoms: C_12  and  C_14
REMARK    4  A    between atoms: C_14  and  S_15
REMARK    5  A    between atoms: S_15  and  C_16
REMARK    6  A    between atoms: C_22  and  C_24
REMARK    7  A    between atoms: C_25  and  C_26
REMARK                            x       y       z     vdW  Elec       q    Type
REMARK                         _______ _______ _______ _____ _____    ______ ____
ROOT
ATOM      1  C   UNL     1      -7.801   0.195  -3.111  0.00  0.00    +0.160 A 
ATOM      2  N   UNL     1      -7.967   1.502  -2.975  0.00  0.00    -0.133 NA
ATOM      3  N   UNL     1      -9.058   1.999  -2.582  0.00  0.00    -0.125 NA
ATOM      4  C   UNL     1     -10.103   1.246  -2.281  0.00  0.00    +0.189 A 
ATOM      5  S   UNL     1      -9.424  -0.377  -2.614  0.00  0.00    -0.024 S 
ATOM      6  N   UNL     1     -11.370   1.611  -1.837  0.00  0.00    -0.260 N 
ATOM      7  C   UNL     1     -11.672   2.912  -1.657  0.00  0.00    +0.243 C 
ATOM      8  O   UNL     1     -10.836   3.768  -1.881  0.00  0.00    -0.270 OA
ATOM      9  H   UNL     1     -12.036   0.929  -1.658  0.00  0.00    +0.157 HD
ENDROOT
BRANCH   7  10
ATOM     10  C   UNL     1     -13.004   3.295  -1.190  0.00  0.00    +0.068 C 
ATOM     11  C   UNL     1     -13.268   4.585  -0.890  0.00  0.00    +0.013 C 
BRANCH  11  12
ATOM     12  C   UNL     1     -12.171   5.558  -0.798  0.00  0.00    -0.021 A 
ATOM     13  C   UNL     1     -12.292   6.813  -1.406  0.00  0.00    +0.012 A 
ATOM     14  C   UNL     1     -11.262   7.723  -1.318  0.00  0.00    +0.050 A 
ATOM     15  C   UNL     1     -10.101   7.400  -0.627  0.00  0.00    +0.166 A 
ATOM     16  C   UNL     1      -9.972   6.151  -0.018  0.00  0.00    +0.167 A 
ATOM     17  C   UNL     1     -11.003   5.235  -0.097  0.00  0.00    +0.057 A 
ATOM     18  O   UNL     1      -8.751   6.085   0.588  0.00  0.00    -0.453 OA
ATOM     19  C   UNL     1      -8.301   7.449   0.693  0.00  0.00    +0.466 C 
ATOM     20  O   UNL     1      -8.960   8.113  -0.401  0.00  0.00    -0.453 OA
ENDBRANCH  11  12
ENDBRANCH   7  10
BRANCH   1  21
ATOM     21  S   UNL     1      -6.390  -0.720  -3.637  0.00  0.00    -0.088 S 
BRANCH  21  22
ATOM     22  C   UNL     1      -5.142   0.554  -3.973  0.00  0.00    +0.172 C 
BRANCH  22  24
ATOM     23  N   UNL     1      -2.796   0.653  -4.748  0.00  0.00    -0.284 N 
ATOM     24  C   UNL     1      -3.868  -0.102  -4.438  0.00  0.00    +0.227 C 
ATOM     25  O   UNL     1      -3.807  -1.310  -4.533  0.00  0.00    -0.275 OA
ATOM     26  H   UNL     1      -2.813   1.610  -4.588  0.00  0.00    +0.155 HD
BRANCH  23  30
ATOM     27  C   UNL     1       0.596  -1.120  -6.395  0.00  0.00    +0.001 A 
ATOM     28  C   UNL     1      -0.621  -1.776  -6.449  0.00  0.00    +0.002 A 
ATOM     29  C   UNL     1      -1.747  -1.190  -5.904  0.00  0.00    +0.024 A 
ATOM     30  C   UNL     1      -1.657   0.058  -5.301  0.00  0.00    +0.045 A 
ATOM     31  C   UNL     1      -0.433   0.713  -5.248  0.00  0.00    +0.076 A 
ATOM     32  C   UNL     1       0.688   0.124  -5.800  0.00  0.00    +0.014 A 
BRANCH  31  33
ATOM     33  C   UNL     1      -0.331   2.067  -4.595  0.00  0.00    +0.419 C 
ATOM     34  F   UNL     1       0.991   2.520  -4.666  0.00  0.00    -0.166 F 
ATOM     35  F   UNL     1      -1.169   2.970  -5.259  0.00  0.00    -0.166 F 
ATOM     36  F   UNL     1      -0.719   1.969  -3.255  0.00  0.00    -0.166 F 
ENDBRANCH  31  33
ENDBRANCH  23  30
ENDBRANCH  22  24
ENDBRANCH  21  22
ENDBRANCH   1  21
TORSDOF 7
