REMARK  Name = ZINC16958304
REMARK  2 active torsions:
REMARK  status: ('A' for Active; 'I' for Inactive)
REMARK    1  A    between atoms: C_8  and  C_11
REMARK    2  A    between atoms: C_13  and  C_21
REMARK                            x       y       z     vdW  Elec       q    Type
REMARK                         _______ _______ _______ _____ _____    ______ ____
ROOT
ATOM      1  C   UNL     1      -0.013   1.086   0.008  0.00  0.00    -0.002 C 
ATOM      2  C   UNL     1      -0.628   1.608   1.324  0.00  0.00    +0.136 C 
ATOM      3  O   UNL     1       0.523   1.876   2.157  0.00  0.00    -0.390 OA
ATOM      4  C   UNL     1       1.499   2.418   1.244  0.00  0.00    +0.067 C 
ATOM      5  C   UNL     1       2.336   0.510   0.049  0.00  0.00    -0.074 C 
ATOM      6  C   UNL     1       3.073   0.604   1.400  0.00  0.00    -0.018 C 
ATOM      7  C   UNL     1       2.914   2.099   1.781  0.00  0.00    +0.010 C 
ATOM      8  N   UNL     1       1.355   1.622   0.028  0.00  0.00    +0.402 N 
ATOM      9  H   UNL     1       1.514   2.208  -0.800  0.00  0.00    -0.077 HD
ENDROOT
BRANCH   1  17
ATOM     10  C   UNL     1       1.348   3.032  -5.323  0.00  0.00    +0.002 A 
ATOM     11  C   UNL     1       1.186   4.338  -4.900  0.00  0.00    +0.001 A 
ATOM     12  C   UNL     1       0.578   4.577  -3.679  0.00  0.00    +0.016 A 
ATOM     13  C   UNL     1       0.147   3.520  -2.909  0.00  0.00    +0.030 A 
ATOM     14  C   UNL     1       0.296   2.188  -3.310  0.00  0.00    +0.042 A 
ATOM     15  C   UNL     1       0.916   1.976  -4.554  0.00  0.00    +0.024 A 
ATOM     16  N   UNL     1      -0.175   1.191  -2.458  0.00  0.00    -0.332 N 
ATOM     17  C   UNL     1      -0.797   1.613  -1.195  0.00  0.00    +0.122 C 
ATOM     18  S   UNL     1      -0.658   3.441  -1.325  0.00  0.00    -0.103 S 
ATOM     19  H   UNL     1      -0.095   0.252  -2.689  0.00  0.00    +0.147 HD
ENDBRANCH   1  17
BRANCH   2  20
ATOM     20  C   UNL     1      -1.517   0.539   1.964  0.00  0.00    +0.161 C 
ATOM     21  N   UNL     1      -2.109   1.024   3.218  0.00  0.00    -0.329 N 
ATOM     22  C   UNL     1      -3.499   1.113   3.283  0.00  0.00    +0.042 A 
ATOM     23  C   UNL     1      -4.240   1.554   4.394  0.00  0.00    +0.024 A 
ATOM     24  C   UNL     1      -5.614   1.605   4.359  0.00  0.00    +0.002 A 
ATOM     25  C   UNL     1      -6.314   1.225   3.228  0.00  0.00    +0.001 A 
ATOM     26  C   UNL     1      -5.610   0.787   2.119  0.00  0.00    +0.016 A 
ATOM     27  C   UNL     1      -4.235   0.736   2.155  0.00  0.00    +0.031 A 
ATOM     28  S   UNL     1      -3.022   0.240   0.953  0.00  0.00    -0.098 S 
ATOM     29  H   UNL     1      -1.553   1.274   3.972  0.00  0.00    +0.147 HD
ENDBRANCH   2  20
TORSDOF 2
