REMARK  Name = ZINC30843127
REMARK  10 active torsions:
REMARK  status: ('A' for Active; 'I' for Inactive)
REMARK    1  A    between atoms: C_1  and  C_2
REMARK    2  A    between atoms: C_5  and  O_9
REMARK    3  A    between atoms: C_6  and  C_8
REMARK    4  A    between atoms: O_9  and  C_10
REMARK    5  A    between atoms: C_10  and  C_11
REMARK    6  A    between atoms: N_13  and  N_14
REMARK    7  A    between atoms: C_15  and  C_16
REMARK    8  A    between atoms: C_18  and  O_24
REMARK    9  A    between atoms: C_19  and  O_23
REMARK   10  A    between atoms: O_24  and  C_25
REMARK                            x       y       z     vdW  Elec       q    Type
REMARK                         _______ _______ _______ _____ _____    ______ ____
ROOT
ATOM      1  C   UNL     1       3.765  -0.885   0.606  0.00  0.00    +0.270 C 
ATOM      2  O   UNL     1       4.574  -0.125   0.117  0.00  0.00    -0.270 OA
ATOM      3  N   UNL     1       4.016  -2.208   0.637  0.00  0.00    -0.204 N 
ATOM      4  H   UNL     1       3.282  -2.897   1.080  0.00  0.00    +0.177 HD
ENDROOT
BRANCH   3   5
ATOM      5  N   UNL     1       5.213  -2.707   0.105  0.00  0.00    -0.188 NA
ATOM      6  C   UNL     1       5.405  -3.988   0.027  0.00  0.00    +0.138 C 
BRANCH   6   7
ATOM      7  C   UNL     1       4.252  -4.907   0.033  0.00  0.00    -0.001 A 
ATOM      8  C   UNL     1       4.450  -6.277   0.229  0.00  0.00    +0.059 A 
ATOM      9  C   UNL     1       3.366  -7.134   0.239  0.00  0.00    +0.163 A 
ATOM     10  C   UNL     1       2.080  -6.634   0.044  0.00  0.00    +0.173 A 
ATOM     11  C   UNL     1       1.883  -5.275  -0.155  0.00  0.00    +0.063 A 
ATOM     12  C   UNL     1       2.961  -4.412  -0.161  0.00  0.00    +0.028 A 
ATOM     13 BR   UNL     1       0.136  -4.603  -0.419  0.00  0.00    -0.046 Br
BRANCH  10  14
ATOM     14  O   UNL     1       1.016  -7.479   0.049  0.00  0.00    -0.503 OA
ATOM     15  H   UNL     1      -0.000  -7.086  -0.105  0.00  0.00    +0.292 HD
ENDBRANCH  10  14
BRANCH   9  16
ATOM     16  O   UNL     1       3.554  -8.466   0.435  0.00  0.00    -0.491 OA
ATOM     17  C   UNL     1       4.899  -8.910   0.628  0.00  0.00    +0.277 C 
ENDBRANCH   9  16
ENDBRANCH   6   7
ENDBRANCH   3   5
BRANCH   1  18
ATOM     18  C   UNL     1       2.478  -0.349   1.177  0.00  0.00    +0.326 C 
BRANCH  18  19
ATOM     19  O   UNL     1       2.445   1.072   1.027  0.00  0.00    -0.482 OA
BRANCH  19  24
ATOM     20  C   UNL     1      -2.120   3.743   2.963  0.00  0.00    +0.044 C 
ATOM     21  C   UNL     1      -0.899   3.029   2.445  0.00  0.00    -0.050 A 
ATOM     22  C   UNL     1      -0.805   1.653   2.555  0.00  0.00    +0.007 A 
ATOM     23  C   UNL     1       0.315   0.996   2.086  0.00  0.00    +0.046 A 
ATOM     24  C   UNL     1       1.343   1.716   1.494  0.00  0.00    +0.124 A 
ATOM     25  C   UNL     1       1.245   3.095   1.381  0.00  0.00    -0.009 A 
ATOM     26  C   UNL     1       0.124   3.748   1.856  0.00  0.00    +0.010 A 
ATOM     27  C   UNL     1       2.360   3.881   0.739  0.00  0.00    +0.047 C 
ENDBRANCH  19  24
ENDBRANCH  18  19
ENDBRANCH   1  18
TORSDOF 7
