REMARK  Name = ZINC48087272
REMARK  7 active torsions:
REMARK  status: ('A' for Active; 'I' for Inactive)
REMARK    1  A    between atoms: C_1  and  C_2
REMARK    2  A    between atoms: C_5  and  C_20
REMARK    3  A    between atoms: C_6  and  S_8
REMARK    4  A    between atoms: S_8  and  N_11
REMARK    5  A    between atoms: N_11  and  C_12
REMARK    6  A    between atoms: N_11  and  C_13
REMARK    7  A    between atoms: C_13  and  C_14
REMARK                            x       y       z     vdW  Elec       q    Type
REMARK                         _______ _______ _______ _____ _____    ______ ____
ROOT
ATOM      1  S   UNL     1      -0.264  -2.655   2.742  0.00  0.00    +0.061 S 
ATOM      2  O   UNL     1       0.712  -3.646   3.034  0.00  0.00    -0.153 OA
ATOM      3  O   UNL     1      -0.376  -1.452   3.491  0.00  0.00    -0.153 OA
ENDROOT
BRANCH   1   9
ATOM      4  C   UNL     1      -1.486  -2.926  -2.333  0.00  0.00    +0.044 C 
ATOM      5  C   UNL     1      -0.617  -2.344  -1.248  0.00  0.00    -0.049 A 
ATOM      6  C   UNL     1       0.377  -1.438  -1.571  0.00  0.00    +0.004 A 
ATOM      7  C   UNL     1       1.175  -0.905  -0.576  0.00  0.00    +0.005 A 
ATOM      8  C   UNL     1       0.979  -1.276   0.741  0.00  0.00    -0.024 A 
ATOM      9  C   UNL     1      -0.015  -2.181   1.063  0.00  0.00    +0.109 A 
ATOM     10  C   UNL     1      -0.816  -2.712   0.069  0.00  0.00    +0.032 A 
ATOM     11  C   UNL     1       1.850  -0.695   1.825  0.00  0.00    +0.046 C 
ENDBRANCH   1   9
BRANCH   1  12
ATOM     12  N   UNL     1      -1.739  -3.404   2.826  0.00  0.00    -0.175 NA
ATOM     13  C   UNL     1      -1.856  -4.829   2.507  0.00  0.00    +0.132 C 
BRANCH  12  14
ATOM     14  C   UNL     1      -2.926  -2.641   3.218  0.00  0.00    +0.144 C 
BRANCH  14  15
ATOM     15  C   UNL     1      -3.644  -2.158   1.984  0.00  0.00    -0.024 A 
ATOM     16  C   UNL     1      -3.327  -0.936   1.421  0.00  0.00    +0.028 A 
ATOM     17  C   UNL     1      -3.992  -0.532   0.310  0.00  0.00    +0.055 A 
ATOM     18  S   UNL     1      -5.105  -1.899   0.028  0.00  0.00    -0.090 S 
ATOM     19  C   UNL     1      -4.605  -2.919   1.406  0.00  0.00    +0.051 A 
ATOM     20 BR   UNL     1      -3.793   1.065  -0.682  0.00  0.00    -0.043 Br
ENDBRANCH  14  15
ENDBRANCH  12  14
ENDBRANCH   1  12
TORSDOF 4
