REMARK  Name = ZINC23247732
REMARK  7 active torsions:
REMARK  status: ('A' for Active; 'I' for Inactive)
REMARK    1  A    between atoms: C_1  and  C_2
REMARK    2  A    between atoms: C_5  and  C_37
REMARK    3  A    between atoms: C_10  and  C_12
REMARK    4  A    between atoms: C_12  and  N_13
REMARK    5  A    between atoms: N_16  and  C_19
REMARK    6  A    between atoms: C_19  and  C_20
REMARK    7  A    between atoms: N_22  and  C_23
REMARK                            x       y       z     vdW  Elec       q    Type
REMARK                         _______ _______ _______ _____ _____    ______ ____
ROOT
ATOM      1  C   UNL     1       7.573  -5.477   1.127  0.00  0.00    +0.180 C 
ENDROOT
BRANCH   1   5
ATOM      2  N   UNL     1       4.192  -3.212   2.260  0.00  0.00    -0.292 NA
ATOM      3  C   UNL     1       4.183  -3.847   0.934  0.00  0.00    +0.100 C 
ATOM      4  C   UNL     1       5.214  -4.978   0.907  0.00  0.00    +0.100 C 
ATOM      5  N   UNL     1       6.543  -4.434   1.218  0.00  0.00    -0.292 NA
ATOM      6  C   UNL     1       6.552  -3.799   2.543  0.00  0.00    +0.100 C 
ATOM      7  C   UNL     1       5.521  -2.667   2.571  0.00  0.00    +0.100 C 
BRANCH   2   8
ATOM      8  C   UNL     1       3.162  -2.169   2.351  0.00  0.00    +0.180 C 
BRANCH   8  16
ATOM      9  C   UNL     1      -0.013   1.610   1.579  0.00  0.00    +0.009 C 
ATOM     10  C   UNL     1      -0.004   0.096   1.364  0.00  0.00    +0.004 C 
ATOM     11  C   UNL     1      -1.441  -0.432   1.389  0.00  0.00    +0.009 C 
ATOM     12  C   UNL     1      -1.436  -1.942   1.141  0.00  0.00    +0.004 C 
ATOM     13  C   UNL     1      -0.646  -2.636   2.255  0.00  0.00    +0.111 C 
ATOM     14  N   UNL     1       0.692  -2.033   2.332  0.00  0.00    -0.300 N 
ATOM     15  C   UNL     1       0.803  -0.575   2.480  0.00  0.00    +0.111 C 
ATOM     16  C   UNL     1       1.797  -2.802   2.270  0.00  0.00    +0.230 C 
ATOM     17  O   UNL     1       1.693  -4.005   2.148  0.00  0.00    -0.274 OA
ATOM     18  C   UNL     1      -2.874  -2.463   1.133  0.00  0.00    +0.009 C 
ENDBRANCH   8  16
ENDBRANCH   2   8
ENDBRANCH   1   5
BRANCH   1  19
ATOM     19  C   UNL     1       8.938  -4.843   1.208  0.00  0.00    +0.231 C 
ATOM     20  O   UNL     1       9.042  -3.641   1.329  0.00  0.00    -0.274 OA
ATOM     21  N   UNL     1      10.043  -5.612   1.145  0.00  0.00    -0.284 N 
ATOM     22  H   UNL     1       9.961  -6.579   1.125  0.00  0.00    +0.155 HD
BRANCH  21  23
ATOM     23  C   UNL     1      11.310  -5.016   1.109  0.00  0.00    +0.037 A 
ATOM     24  C   UNL     1      12.392  -5.648   1.707  0.00  0.00    +0.027 A 
ATOM     25  C   UNL     1      13.643  -5.062   1.671  0.00  0.00    +0.051 A 
ATOM     26  C   UNL     1      13.821  -3.843   1.039  0.00  0.00    +0.167 A 
ATOM     27  C   UNL     1      12.738  -3.206   0.438  0.00  0.00    +0.169 A 
ATOM     28  C   UNL     1      11.486  -3.796   0.470  0.00  0.00    +0.072 A 
ATOM     29  O   UNL     1      13.170  -2.032  -0.112  0.00  0.00    -0.447 OA
ATOM     30  C   UNL     1      14.442  -1.771   0.498  0.00  0.00    +0.254 C 
ATOM     31  O   UNL     1      14.934  -3.067   0.867  0.00  0.00    -0.448 OA
ATOM     32  C   UNL     1      14.267  -0.897   1.736  0.00  0.00    +0.093 C 
ATOM     33  C   UNL     1      13.709   0.468   1.323  0.00  0.00    +0.008 C 
ATOM     34  C   UNL     1      14.673   1.135   0.340  0.00  0.00    +0.000 C 
ATOM     35  C   UNL     1      14.824   0.258  -0.904  0.00  0.00    +0.008 C 
ATOM     36  C   UNL     1      15.384  -1.108  -0.500  0.00  0.00    +0.093 C 
ENDBRANCH  21  23
ENDBRANCH   1  19
TORSDOF 5
