REMARK  Name = ZINC12303829
REMARK  6 active torsions:
REMARK  status: ('A' for Active; 'I' for Inactive)
REMARK    1  A    between atoms: C_1  and  N_2
REMARK    2  A    between atoms: C_4  and  C_7
REMARK    3  A    between atoms: C_7  and  N_52
REMARK    4  A    between atoms: C_20  and  C_22
REMARK    5  A    between atoms: C_26  and  O_28
REMARK    6  A    between atoms: O_28  and  C_29
REMARK                            x       y       z     vdW  Elec       q    Type
REMARK                         _______ _______ _______ _____ _____    ______ ____
ROOT
ATOM      1  C   UNL     1       1.446   5.916  -0.386  0.00  0.00    -0.072 C 
ATOM      2  C   UNL     1       0.618   4.686   0.011  0.00  0.00    +0.019 C 
ATOM      3  C   UNL     1       1.533   3.489   0.003  0.00  0.00    -0.022 A 
ATOM      4  C   UNL     1       1.185   2.074   0.002  0.00  0.00    +0.003 A 
ATOM      5  C   UNL     1      -0.016   1.362   0.009  0.00  0.00    +0.010 A 
ATOM      6  C   UNL     1       0.002  -0.004   0.002  0.00  0.00    +0.001 A 
ATOM      7  C   UNL     1       1.207  -0.693  -0.012  0.00  0.00    +0.002 A 
ATOM      8  C   UNL     1       2.405  -0.013  -0.019  0.00  0.00    +0.026 A 
ATOM      9  C   UNL     1       2.410   1.378  -0.012  0.00  0.00    +0.047 A 
ATOM     10  N   UNL     1       3.417   2.320  -0.016  0.00  0.00    -0.359 N 
ATOM     11  H   UNL     1       4.366   2.121  -0.024  0.00  0.00    +0.166 HD
ATOM     12  C   UNL     1       2.879   3.574  -0.008  0.00  0.00    +0.011 A 
ATOM     13  C   UNL     1       3.619   4.892  -0.007  0.00  0.00    +0.011 C 
ATOM     14  N   UNL     1       2.676   5.947   0.438  0.00  0.00    +0.391 N 
ATOM     15  H   UNL     1       2.423   5.774   1.418  0.00  0.00    -0.080 HD
ENDROOT
BRANCH  13  16
ATOM     16  C   UNL     1       4.771   4.827   0.962  0.00  0.00    -0.052 A 
ATOM     17  C   UNL     1       4.547   5.000   2.315  0.00  0.00    +0.002 A 
ATOM     18  C   UNL     1       5.601   4.935   3.207  0.00  0.00    +0.004 A 
ATOM     19  C   UNL     1       6.884   4.708   2.747  0.00  0.00    +0.045 A 
ATOM     20  C   UNL     1       7.113   4.539   1.389  0.00  0.00    +0.120 A 
ATOM     21  C   UNL     1       6.052   4.599   0.496  0.00  0.00    +0.048 A 
BRANCH  20  22
ATOM     22  O   UNL     1       8.373   4.315   0.933  0.00  0.00    -0.495 OA
ATOM     23  C   UNL     1       9.416   4.266   1.909  0.00  0.00    +0.277 C 
ENDBRANCH  20  22
ENDBRANCH  13  16
BRANCH  14  24
ATOM     24  C   UNL     1       3.318   7.273   0.335  0.00  0.00    -0.039 C 
BRANCH  24  28
ATOM     25  C   UNL     1       1.218  10.237   3.788  0.00  0.00    +0.172 C 
ATOM     26  N   UNL     1       1.523   9.580   2.514  0.00  0.00    -0.274 N 
ATOM     27  C   UNL     1       2.470   8.640   2.313  0.00  0.00    +0.109 A 
ATOM     28  C   UNL     1       2.434   8.292   1.006  0.00  0.00    -0.026 A 
ATOM     29  C   UNL     1       1.435   9.049   0.386  0.00  0.00    +0.136 A 
ATOM     30  N   UNL     1       0.884   9.818   1.291  0.00  0.00    -0.180 NA
ENDBRANCH  24  28
ENDBRANCH  14  24
TORSDOF 4
