REMARK  Name = ZINC66767088
REMARK  10 active torsions:
REMARK  status: ('A' for Active; 'I' for Inactive)
REMARK    1  A    between atoms: C_1  and  C_2
REMARK    2  A    between atoms: C_2  and  C_3
REMARK    3  A    between atoms: C_3  and  C_5
REMARK    4  A    between atoms: C_3  and  N_15
REMARK    5  A    between atoms: C_16  and  C_18
REMARK    6  A    between atoms: C_18  and  C_19
REMARK    7  A    between atoms: C_19  and  C_20
REMARK    8  A    between atoms: C_20  and  N_21
REMARK    9  A    between atoms: N_21  and  C_22
REMARK   10  A    between atoms: C_25  and  N_28
REMARK                            x       y       z     vdW  Elec       q    Type
REMARK                         _______ _______ _______ _____ _____    ______ ____
ROOT
ATOM      1  N   UNL     1       2.125  -0.091  -1.209  0.00  0.00    -0.306 N 
ATOM      2  C   UNL     1       2.487   1.134  -1.640  0.00  0.00    +0.214 C 
ATOM      3  O   UNL     1       1.649   1.899  -2.066  0.00  0.00    -0.276 OA
ATOM      4  H   UNL     1       2.795  -0.703  -0.868  0.00  0.00    +0.149 HD
ENDROOT
BRANCH   1   5
ATOM      5  C   UNL     1       0.718  -0.497  -1.257  0.00  0.00    +0.139 C 
BRANCH   5   6
ATOM      6  C   UNL     1       0.632  -2.000  -1.327  0.00  0.00    +0.129 A 
ATOM      7  N   UNL     1       0.142  -2.704  -2.384  0.00  0.00    -0.340 N 
ATOM      8  H   UNL     1      -0.206  -2.333  -3.210  0.00  0.00    +0.167 HD
ATOM      9  C   UNL     1       0.234  -4.043  -2.063  0.00  0.00    +0.066 A 
ATOM     10  C   UNL     1      -0.099  -5.220  -2.721  0.00  0.00    +0.028 A 
ATOM     11  C   UNL     1       0.127  -6.433  -2.105  0.00  0.00    +0.002 A 
ATOM     12  C   UNL     1       0.682  -6.485  -0.835  0.00  0.00    +0.002 A 
ATOM     13  C   UNL     1       1.015  -5.337  -0.172  0.00  0.00    +0.030 A 
ATOM     14  C   UNL     1       0.796  -4.096  -0.776  0.00  0.00    +0.089 A 
ATOM     15  N   UNL     1       1.019  -2.814  -0.389  0.00  0.00    -0.231 NA
ENDBRANCH   5   6
BRANCH   5  17
ATOM     16  C   UNL     1      -0.019   1.526   0.010  0.00  0.00    +0.006 C 
ATOM     17  C   UNL     1       0.002  -0.004   0.002  0.00  0.00    +0.027 C 
ENDBRANCH   5  17
ENDBRANCH   1   5
BRANCH   2  18
ATOM     18  C   UNL     1       3.934   1.552  -1.591  0.00  0.00    +0.097 C 
BRANCH  18  19
ATOM     19  C   UNL     1       4.072   2.976  -2.133  0.00  0.00    +0.028 C 
BRANCH  19  20
ATOM     20  C   UNL     1       5.542   3.400  -2.084  0.00  0.00    +0.102 C 
BRANCH  20  21
ATOM     21  N   UNL     1       5.674   4.764  -2.603  0.00  0.00    -0.344 N 
ATOM     22  H   UNL     1       4.889   5.244  -2.909  0.00  0.00    +0.146 HD
BRANCH  21  23
ATOM     23  C   UNL     1       6.930   5.372  -2.657  0.00  0.00    +0.027 A 
ATOM     24  C   UNL     1       8.056   4.683  -2.225  0.00  0.00    +0.025 A 
ATOM     25  C   UNL     1       9.297   5.287  -2.280  0.00  0.00    +0.034 A 
ATOM     26  C   UNL     1       9.419   6.575  -2.766  0.00  0.00    +0.126 A 
ATOM     27  C   UNL     1       8.300   7.264  -3.197  0.00  0.00    +0.034 A 
ATOM     28  C   UNL     1       7.057   6.664  -3.149  0.00  0.00    +0.025 A 
BRANCH  26  29
ATOM     29  N   UNL     1      10.750   7.220  -2.824  0.00  0.00    +0.056 N 
ATOM     30  O   UNL     1      11.729   6.619  -2.446  0.00  0.00    -0.126 OA
ATOM     31  O   UNL     1      10.859   8.347  -3.248  0.00  0.00    -0.126 OA
ENDBRANCH  26  29
ENDBRANCH  21  23
ENDBRANCH  20  21
ENDBRANCH  19  20
ENDBRANCH  18  19
ENDBRANCH   2  18
TORSDOF 9
