REMARK  Name = ZINC28052417
REMARK  7 active torsions:
REMARK  status: ('A' for Active; 'I' for Inactive)
REMARK    1  A    between atoms: C_1  and  C_2
REMARK    2  A    between atoms: C_10  and  C_12
REMARK    3  A    between atoms: C_17  and  O_18
REMARK    4  A    between atoms: O_18  and  C_19
REMARK    5  A    between atoms: C_23  and  C_26
REMARK    6  A    between atoms: C_29  and  O_32
REMARK    7  A    between atoms: O_32  and  C_33
REMARK                            x       y       z     vdW  Elec       q    Type
REMARK                         _______ _______ _______ _____ _____    ______ ____
ROOT
ATOM      1  C   UNL     1      10.134  -4.164  -1.028  0.00  0.00    +0.069 C 
ATOM      2  C   UNL     1       9.090  -3.473  -1.867  0.00  0.00    +0.087 A 
ATOM      3  C   UNL     1       8.124  -2.572  -1.426  0.00  0.00    +0.049 A 
ATOM      4  C   UNL     1       7.426  -2.236  -2.558  0.00  0.00    +0.226 A 
ATOM      5  O   UNL     1       7.984  -2.915  -3.555  0.00  0.00    -0.339 OA
ATOM      6  N   UNL     1       8.907  -3.600  -3.158  0.00  0.00    -0.081 NA
ATOM      7  N   UNL     1       6.370  -1.350  -2.508  0.00  0.00    -0.286 N 
ATOM      8  C   UNL     1       5.839  -1.028  -1.282  0.00  0.00    +0.019 C 
ATOM      9  C   UNL     1       6.460  -1.323  -0.120  0.00  0.00    +0.024 C 
ATOM     10  C   UNL     1       7.809  -2.013  -0.076  0.00  0.00    +0.094 C 
ATOM     11  C   UNL     1       5.875  -0.995   1.117  0.00  0.00    +0.162 C 
ATOM     12  O   UNL     1       6.471  -1.259   2.143  0.00  0.00    -0.292 OA
ATOM     13  C   UNL     1       4.532  -0.326   1.199  0.00  0.00    +0.088 C 
ATOM     14  C   UNL     1       3.711  -0.707  -0.038  0.00  0.00    +0.032 C 
ATOM     15  C   UNL     1       4.506  -0.313  -1.283  0.00  0.00    +0.059 C 
ATOM     16  H   UNL     1       5.971  -0.917  -3.437  0.00  0.00    +0.155 HD
ENDROOT
BRANCH  10  17
ATOM     17  C   UNL     1       8.870  -1.017   0.316  0.00  0.00    +0.006 A 
ATOM     18  C   UNL     1       9.093   0.100  -0.466  0.00  0.00    +0.008 A 
ATOM     19  C   UNL     1      10.066   1.014  -0.106  0.00  0.00    +0.001 A 
ATOM     20  C   UNL     1      10.818   0.813   1.036  0.00  0.00    +0.004 A 
ATOM     21  C   UNL     1      10.600  -0.302   1.821  0.00  0.00    +0.046 A 
ATOM     22  C   UNL     1       9.620  -1.219   1.465  0.00  0.00    +0.124 A 
BRANCH  22  23
ATOM     23  O   UNL     1       9.399  -2.314   2.239  0.00  0.00    -0.495 OA
ATOM     24  C   UNL     1      10.210  -2.457   3.407  0.00  0.00    +0.277 C 
ENDBRANCH  22  23
ENDBRANCH  10  17
BRANCH  14  25
ATOM     25  C   UNL     1       2.396   0.030  -0.021  0.00  0.00    -0.043 A 
ATOM     26  C   UNL     1       1.208  -0.677  -0.013  0.00  0.00    +0.007 A 
ATOM     27  C   UNL     1       0.002  -0.004   0.002  0.00  0.00    +0.046 A 
ATOM     28  C   UNL     1      -0.017   1.383   0.010  0.00  0.00    +0.120 A 
ATOM     29  C   UNL     1       1.177   2.091   0.002  0.00  0.00    +0.046 A 
ATOM     30  C   UNL     1       2.380   1.413  -0.013  0.00  0.00    +0.007 A 
BRANCH  28  31
ATOM     31  O   UNL     1      -1.202   2.048   0.019  0.00  0.00    -0.495 OA
ATOM     32  C   UNL     1      -1.145   3.475   0.026  0.00  0.00    +0.277 C 
ENDBRANCH  28  31
ENDBRANCH  14  25
TORSDOF 4
