REMARK  Name = ZINC01815705
REMARK  11 active torsions:
REMARK  status: ('A' for Active; 'I' for Inactive)
REMARK    1  A    between atoms: C_1  and  C_2
REMARK    2  A    between atoms: C_5  and  N_8
REMARK    3  A    between atoms: N_8  and  C_9
REMARK    4  A    between atoms: C_9  and  N_11
REMARK    5  A    between atoms: N_11  and  N_12
REMARK    6  A    between atoms: C_13  and  C_15
REMARK    7  A    between atoms: C_15  and  S_16
REMARK    8  A    between atoms: S_16  and  C_17
REMARK    9  A    between atoms: C_20  and  S_22
REMARK   10  A    between atoms: S_22  and  C_23
REMARK   11  A    between atoms: C_23  and  C_24
REMARK                            x       y       z     vdW  Elec       q    Type
REMARK                         _______ _______ _______ _____ _____    ______ ____
ROOT
ATOM      1  C   UNL     1       3.483  -0.854   6.646  0.00  0.00    +0.173 C 
ENDROOT
BRANCH   1   3
ATOM      2  N   UNL     1       4.981  -2.359   7.914  0.00  0.00    -0.234 N 
ATOM      3  C   UNL     1       3.860  -1.612   7.893  0.00  0.00    +0.239 C 
ATOM      4  O   UNL     1       3.154  -1.550   8.877  0.00  0.00    -0.273 OA
ATOM      5  H   UNL     1       5.546  -2.409   7.127  0.00  0.00    +0.173 HD
BRANCH   2   6
ATOM      6  N   UNL     1       5.332  -3.064   9.073  0.00  0.00    -0.246 N 
ATOM      7  H   UNL     1       4.767  -3.014   9.861  0.00  0.00    +0.172 HD
BRANCH   6   8
ATOM      8  C   UNL     1       6.453  -3.811   9.095  0.00  0.00    +0.151 C 
ATOM      9  S   UNL     1       6.881  -4.672  10.511  0.00  0.00    -0.017 S 
BRANCH   8  10
ATOM     10  N   UNL     1       7.238  -3.881   8.001  0.00  0.00    -0.296 N 
ATOM     11  H   UNL     1       6.964  -3.444   7.179  0.00  0.00    +0.154 HD
BRANCH  10  16
ATOM     12  C   UNL     1      12.140  -6.727   8.202  0.00  0.00    +0.044 C 
ATOM     13  C   UNL     1      10.838  -5.971   8.149  0.00  0.00    -0.050 A 
ATOM     14  C   UNL     1       9.692  -6.532   8.682  0.00  0.00    +0.005 A 
ATOM     15  C   UNL     1       8.497  -5.842   8.634  0.00  0.00    +0.023 A 
ATOM     16  C   UNL     1       8.447  -4.582   8.051  0.00  0.00    +0.033 A 
ATOM     17  C   UNL     1       9.598  -4.024   7.511  0.00  0.00    +0.023 A 
ATOM     18  C   UNL     1      10.791  -4.717   7.567  0.00  0.00    +0.005 A 
ENDBRANCH  10  16
ENDBRANCH   8  10
ENDBRANCH   6   8
ENDBRANCH   2   6
ENDBRANCH   1   3
BRANCH   1  19
ATOM     19  S   UNL     1       1.935   0.048   6.932  0.00  0.00    -0.088 S 
BRANCH  19  20
ATOM     20  C   UNL     1       1.634   0.872   5.404  0.00  0.00    +0.160 A 
ATOM     21  N   UNL     1       2.345   0.858   4.293  0.00  0.00    -0.134 NA
ATOM     22  N   UNL     1       1.923   1.583   3.201  0.00  0.00    -0.134 NA
ATOM     23  C   UNL     1       0.810   2.287   3.272  0.00  0.00    +0.160 A 
ATOM     24  S   UNL     1       0.288   1.954   4.947  0.00  0.00    -0.033 S 
BRANCH  23  25
ATOM     25  S   UNL     1       0.046   3.293   2.044  0.00  0.00    -0.092 S 
BRANCH  25  26
ATOM     26  C   UNL     1       1.150   3.152   0.611  0.00  0.00    +0.112 C 
BRANCH  26  27
ATOM     27  C   UNL     1       0.606   3.977  -0.526  0.00  0.00    -0.029 A 
ATOM     28  C   UNL     1      -0.250   3.420  -1.427  0.00  0.00    +0.005 A 
ATOM     29  C   UNL     1      -0.769   4.169  -2.481  0.00  0.00    +0.001 A 
ATOM     30  C   UNL     1      -0.426   5.475  -2.648  0.00  0.00    +0.008 A 
ATOM     31  C   UNL     1       0.460   6.083  -1.743  0.00  0.00    -0.018 A 
ATOM     32  C   UNL     1       0.983   5.323  -0.666  0.00  0.00    -0.014 A 
ATOM     33  C   UNL     1       1.869   5.931   0.239  0.00  0.00    +0.009 A 
ATOM     34  C   UNL     1       2.212   7.237   0.072  0.00  0.00    +0.001 A 
ATOM     35  C   UNL     1       1.698   7.984  -0.987  0.00  0.00    +0.001 A 
ATOM     36  C   UNL     1       0.838   7.429  -1.883  0.00  0.00    +0.008 A 
ENDBRANCH  26  27
ENDBRANCH  25  26
ENDBRANCH  23  25
ENDBRANCH  19  20
ENDBRANCH   1  19
TORSDOF 10
