REMARK  Name = ZINC10460461
REMARK  7 active torsions:
REMARK  status: ('A' for Active; 'I' for Inactive)
REMARK    1  A    between atoms: C_5  and  C_7
REMARK    2  A    between atoms: C_7  and  C_8
REMARK    3  A    between atoms: C_8  and  C_9
REMARK    4  A    between atoms: N_11  and  C_12
REMARK    5  A    between atoms: C_12  and  N_14
REMARK    6  A    between atoms: N_14  and  N_15
REMARK    7  A    between atoms: C_16  and  C_18
REMARK                            x       y       z     vdW  Elec       q    Type
REMARK                         _______ _______ _______ _____ _____    ______ ____
ROOT
ATOM      1  C   UNL     1       2.369   1.025  -0.015  0.00  0.00    +0.153 C 
ATOM      2  S   UNL     1       3.840   1.901  -0.024  0.00  0.00    -0.017 S 
ENDROOT
BRANCH   1   5
ATOM      3  C   UNL     1       3.563  -0.981  -0.037  0.00  0.00    +0.219 C 
ATOM      4  O   UNL     1       4.605  -0.360  -0.044  0.00  0.00    -0.275 OA
ATOM      5  N   UNL     1       2.387  -0.323  -0.022  0.00  0.00    -0.267 N 
ATOM      6  H   UNL     1       1.554  -0.819  -0.017  0.00  0.00    +0.157 HD
BRANCH   3   7
ATOM      7  C   UNL     1       3.584  -2.487  -0.045  0.00  0.00    +0.101 C 
BRANCH   7   8
ATOM      8  C   UNL     1       5.033  -2.978  -0.062  0.00  0.00    +0.046 C 
BRANCH   8  13
ATOM      9  C   UNL     1       5.199  -6.563   1.110  0.00  0.00    +0.000 A 
ATOM     10  C   UNL     1       5.092  -7.250  -0.085  0.00  0.00    +0.001 A 
ATOM     11  C   UNL     1       4.966  -6.555  -1.273  0.00  0.00    +0.020 A 
ATOM     12  C   UNL     1       4.947  -5.171  -1.266  0.00  0.00    +0.044 A 
ATOM     13  C   UNL     1       5.053  -4.485  -0.070  0.00  0.00    -0.029 A 
ATOM     14  C   UNL     1       5.184  -5.181   1.117  0.00  0.00    +0.005 A 
ATOM     15 CL   UNL     1       4.790  -4.298  -2.758  0.00  0.00    -0.083 Cl
ENDBRANCH   8  13
ENDBRANCH   7   8
ENDBRANCH   3   7
ENDBRANCH   1   5
BRANCH   1  16
ATOM     16  N   UNL     1       1.193   1.683  -0.000  0.00  0.00    -0.245 N 
ATOM     17  H   UNL     1       1.179   2.653   0.005  0.00  0.00    +0.172 HD
BRANCH  16  18
ATOM     18  N   UNL     1      -0.011   0.966   0.007  0.00  0.00    -0.231 N 
ATOM     19  C   UNL     1      -1.187   1.624   0.017  0.00  0.00    +0.261 C 
ATOM     20  O   UNL     1      -1.204   2.839   0.023  0.00  0.00    -0.269 OA
ATOM     21  H   UNL     1       0.002  -0.004   0.002  0.00  0.00    +0.173 HD
BRANCH  19  22
ATOM     22  C   UNL     1      -2.457   0.868   0.018  0.00  0.00    +0.052 A 
ATOM     23  C   UNL     1      -2.442  -0.528   0.005  0.00  0.00    +0.014 A 
ATOM     24  C   UNL     1      -3.630  -1.228   0.012  0.00  0.00    +0.001 A 
ATOM     25  C   UNL     1      -4.837  -0.550   0.022  0.00  0.00    +0.001 A 
ATOM     26  C   UNL     1      -4.860   0.833   0.030  0.00  0.00    +0.016 A 
ATOM     27  C   UNL     1      -3.678   1.546   0.028  0.00  0.00    +0.030 A 
ATOM     28 BR   UNL     1      -3.711   3.437   0.038  0.00  0.00    -0.050 Br
ENDBRANCH  19  22
ENDBRANCH  16  18
ENDBRANCH   1  16
TORSDOF 7
