REMARK  Name = ZINC01704333
REMARK  7 active torsions:
REMARK  status: ('A' for Active; 'I' for Inactive)
REMARK    1  A    between atoms: C_1  and  N_45
REMARK    2  A    between atoms: C_6  and  O_23
REMARK    3  A    between atoms: C_7  and  O_22
REMARK    4  A    between atoms: C_16  and  O_20
REMARK    5  A    between atoms: C_17  and  O_19
REMARK    6  A    between atoms: O_20  and  C_21
REMARK    7  A    between atoms: O_23  and  C_24
REMARK                            x       y       z     vdW  Elec       q    Type
REMARK                         _______ _______ _______ _____ _____    ______ ____
ROOT
ATOM      1  C   UNL     1       1.200   7.628   0.606  0.00  0.00    -0.095 C 
ATOM      2  C   UNL     1       2.344   5.665  -0.218  0.00  0.00    -0.074 C 
ATOM      3  C   UNL     1       2.496   4.162  -0.054  0.00  0.00    +0.017 C 
ATOM      4  C   UNL     1       1.171   3.456   0.002  0.00  0.00    -0.043 A 
ATOM      5  C   UNL     1       1.170   2.066   0.002  0.00  0.00    +0.053 A 
ATOM      6  C   UNL     1      -0.016   1.356   0.009  0.00  0.00    +0.162 A 
ATOM      7  C   UNL     1      -1.228   2.037   0.019  0.00  0.00    +0.167 A 
ATOM      8  C   UNL     1      -1.230   3.431   0.041  0.00  0.00    +0.029 A 
ATOM      9  C   UNL     1      -0.026   4.138   0.029  0.00  0.00    -0.046 A 
ATOM     10  C   UNL     1      -0.059   5.644   0.019  0.00  0.00    -0.033 C 
ATOM     11  C   UNL     1      -1.212   6.169   0.873  0.00  0.00    +0.025 C 
ATOM     12  C   UNL     1      -2.507   5.511   0.479  0.00  0.00    -0.037 A 
ATOM     13  C   UNL     1      -2.512   4.173   0.092  0.00  0.00    -0.007 A 
ATOM     14  C   UNL     1      -3.709   3.546  -0.244  0.00  0.00    +0.058 A 
ATOM     15  C   UNL     1      -4.893   4.261  -0.202  0.00  0.00    +0.162 A 
ATOM     16  C   UNL     1      -4.882   5.603   0.171  0.00  0.00    +0.159 A 
ATOM     17  C   UNL     1      -3.689   6.223   0.510  0.00  0.00    +0.053 A 
ATOM     18  N   UNL     1       1.209   6.149   0.585  0.00  0.00    +0.383 N 
ATOM     19  H   UNL     1       1.308   5.803   1.546  0.00  0.00    -0.081 HD
ENDROOT
BRANCH  16  20
ATOM     20  O   UNL     1      -6.045   6.307   0.204  0.00  0.00    -0.503 OA
ATOM     21  H   UNL     1      -6.263   6.745  -0.630  0.00  0.00    +0.292 HD
ENDBRANCH  16  20
BRANCH  15  22
ATOM     22  O   UNL     1      -6.066   3.655  -0.527  0.00  0.00    -0.491 OA
ATOM     23  C   UNL     1      -6.002   2.277  -0.900  0.00  0.00    +0.277 C 
ENDBRANCH  15  22
BRANCH   7  24
ATOM     24  O   UNL     1      -2.401   1.349   0.011  0.00  0.00    -0.503 OA
ATOM     25  H   UNL     1      -2.740   1.139   0.892  0.00  0.00    +0.292 HD
ENDBRANCH   7  24
BRANCH   6  26
ATOM     26  O   UNL     1       0.002  -0.004   0.002  0.00  0.00    -0.491 OA
ATOM     27  C   UNL     1       1.284  -0.635  -0.014  0.00  0.00    +0.277 C 
ENDBRANCH   6  26
TORSDOF 4
