REMARK  Name = ZINC12474828
REMARK  8 active torsions:
REMARK  status: ('A' for Active; 'I' for Inactive)
REMARK    1  A    between atoms: C_1  and  C_2
REMARK    2  A    between atoms: C_2  and  C_8
REMARK    3  A    between atoms: N_3  and  N_4
REMARK    4  A    between atoms: N_4  and  C_5
REMARK    5  A    between atoms: C_5  and  N_7
REMARK    6  A    between atoms: C_13  and  C_32
REMARK    7  A    between atoms: C_24  and  C_31
REMARK    8  A    between atoms: C_27  and  O_30
REMARK                            x       y       z     vdW  Elec       q    Type
REMARK                         _______ _______ _______ _____ _____    ______ ____
ROOT
ATOM      1  C   UNL     1      -1.426  -0.001   0.501  0.00  0.00    -0.023 C 
ATOM      2  C   UNL     1      -1.643   1.152   1.157  0.00  0.00    -0.021 C 
ATOM      3  C   UNL     1      -0.376   2.010   1.111  0.00  0.00    +0.032 C 
ATOM      4  C   UNL     1       0.251   1.508  -0.202  0.00  0.00    +0.006 C 
ATOM      5  C   UNL     1       0.002  -0.004   0.002  0.00  0.00    -0.002 C 
ATOM      6  C   UNL     1       0.252  -0.740  -1.291  0.00  0.00    +0.012 C 
ATOM      7  C   UNL     1       1.420  -0.079  -2.047  0.00  0.00    +0.005 C 
ATOM      8  C   UNL     1       2.375   0.620  -1.097  0.00  0.00    -0.001 C 
ATOM      9  C   UNL     1       1.724   1.811  -0.407  0.00  0.00    -0.003 C 
ATOM     10  C   UNL     1       1.798   3.086  -1.253  0.00  0.00    +0.004 C 
ATOM     11  C   UNL     1       3.204   3.358  -1.774  0.00  0.00    +0.004 C 
ATOM     12  C   UNL     1       3.660   2.162  -2.613  0.00  0.00    -0.002 C 
ATOM     13  C   UNL     1       3.728   0.929  -1.725  0.00  0.00    -0.026 C 
ATOM     14  C   UNL     1       4.196  -0.276  -2.547  0.00  0.00    +0.010 C 
ATOM     15  C   UNL     1       5.558   0.007  -3.174  0.00  0.00    +0.032 C 
ATOM     16  C   UNL     1       5.468   1.242  -4.073  0.00  0.00    +0.115 C 
ATOM     17  C   UNL     1       5.013   2.450  -3.255  0.00  0.00    +0.035 C 
ATOM     18  C   UNL     1       4.731   1.150  -0.582  0.00  0.00    +0.012 C 
ATOM     19  C   UNL     1       0.830  -0.595   1.143  0.00  0.00    +0.016 C 
ENDROOT
BRANCH   1  21
ATOM     20  C   UNL     1      -3.788  -0.958   0.853  0.00  0.00    +0.067 C 
ATOM     21  C   UNL     1      -2.390  -1.084   0.303  0.00  0.00    +0.060 C 
ATOM     22  N   UNL     1      -2.042  -2.154  -0.346  0.00  0.00    -0.186 NA
BRANCH  22  23
ATOM     23  N   UNL     1      -2.965  -3.191  -0.536  0.00  0.00    -0.218 N 
ATOM     24  H   UNL     1      -3.864  -3.110  -0.182  0.00  0.00    +0.176 HD
BRANCH  23  25
ATOM     25  C   UNL     1      -2.603  -4.301  -1.209  0.00  0.00    +0.147 C 
ATOM     26  S   UNL     1      -3.731  -5.568  -1.441  0.00  0.00    -0.017 S 
BRANCH  25  27
ATOM     27  N   UNL     1      -1.353  -4.413  -1.701  0.00  0.00    -0.339 N 
ATOM     28  H   UNL     1      -0.714  -3.696  -1.569  0.00  0.00    +0.144 HD
ATOM     29  H   UNL     1      -1.093  -5.212  -2.186  0.00  0.00    +0.144 HD
ENDBRANCH  25  27
ENDBRANCH  23  25
ENDBRANCH  22  23
ENDBRANCH   1  21
BRANCH  16  30
ATOM     30  O   UNL     1       6.752   1.507  -4.645  0.00  0.00    -0.392 OA
ATOM     31  H   UNL     1       7.103   0.780  -5.178  0.00  0.00    +0.210 HD
ENDBRANCH  16  30
TORSDOF 5
