REMARK  Name = ZINC08935462
REMARK  5 active torsions:
REMARK  status: ('A' for Active; 'I' for Inactive)
REMARK    1  A    between atoms: C_3  and  C_9
REMARK    2  A    between atoms: C_9  and  S_10
REMARK    3  A    between atoms: S_10  and  C_11
REMARK    4  A    between atoms: C_13  and  C_16
REMARK    5  A    between atoms: C_16  and  C_17
REMARK                            x       y       z     vdW  Elec       q    Type
REMARK                         _______ _______ _______ _____ _____    ______ ____
ROOT
ATOM      1  C   UNL     1      -4.518  -0.228   1.438  0.00  0.00    +0.135 A 
ATOM      2  N   UNL     1      -5.359  -0.744   2.315  0.00  0.00    -0.237 NA
ATOM      3  C   UNL     1      -6.446  -1.382   1.925  0.00  0.00    +0.058 A 
ATOM      4  C   UNL     1      -6.678  -1.510   0.596  0.00  0.00    +0.071 A 
ATOM      5  S   UNL     1      -5.258  -0.657  -0.074  0.00  0.00    -0.069 S 
ENDROOT
BRANCH   1   6
ATOM      6  S   UNL     1      -3.024   0.660   1.726  0.00  0.00    -0.094 S 
BRANCH   6   7
ATOM      7  C   UNL     1      -2.513   0.979   0.019  0.00  0.00    +0.113 C 
BRANCH   7  10
ATOM      8  C   UNL     1       1.175   1.783   0.000  0.00  0.00    +0.020 A 
ATOM      9  C   UNL     1      -0.013   1.076   0.008  0.00  0.00    +0.007 A 
ATOM     10  C   UNL     1      -1.219   1.750   0.017  0.00  0.00    -0.019 A 
ATOM     11  C   UNL     1      -1.238   3.134   0.031  0.00  0.00    +0.046 A 
ATOM     12  C   UNL     1      -0.050   3.842   0.023  0.00  0.00    +0.040 A 
ATOM     13  C   UNL     1       1.157   3.166   0.008  0.00  0.00    +0.042 A 
ATOM     14 CL   UNL     1       2.649   4.054  -0.001  0.00  0.00    -0.083 Cl
ATOM     15 CL   UNL     1      -2.753   3.981   0.050  0.00  0.00    -0.083 Cl
ENDBRANCH   7  10
ENDBRANCH   6   7
ENDBRANCH   1   6
BRANCH   3  16
ATOM     16  C   UNL     1      -7.404  -1.961   2.934  0.00  0.00    +0.152 C 
BRANCH  16  17
ATOM     17  C   UNL     1      -6.656  -2.878   3.867  0.00  0.00    +0.221 C 
ATOM     18  O   UNL     1      -5.463  -3.045   3.727  0.00  0.00    -0.275 OA
ATOM     19  N   UNL     1      -7.314  -3.513   4.858  0.00  0.00    -0.301 N 
ATOM     20  C   UNL     1      -8.758  -3.316   5.044  0.00  0.00    +0.108 C 
ATOM     21  C   UNL     1      -9.441  -4.692   5.059  0.00  0.00    +0.019 C 
ATOM     22  C   UNL     1      -8.783  -5.569   6.127  0.00  0.00    +0.003 C 
ATOM     23  C   UNL     1      -7.305  -5.770   5.786  0.00  0.00    +0.019 C 
ATOM     24  C   UNL     1      -6.599  -4.410   5.776  0.00  0.00    +0.108 C 
ENDBRANCH  16  17
ENDBRANCH   3  16
TORSDOF 5
