REMARK  Name = ZINC02478711
REMARK  7 active torsions:
REMARK  status: ('A' for Active; 'I' for Inactive)
REMARK    1  A    between atoms: C_1  and  C_2
REMARK    2  A    between atoms: C_2  and  C_26
REMARK    3  A    between atoms: C_9  and  N_16
REMARK    4  A    between atoms: C_12  and  S_14
REMARK    5  A    between atoms: S_14  and  C_15
REMARK    6  A    between atoms: C_17  and  N_23
REMARK    7  A    between atoms: C_18  and  C_21
REMARK                            x       y       z     vdW  Elec       q    Type
REMARK                         _______ _______ _______ _____ _____    ______ ____
ROOT
ATOM      1  C   UNL     1      -0.019   1.526   0.010  0.00  0.00    +0.023 C 
ATOM      2  C   UNL     1       0.002  -0.004   0.002  0.00  0.00    +0.016 C 
ATOM      3  C   UNL     1       0.737  -0.500  -1.242  0.00  0.00    +0.056 C 
ATOM      4  C   UNL     1       0.971  -1.986  -1.185  0.00  0.00    +0.005 A 
ATOM      5  C   UNL     1       0.963  -2.801  -0.115  0.00  0.00    +0.121 A 
ATOM      6  O   UNL     1       1.230  -4.066  -0.520  0.00  0.00    -0.443 OA
ATOM      7  C   UNL     1       1.413  -4.079  -1.841  0.00  0.00    +0.207 A 
ATOM      8  C   UNL     1       1.250  -2.795  -2.295  0.00  0.00    +0.061 A 
ATOM      9  C   UNL     1       1.367  -2.448  -3.758  0.00  0.00    +0.230 C 
ATOM     10  N   UNL     1       2.174  -3.520  -4.372  0.00  0.00    -0.300 N 
ATOM     11  C   UNL     1       2.036  -4.817  -3.936  0.00  0.00    +0.136 C 
ATOM     12  N   UNL     1       1.698  -5.104  -2.694  0.00  0.00    -0.309 N 
ATOM     13  C   UNL     1       0.696  -2.414   1.323  0.00  0.00    +0.144 C 
ATOM     14  S   UNL     1       0.881  -0.611   1.475  0.00  0.00    -0.146 S 
ATOM     15  C   UNL     1      -1.432  -0.537   0.004  0.00  0.00    +0.023 C 
ATOM     16  H   UNL     1       1.654  -6.025  -2.394  0.00  0.00    +0.170 HD
ATOM     17  H   UNL     1       2.799  -3.311  -5.084  0.00  0.00    +0.150 HD
ENDROOT
BRANCH   9  18
ATOM     18  N   UNL     1       0.038  -2.399  -4.372  0.00  0.00    -0.224 N 
ATOM     19  C   UNL     1      -0.630  -1.279  -4.718  0.00  0.00    +0.134 A 
ATOM     20  C   UNL     1      -1.846  -1.680  -5.265  0.00  0.00    +0.111 A 
ATOM     21  C   UNL     1      -1.870  -3.093  -5.228  0.00  0.00    +0.155 A 
ATOM     22  N   UNL     1      -0.750  -3.506  -4.704  0.00  0.00    -0.175 NA
BRANCH  19  23
ATOM     23  N   UNL     1      -0.190   0.021  -4.558  0.00  0.00    -0.342 N 
ATOM     24  H   UNL     1       0.678   0.195  -4.163  0.00  0.00    +0.144 HD
ATOM     25  H   UNL     1      -0.750   0.761  -4.842  0.00  0.00    +0.144 HD
ENDBRANCH  19  23
BRANCH  20  26
ATOM     26  C   UNL     1      -2.877  -0.823  -5.769  0.00  0.00    +0.104 C 
ATOM     27  N   UNL     1      -3.694  -0.143  -6.169  0.00  0.00    -0.191 NA
ENDBRANCH  20  26
ENDBRANCH   9  18
BRANCH  11  28
ATOM     28  S   UNL     1       2.320  -6.135  -5.071  0.00  0.00    -0.096 S 
ATOM     29  C   UNL     1       2.032  -7.631  -4.086  0.00  0.00    +0.092 C 
ENDBRANCH  11  28
TORSDOF 4
