REMARK  Name = ZINC41026719
REMARK  7 active torsions:
REMARK  status: ('A' for Active; 'I' for Inactive)
REMARK    1  A    between atoms: C_1  and  C_2
REMARK    2  A    between atoms: C_2  and  O_3
REMARK    3  A    between atoms: O_3  and  C_4
REMARK    4  A    between atoms: C_9  and  O_10
REMARK    5  A    between atoms: O_10  and  C_11
REMARK    6  A    between atoms: N_23  and  C_26
REMARK    7  A    between atoms: C_26  and  C_27
REMARK                            x       y       z     vdW  Elec       q    Type
REMARK                         _______ _______ _______ _____ _____    ______ ____
ROOT
ATOM      1  C   UNL     1       2.358  -2.005  -4.561  0.00  0.00    +0.210 A 
ATOM      2  C   UNL     1       2.441  -3.328  -4.803  0.00  0.00    +0.245 A 
ATOM      3  O   UNL     1       3.038  -3.830  -5.893  0.00  0.00    -0.459 OA
ATOM      4  C   UNL     1       3.606  -3.045  -6.831  0.00  0.00    +0.147 A 
ATOM      5  C   UNL     1       3.577  -1.648  -6.683  0.00  0.00    +0.068 A 
ATOM      6  C   UNL     1       2.917  -1.084  -5.493  0.00  0.00    +0.235 A 
ATOM      7  O   UNL     1       2.856   0.120  -5.311  0.00  0.00    -0.283 OA
ATOM      8  C   UNL     1       4.160  -0.828  -7.650  0.00  0.00    +0.019 A 
ATOM      9  C   UNL     1       4.758  -1.388  -8.740  0.00  0.00    +0.047 A 
ATOM     10  C   UNL     1       4.794  -2.775  -8.896  0.00  0.00    +0.130 A 
ATOM     11  C   UNL     1       4.222  -3.601  -7.946  0.00  0.00    +0.051 A 
ATOM     12  C   UNL     1       4.261  -5.100  -8.098  0.00  0.00    +0.130 C 
ATOM     13  N   UNL     1       4.571  -5.446  -9.492  0.00  0.00    -0.262 NA
ATOM     14  C   UNL     1       5.742  -4.684  -9.955  0.00  0.00    +0.319 C 
ATOM     15  O   UNL     1       5.397  -3.297  -9.997  0.00  0.00    -0.476 OA
ENDROOT
BRANCH   1  16
ATOM     16  O   UNL     1       1.740  -1.551  -3.437  0.00  0.00    -0.445 OA
BRANCH  16  22
ATOM     17  C   UNL     1       1.900  -0.353  -1.382  0.00  0.00    +0.163 A 
ATOM     18  C   UNL     1       2.681   0.267  -0.420  0.00  0.00    +0.049 A 
ATOM     19  C   UNL     1       4.055   0.307  -0.567  0.00  0.00    +0.004 A 
ATOM     20  C   UNL     1       4.653  -0.269  -1.673  0.00  0.00    +0.004 A 
ATOM     21  C   UNL     1       3.880  -0.888  -2.636  0.00  0.00    +0.050 A 
ATOM     22  C   UNL     1       2.502  -0.938  -2.493  0.00  0.00    +0.170 A 
BRANCH  17  23
ATOM     23  O   UNL     1       0.548  -0.394  -1.240  0.00  0.00    -0.489 OA
BRANCH  23  25
ATOM     24  C   UNL     1      -1.523   0.081  -0.088  0.00  0.00    +0.048 C 
ATOM     25  C   UNL     1      -0.001   0.228  -0.075  0.00  0.00    +0.226 C 
ENDBRANCH  23  25
ENDBRANCH  17  23
ENDBRANCH  16  22
ENDBRANCH   1  16
BRANCH  13  26
ATOM     26  C   UNL     1       4.791  -6.891  -9.640  0.00  0.00    +0.124 C 
BRANCH  26  27
ATOM     27  C   UNL     1       4.955  -7.228 -11.100  0.00  0.00    -0.015 A 
ATOM     28  C   UNL     1       6.217  -7.440 -11.622  0.00  0.00    +0.008 A 
ATOM     29  C   UNL     1       6.369  -7.749 -12.961  0.00  0.00    +0.020 A 
ATOM     30  C   UNL     1       5.257  -7.846 -13.778  0.00  0.00    +0.042 A 
ATOM     31  C   UNL     1       3.994  -7.634 -13.256  0.00  0.00    +0.040 A 
ATOM     32  C   UNL     1       3.842  -7.330 -11.915  0.00  0.00    +0.047 A 
ATOM     33 CL   UNL     1       2.257  -7.070 -11.257  0.00  0.00    -0.083 Cl
ATOM     34 CL   UNL     1       5.447  -8.234 -15.460  0.00  0.00    -0.083 Cl
ENDBRANCH  26  27
ENDBRANCH  13  26
TORSDOF 6
