REMARK  Name = ZINC13032386
REMARK  14 active torsions:
REMARK  status: ('A' for Active; 'I' for Inactive)
REMARK    1  A    between atoms: C_1  and  C_2
REMARK    2  A    between atoms: C_2  and  C_3
REMARK    3  A    between atoms: C_8  and  N_9
REMARK    4  A    between atoms: N_9  and  C_10
REMARK    5  A    between atoms: C_10  and  C_12
REMARK    6  A    between atoms: C_10  and  C_19
REMARK    7  A    between atoms: C_15  and  O_18
REMARK    8  A    between atoms: N_21  and  C_22
REMARK    9  A    between atoms: C_22  and  C_23
REMARK   10  A    between atoms: C_22  and  C_24
REMARK   11  A    between atoms: C_22  and  C_25
REMARK   12  A    between atoms: C_25  and  C_26
REMARK   13  A    between atoms: C_27  and  C_29
REMARK   14  A    between atoms: C_29  and  N_30
REMARK                            x       y       z     vdW  Elec       q    Type
REMARK                         _______ _______ _______ _____ _____    ______ ____
ROOT
ATOM      1  N   UNL     1      -5.706   3.363  -1.626  0.00  0.00    -0.254 N 
ATOM      2  C   UNL     1      -4.376   3.473  -1.442  0.00  0.00    +0.242 C 
ATOM      3  O   UNL     1      -3.627   3.444  -2.395  0.00  0.00    -0.273 OA
ENDROOT
BRANCH   1   9
ATOM      4  C   UNL     1      -6.978   4.774  -0.136  0.00  0.00    -0.026 A 
ATOM      5  C   UNL     1      -7.843   4.914   0.933  0.00  0.00    +0.005 A 
ATOM      6  C   UNL     1      -8.301   3.796   1.604  0.00  0.00    +0.000 A 
ATOM      7  C   UNL     1      -7.899   2.534   1.206  0.00  0.00    +0.002 A 
ATOM      8  C   UNL     1      -7.039   2.387   0.136  0.00  0.00    +0.024 A 
ATOM      9  C   UNL     1      -6.578   3.509  -0.541  0.00  0.00    +0.041 A 
BRANCH   4  11
ATOM     10  C   UNL     1      -7.376   6.279  -2.066  0.00  0.00    +0.009 C 
ATOM     11  C   UNL     1      -6.475   5.994  -0.863  0.00  0.00    +0.033 C 
ENDBRANCH   4  11
ENDBRANCH   1   9
BRANCH   1  12
ATOM     12  C   UNL     1      -6.240   3.092  -2.963  0.00  0.00    +0.197 C 
BRANCH  12  13
ATOM     13  C   UNL     1      -5.746   1.750  -3.439  0.00  0.00    -0.018 A 
ATOM     14  C   UNL     1      -5.798   0.657  -2.594  0.00  0.00    +0.009 A 
ATOM     15  C   UNL     1      -5.351  -0.576  -3.029  0.00  0.00    +0.046 A 
ATOM     16  C   UNL     1      -4.839  -0.714  -4.311  0.00  0.00    +0.117 A 
ATOM     17  C   UNL     1      -4.784   0.386  -5.155  0.00  0.00    +0.046 A 
ATOM     18  C   UNL     1      -5.237   1.615  -4.717  0.00  0.00    +0.009 A 
BRANCH  16  19
ATOM     19  O   UNL     1      -4.393  -1.924  -4.739  0.00  0.00    -0.507 OA
ATOM     20  H   UNL     1      -3.456  -2.083  -4.561  0.00  0.00    +0.292 HD
ENDBRANCH  16  19
ENDBRANCH  12  13
BRANCH  12  21
ATOM     21  C   UNL     1      -7.746   3.083  -2.911  0.00  0.00    +0.239 C 
ATOM     22  O   UNL     1      -8.318   3.318  -1.867  0.00  0.00    -0.273 OA
ATOM     23  N   UNL     1      -8.458   2.814  -4.023  0.00  0.00    -0.308 N 
ATOM     24  H   UNL     1      -8.001   2.626  -4.858  0.00  0.00    +0.149 HD
BRANCH  23  25
ATOM     25  C   UNL     1      -9.922   2.805  -3.972  0.00  0.00    +0.029 C 
ATOM     26  C   UNL     1     -10.391   1.750  -2.969  0.00  0.00    +0.031 C 
ATOM     27  C   UNL     1     -10.425   4.183  -3.535  0.00  0.00    +0.031 C 
BRANCH  25  28
ATOM     28  C   UNL     1     -10.479   2.475  -5.358  0.00  0.00    +0.022 C 
ATOM     29  C   UNL     1     -12.008   2.466  -5.305  0.00  0.00    +0.006 C 
ENDBRANCH  25  28
ENDBRANCH  23  25
ENDBRANCH  12  21
ENDBRANCH   1  12
BRANCH   2  30
ATOM     30  C   UNL     1      -3.819   3.632  -0.050  0.00  0.00    +0.242 C 
BRANCH  30  31
ATOM     31  N   UNL     1      -2.355   3.607  -0.104  0.00  0.00    -0.235 N 
ATOM     32  C   UNL     1      -1.547   2.499  -0.005  0.00  0.00    +0.090 A 
ATOM     33  C   UNL     1      -1.788   1.139   0.161  0.00  0.00    +0.029 A 
ATOM     34  C   UNL     1      -0.738   0.267   0.228  0.00  0.00    +0.002 A 
ATOM     35  C   UNL     1       0.569   0.725   0.123  0.00  0.00    +0.002 A 
ATOM     36  C   UNL     1       0.832   2.053  -0.044  0.00  0.00    +0.032 A 
ATOM     37  C   UNL     1      -0.227   2.969  -0.112  0.00  0.00    +0.113 A 
ATOM     38  N   UNL     1      -0.280   4.307  -0.268  0.00  0.00    -0.129 NA
ATOM     39  N   UNL     1      -1.502   4.708  -0.268  0.00  0.00    -0.064 NA
ENDBRANCH  30  31
ENDBRANCH   2  30
TORSDOF 10
