REMARK  Name = ZINC58825026
REMARK  12 active torsions:
REMARK  status: ('A' for Active; 'I' for Inactive)
REMARK    1  A    between atoms: C_1  and  C_2
REMARK    2  A    between atoms: C_4  and  C_34
REMARK    3  A    between atoms: C_6  and  N_8
REMARK    4  A    between atoms: C_9  and  C_11
REMARK    5  A    between atoms: C_11  and  S_12
REMARK    6  A    between atoms: S_12  and  C_13
REMARK    7  A    between atoms: C_19  and  S_21
REMARK    8  A    between atoms: S_21  and  C_22
REMARK    9  A    between atoms: C_22  and  C_23
REMARK   10  A    between atoms: N_25  and  C_26
REMARK   11  A    between atoms: C_28  and  C_33
REMARK   12  A    between atoms: C_30  and  C_32
REMARK                            x       y       z     vdW  Elec       q    Type
REMARK                         _______ _______ _______ _____ _____    ______ ____
ROOT
ATOM      1  C   UNL     1       0.443  -2.807   7.735  0.00  0.00    +0.213 A 
ATOM      2  N   UNL     1       0.366  -4.114   7.752  0.00  0.00    -0.120 NA
ATOM      3  N   UNL     1       0.304  -4.535   8.967  0.00  0.00    -0.119 NA
ATOM      4  C   UNL     1       0.338  -3.525   9.778  0.00  0.00    +0.219 A 
ATOM      5  N   UNL     1       0.434  -2.365   9.044  0.00  0.00    -0.180 N 
ATOM      6  N   UNL     1       0.488  -1.179   9.764  0.00  0.00    -0.148 NA
ATOM      7  C   UNL     1       0.452  -1.177  11.070  0.00  0.00    +0.159 A 
ATOM      8  S   UNL     1       0.322  -2.918  11.447  0.00  0.00    -0.020 S 
ENDROOT
BRANCH   1   9
ATOM      9  S   UNL     1       0.546  -1.793   6.298  0.00  0.00    -0.075 S 
BRANCH   9  10
ATOM     10  C   UNL     1       0.510  -2.975   4.922  0.00  0.00    +0.173 C 
BRANCH  10  12
ATOM     11  N   UNL     1       0.583  -2.907   2.451  0.00  0.00    -0.285 N 
ATOM     12  C   UNL     1       0.593  -2.229   3.616  0.00  0.00    +0.227 C 
ATOM     13  O   UNL     1       0.669  -1.019   3.612  0.00  0.00    -0.275 OA
ATOM     14  H   UNL     1       0.449  -3.867   2.450  0.00  0.00    +0.155 HD
BRANCH  11  20
ATOM     15  C   UNL     1      -0.385  -2.462  -2.349  0.00  0.00    +0.044 C 
ATOM     16  C   UNL     1       0.311  -1.988  -1.099  0.00  0.00    -0.048 A 
ATOM     17  C   UNL     1       1.133  -0.877  -1.145  0.00  0.00    +0.006 A 
ATOM     18  C   UNL     1       1.772  -0.438  -0.001  0.00  0.00    -0.048 A 
ATOM     19  C   UNL     1       1.592  -1.108   1.193  0.00  0.00    +0.026 A 
ATOM     20  C   UNL     1       0.768  -2.225   1.243  0.00  0.00    +0.034 A 
ATOM     21  C   UNL     1       0.122  -2.660   0.093  0.00  0.00    +0.026 A 
ATOM     22  C   UNL     1       2.667   0.773  -0.056  0.00  0.00    +0.044 C 
ENDBRANCH  11  20
ENDBRANCH  10  12
ENDBRANCH   9  10
ENDBRANCH   1   9
BRANCH   7  23
ATOM     23  S   UNL     1       0.508   0.194  12.176  0.00  0.00    -0.088 S 
BRANCH  23  24
ATOM     24  C   UNL     1       0.629   1.636  11.082  0.00  0.00    +0.172 C 
BRANCH  24  25
ATOM     25  C   UNL     1       0.685   2.892  11.912  0.00  0.00    +0.227 C 
ATOM     26  O   UNL     1       0.647   2.822  13.123  0.00  0.00    -0.275 OA
ATOM     27  N   UNL     1       0.778   4.094  11.310  0.00  0.00    -0.285 N 
ATOM     28  H   UNL     1       0.733   4.157  10.343  0.00  0.00    +0.155 HD
BRANCH  27  29
ATOM     29  C   UNL     1       0.939   5.252  12.079  0.00  0.00    +0.034 A 
ATOM     30  C   UNL     1       0.376   6.450  11.660  0.00  0.00    +0.026 A 
ATOM     31  C   UNL     1       0.536   7.591  12.421  0.00  0.00    -0.048 A 
ATOM     32  C   UNL     1       1.257   7.541  13.600  0.00  0.00    +0.006 A 
ATOM     33  C   UNL     1       1.820   6.350  14.020  0.00  0.00    -0.048 A 
ATOM     34  C   UNL     1       1.657   5.204  13.267  0.00  0.00    +0.026 A 
ATOM     35  C   UNL     1       2.605   6.300  15.306  0.00  0.00    +0.044 C 
ATOM     36  C   UNL     1      -0.074   8.892  11.967  0.00  0.00    +0.044 C 
ENDBRANCH  27  29
ENDBRANCH  24  25
ENDBRANCH  23  24
ENDBRANCH   7  23
TORSDOF 8
