REMARK  Name = ZINC30282732
REMARK  7 active torsions:
REMARK  status: ('A' for Active; 'I' for Inactive)
REMARK    1  A    between atoms: C_4  and  C_7
REMARK    2  A    between atoms: C_7  and  C_9
REMARK    3  A    between atoms: C_7  and  N_14
REMARK    4  A    between atoms: C_15  and  C_17
REMARK    5  A    between atoms: C_17  and  N_18
REMARK    6  A    between atoms: C_21  and  N_24
REMARK    7  A    between atoms: C_25  and  C_27
REMARK                            x       y       z     vdW  Elec       q    Type
REMARK                         _______ _______ _______ _____ _____    ______ ____
ROOT
ATOM      1  N   UNL     1      -2.211   5.515   0.918  0.00  0.00    -0.306 N 
ATOM      2  C   UNL     1      -2.046   5.687   2.245  0.00  0.00    +0.197 C 
ATOM      3  O   UNL     1      -0.962   6.005   2.685  0.00  0.00    -0.278 OA
ATOM      4  H   UNL     1      -3.195   5.227   0.519  0.00  0.00    +0.150 HD
ENDROOT
BRANCH   1   5
ATOM      5  C   UNL     1      -1.080   5.712   0.008  0.00  0.00    +0.140 C 
BRANCH   5   9
ATOM      6  C   UNL     1      -2.538   6.725  -3.877  0.00  0.00    +0.000 A 
ATOM      7  C   UNL     1      -1.421   7.362  -3.371  0.00  0.00    +0.000 A 
ATOM      8  C   UNL     1      -0.949   7.034  -2.114  0.00  0.00    +0.006 A 
ATOM      9  C   UNL     1      -1.595   6.070  -1.363  0.00  0.00    -0.022 A 
ATOM     10  C   UNL     1      -2.709   5.429  -1.871  0.00  0.00    +0.006 A 
ATOM     11  C   UNL     1      -3.184   5.760  -3.127  0.00  0.00    +0.000 A 
ENDBRANCH   5   9
BRANCH   5  12
ATOM     12  C   UNL     1      -0.274   4.442  -0.074  0.00  0.00    +0.014 A 
ATOM     13  C   UNL     1       1.072   4.286  -0.117  0.00  0.00    +0.013 A 
ATOM     14  C   UNL     1       1.597   3.010  -0.192  0.00  0.00    +0.008 A 
ATOM     15  C   UNL     1       0.751   1.951  -0.219  0.00  0.00    +0.045 A 
ATOM     16  S   UNL     1      -0.844   2.751  -0.145  0.00  0.00    -0.099 S 
ENDBRANCH   5  12
ENDBRANCH   1   5
BRANCH   2  17
ATOM     17  C   UNL     1      -3.210   5.485   3.181  0.00  0.00    +0.019 C 
BRANCH  17  18
ATOM     18  N   UNL     1      -2.743   5.583   4.570  0.00  0.00    +0.385 N 
ATOM     19  C   UNL     1      -3.876   5.642   5.503  0.00  0.00    -0.076 C 
ATOM     20  C   UNL     1      -3.357   5.889   6.922  0.00  0.00    +0.003 C 
ATOM     21  C   UNL     1      -2.405   4.757   7.317  0.00  0.00    +0.069 C 
ATOM     22  C   UNL     1      -1.261   4.686   6.302  0.00  0.00    +0.003 C 
ATOM     23  C   UNL     1      -1.840   4.473   4.902  0.00  0.00    -0.076 C 
ATOM     24  H   UNL     1      -2.175   6.519   4.673  0.00  0.00    -0.081 HD
BRANCH  21  25
ATOM     25  N   UNL     1      -1.861   5.018   8.652  0.00  0.00    -0.312 N 
ATOM     26  C   UNL     1      -2.549   4.639   9.746  0.00  0.00    +0.216 C 
ATOM     27  O   UNL     1      -3.619   4.080   9.627  0.00  0.00    -0.276 OA
ATOM     28  H   UNL     1      -0.890   5.524   8.760  0.00  0.00    +0.149 HD
BRANCH  26  29
ATOM     29  C   UNL     1      -1.989   4.907  11.119  0.00  0.00    +0.075 C 
ATOM     30  C   UNL     1      -1.536   3.702  11.946  0.00  0.00    +0.013 C 
ATOM     31  C   UNL     1      -2.817   4.450  12.322  0.00  0.00    +0.013 C 
ENDBRANCH  26  29
ENDBRANCH  21  25
ENDBRANCH  17  18
ENDBRANCH   2  17
TORSDOF 7
