REMARK  Name = ZINC40741933
REMARK  14 active torsions:
REMARK  status: ('A' for Active; 'I' for Inactive)
REMARK    1  A    between atoms: C_1  and  C_2
REMARK    2  A    between atoms: C_2  and  O_3
REMARK    3  A    between atoms: O_3  and  C_4
REMARK    4  A    between atoms: C_6  and  C_20
REMARK    5  A    between atoms: C_9  and  O_10
REMARK    6  A    between atoms: O_10  and  C_11
REMARK    7  A    between atoms: C_11  and  C_12
REMARK    8  A    between atoms: C_17  and  C_18
REMARK    9  A    between atoms: C_20  and  N_21
REMARK   10  A    between atoms: N_21  and  C_22
REMARK   11  A    between atoms: C_22  and  C_23
REMARK   12  A    between atoms: C_23  and  S_24
REMARK   13  A    between atoms: S_24  and  C_25
REMARK   14  A    between atoms: N_29  and  C_30
REMARK                            x       y       z     vdW  Elec       q    Type
REMARK                         _______ _______ _______ _____ _____    ______ ____
ROOT
ATOM      1  C   UNL     1      -1.498  -1.849   0.006  0.00  0.00    +0.164 A 
ATOM      2  C   UNL     1      -0.389  -2.680  -0.003  0.00  0.00    +0.051 A 
ATOM      3  C   UNL     1      -0.552  -4.052  -0.009  0.00  0.00    -0.059 A 
ATOM      4  C   UNL     1      -1.822  -4.600  -0.006  0.00  0.00    +0.025 A 
ATOM      5  C   UNL     1      -2.934  -3.777   0.003  0.00  0.00    +0.086 A 
ATOM      6  C   UNL     1      -2.776  -2.400   0.016  0.00  0.00    +0.181 A 
ATOM      7 CL   UNL     1      -4.526  -4.469   0.006  0.00  0.00    -0.080 Cl
ENDROOT
BRANCH   1   8
ATOM      8  O   UNL     1      -1.339  -0.499   0.012  0.00  0.00    -0.489 OA
BRANCH   8  10
ATOM      9  C   UNL     1      -0.019   1.526   0.010  0.00  0.00    +0.048 C 
ATOM     10  C   UNL     1       0.002  -0.004   0.002  0.00  0.00    +0.226 C 
ENDBRANCH   8  10
ENDBRANCH   1   8
BRANCH   6  11
ATOM     11  O   UNL     1      -3.868  -1.589   0.031  0.00  0.00    -0.482 OA
BRANCH  11  12
ATOM     12  C   UNL     1      -4.401  -1.195  -1.235  0.00  0.00    +0.265 C 
BRANCH  12  13
ATOM     13  C   UNL     1      -5.598  -0.305  -1.021  0.00  0.00    -0.007 A 
ATOM     14  C   UNL     1      -6.006   0.007   0.263  0.00  0.00    +0.007 A 
ATOM     15  C   UNL     1      -7.104   0.824   0.459  0.00  0.00    +0.000 A 
ATOM     16  C   UNL     1      -7.794   1.328  -0.628  0.00  0.00    +0.000 A 
ATOM     17  C   UNL     1      -7.386   1.016  -1.911  0.00  0.00    +0.004 A 
ATOM     18  C   UNL     1      -6.285   0.203  -2.107  0.00  0.00    -0.044 A 
ATOM     19  C   UNL     1      -5.836  -0.132  -3.506  0.00  0.00    +0.044 C 
ENDBRANCH  12  13
ENDBRANCH  11  12
ENDBRANCH   6  11
BRANCH   3  20
ATOM     20  C   UNL     1       0.655  -4.953  -0.019  0.00  0.00    -0.047 C 
BRANCH  20  21
ATOM     21  N   UNL     1       1.054  -5.253   1.363  0.00  0.00    +0.382 N 
ATOM     22  H   UNL     1       1.280  -4.394   1.841  0.00  0.00    -0.085 HD
ATOM     23  H   UNL     1       0.295  -5.714   1.840  0.00  0.00    -0.085 HD
BRANCH  21  24
ATOM     24  C   UNL     1       2.232  -6.131   1.353  0.00  0.00    -0.071 C 
BRANCH  24  25
ATOM     25  C   UNL     1       2.648  -6.443   2.792  0.00  0.00    +0.058 C 
BRANCH  25  26
ATOM     26  S   UNL     1       4.102  -7.528   2.780  0.00  0.00    -0.086 S 
BRANCH  26  27
ATOM     27  C   UNL     1       4.452  -7.791   4.487  0.00  0.00    +0.214 A 
ATOM     28  N   UNL     1       3.782  -7.300   5.507  0.00  0.00    -0.101 NA
ATOM     29  N   UNL     1       4.302  -7.688   6.615  0.00  0.00    -0.022 NA
ATOM     30  N   UNL     1       5.324  -8.441   6.393  0.00  0.00    -0.038 NA
ATOM     31  N   UNL     1       5.459  -8.543   4.997  0.00  0.00    -0.187 N 
BRANCH  31  32
ATOM     32  C   UNL     1       6.428  -9.265   4.285  0.00  0.00    +0.070 A 
ATOM     33  C   UNL     1       6.098  -9.871   3.081  0.00  0.00    +0.028 A 
ATOM     34  C   UNL     1       7.055 -10.581   2.382  0.00  0.00    +0.002 A 
ATOM     35  C   UNL     1       8.340 -10.688   2.881  0.00  0.00    +0.000 A 
ATOM     36  C   UNL     1       8.671 -10.086   4.080  0.00  0.00    +0.002 A 
ATOM     37  C   UNL     1       7.720  -9.370   4.781  0.00  0.00    +0.028 A 
ENDBRANCH  31  32
ENDBRANCH  26  27
ENDBRANCH  25  26
ENDBRANCH  24  25
ENDBRANCH  21  24
ENDBRANCH  20  21
ENDBRANCH   3  20
TORSDOF 12
