REMARK  Name = ZINC46881691
REMARK  9 active torsions:
REMARK  status: ('A' for Active; 'I' for Inactive)
REMARK    1  A    between atoms: C_1  and  C_2
REMARK    2  A    between atoms: C_5  and  O_30
REMARK    3  A    between atoms: C_6  and  N_8
REMARK    4  A    between atoms: C_9  and  C_11
REMARK    5  A    between atoms: C_11  and  N_12
REMARK    6  A    between atoms: N_15  and  N_16
REMARK    7  A    between atoms: C_17  and  C_19
REMARK    8  A    between atoms: C_26  and  C_29
REMARK    9  A    between atoms: O_30  and  C_31
REMARK                            x       y       z     vdW  Elec       q    Type
REMARK                         _______ _______ _______ _____ _____    ______ ____
ROOT
ATOM      1  N   UNL     1       0.369  -1.951   5.978  0.00  0.00    -0.290 N 
ATOM      2  C   UNL     1       0.491  -2.410   7.239  0.00  0.00    +0.316 C 
ATOM      3  O   UNL     1       0.527  -3.607   7.449  0.00  0.00    -0.251 OA
ATOM      4  N   UNL     1       0.574  -1.543   8.267  0.00  0.00    -0.218 N 
ATOM      5  H   UNL     1       0.340  -0.996   5.810  0.00  0.00    +0.151 HD
ATOM      6  H   UNL     1       0.662  -1.873   9.175  0.00  0.00    +0.174 HD
ENDROOT
BRANCH   4   7
ATOM      7  N   UNL     1       0.533  -0.163   8.025  0.00  0.00    -0.229 N 
ATOM      8  C   UNL     1       0.616   0.704   9.053  0.00  0.00    +0.267 C 
ATOM      9  O   UNL     1       0.727   0.289  10.192  0.00  0.00    -0.268 OA
ATOM     10  H   UNL     1       0.445   0.167   7.117  0.00  0.00    +0.173 HD
BRANCH   8  11
ATOM     11  C   UNL     1       0.573   2.147   8.799  0.00  0.00    +0.076 A 
ATOM     12  C   UNL     1       0.648   3.193   9.700  0.00  0.00    +0.024 A 
ATOM     13  C   UNL     1       0.581   4.476   9.177  0.00  0.00    -0.036 A 
ATOM     14  C   UNL     1       0.448   4.580   7.824  0.00  0.00    -0.006 A 
ATOM     15  S   UNL     1       0.419   3.012   7.248  0.00  0.00    -0.088 S 
ATOM     16  C   UNL     1       0.356   5.846   7.025  0.00  0.00    +0.043 C 
ATOM     17  C   UNL     1       0.810   7.014   7.912  0.00  0.00    +0.009 C 
ATOM     18  C   UNL     1       0.097   6.912   9.264  0.00  0.00    -0.009 C 
ATOM     19  C   UNL     1       0.649   5.724  10.053  0.00  0.00    +0.039 C 
ATOM     20  C   UNL     1       0.327   8.199  10.058  0.00  0.00    +0.008 C 
ENDBRANCH   8  11
ENDBRANCH   4   7
BRANCH   1  21
ATOM     21  C   UNL     1       0.279  -2.894   4.860  0.00  0.00    +0.202 C 
BRANCH  21  23
ATOM     22  N   UNL     1       0.050  -2.795   2.399  0.00  0.00    -0.281 N 
ATOM     23  C   UNL     1       0.149  -2.130   3.568  0.00  0.00    +0.235 C 
ATOM     24  O   UNL     1       0.134  -0.917   3.579  0.00  0.00    -0.274 OA
ATOM     25  H   UNL     1      -0.018  -3.762   2.396  0.00  0.00    +0.155 HD
BRANCH  22  31
ATOM     26  C   UNL     1       1.263   1.227  -0.157  0.00  0.00    +0.044 C 
ATOM     27  C   UNL     1       0.627  -0.137  -0.079  0.00  0.00    -0.048 A 
ATOM     28  C   UNL     1       0.040  -0.689  -1.202  0.00  0.00    +0.007 A 
ATOM     29  C   UNL     1      -0.546  -1.940  -1.136  0.00  0.00    +0.048 A 
ATOM     30  C   UNL     1      -0.545  -2.643   0.058  0.00  0.00    +0.141 A 
ATOM     31  C   UNL     1       0.047  -2.088   1.189  0.00  0.00    +0.076 A 
ATOM     32  C   UNL     1       0.637  -0.835   1.114  0.00  0.00    +0.030 A 
BRANCH  30  33
ATOM     33  O   UNL     1      -1.121  -3.873   0.124  0.00  0.00    -0.493 OA
ATOM     34  C   UNL     1      -1.709  -4.380  -1.076  0.00  0.00    +0.277 C 
ENDBRANCH  30  33
ENDBRANCH  22  31
ENDBRANCH  21  23
ENDBRANCH   1  21
TORSDOF 6
