REMARK  Name = ZINC06143684
REMARK  15 active torsions:
REMARK  status: ('A' for Active; 'I' for Inactive)
REMARK    1  A    between atoms: C_1  and  C_2
REMARK    2  A    between atoms: C_8  and  S_15
REMARK    3  A    between atoms: C_12  and  C_13
REMARK    4  A    between atoms: S_15  and  C_16
REMARK    5  A    between atoms: C_16  and  C_17
REMARK    6  A    between atoms: C_17  and  C_19
REMARK    7  A    between atoms: C_21  and  C_30
REMARK    8  A    between atoms: C_22  and  O_29
REMARK    9  A    between atoms: C_23  and  C_25
REMARK   10  A    between atoms: C_25  and  C_26
REMARK   11  A    between atoms: C_25  and  C_27
REMARK   12  A    between atoms: C_25  and  C_28
REMARK   13  A    between atoms: C_30  and  C_31
REMARK   14  A    between atoms: C_30  and  C_32
REMARK   15  A    between atoms: C_30  and  C_33
REMARK                            x       y       z     vdW  Elec       q    Type
REMARK                         _______ _______ _______ _____ _____    ______ ____
ROOT
ATOM      1  C   UNL     1       2.474   1.081  -0.015  0.00  0.00    +0.173 C 
ATOM      2  O   UNL     1       2.494  -0.132  -0.022  0.00  0.00    -0.291 OA
ENDROOT
BRANCH   1   3
ATOM      3  C   UNL     1       1.190   1.794   0.000  0.00  0.00    +0.019 A 
ATOM      4  C   UNL     1      -0.013   1.076   0.008  0.00  0.00    +0.019 A 
ATOM      5  C   UNL     1      -1.208   1.746   0.017  0.00  0.00    +0.000 A 
ATOM      6  C   UNL     1      -1.229   3.137   0.031  0.00  0.00    +0.124 A 
ATOM      7  C   UNL     1      -0.037   3.855   0.023  0.00  0.00    +0.000 A 
ATOM      8  C   UNL     1       1.164   3.194   0.008  0.00  0.00    +0.019 A 
BRANCH   7   9
ATOM      9  C   UNL     1      -0.067   5.361   0.031  0.00  0.00    -0.009 C 
ATOM     10  C   UNL     1       1.365   5.900   0.020  0.00  0.00    +0.015 C 
ATOM     11  C   UNL     1      -0.810   5.864  -1.208  0.00  0.00    +0.015 C 
ATOM     12  C   UNL     1      -0.786   5.851   1.290  0.00  0.00    +0.015 C 
ENDBRANCH   7   9
BRANCH   5  13
ATOM     13  C   UNL     1      -2.503   0.975   0.019  0.00  0.00    -0.009 C 
ATOM     14  C   UNL     1      -2.203  -0.525   0.009  0.00  0.00    +0.015 C 
ATOM     15  C   UNL     1      -3.305   1.327   1.274  0.00  0.00    +0.015 C 
ATOM     16  C   UNL     1      -3.316   1.341  -1.224  0.00  0.00    +0.015 C 
ENDBRANCH   5  13
BRANCH   6  17
ATOM     17  O   UNL     1      -2.415   3.796   0.046  0.00  0.00    -0.506 OA
ATOM     18  H   UNL     1      -2.767   3.991  -0.833  0.00  0.00    +0.292 HD
ENDBRANCH   6  17
ENDBRANCH   1   3
BRANCH   1  19
ATOM     19  C   UNL     1       3.766   1.856  -0.024  0.00  0.00    +0.156 C 
BRANCH  19  20
ATOM     20  S   UNL     1       5.161   0.703  -0.042  0.00  0.00    -0.080 S 
BRANCH  20  28
ATOM     21  C   UNL     1      10.978   4.430  -0.077  0.00  0.00    +0.046 C 
ATOM     22  C   UNL     1       9.499   4.716  -0.062  0.00  0.00    -0.015 A 
ATOM     23  C   UNL     1       8.583   3.663  -0.059  0.00  0.00    +0.076 A 
ATOM     24  C   UNL     1       8.837   2.205  -0.068  0.00  0.00    +0.261 A 
ATOM     25  O   UNL     1       9.975   1.771  -0.080  0.00  0.00    -0.267 OA
ATOM     26  N   UNL     1       7.780   1.370  -0.058  0.00  0.00    -0.301 N 
ATOM     27  H   UNL     1       7.932   0.412  -0.061  0.00  0.00    +0.171 HD
ATOM     28  C   UNL     1       6.502   1.845  -0.049  0.00  0.00    +0.170 A 
ATOM     29  N   UNL     1       6.245   3.138  -0.040  0.00  0.00    -0.216 NA
ATOM     30  C   UNL     1       7.216   4.036  -0.044  0.00  0.00    +0.117 A 
ATOM     31  S   UNL     1       7.278   5.810  -0.036  0.00  0.00    -0.062 S 
ATOM     32  C   UNL     1       9.052   6.006  -0.051  0.00  0.00    +0.106 A 
BRANCH  32  33
ATOM     33  C   UNL     1       9.833   7.242  -0.052  0.00  0.00    +0.393 C 
ATOM     34  O   UNL     1      11.049   7.194  -0.063  0.00  0.00    -0.240 OA
ATOM     35  O   UNL     1       9.206   8.437  -0.041  0.00  0.00    -0.240 OA
ENDBRANCH  32  33
ENDBRANCH  20  28
ENDBRANCH  19  20
ENDBRANCH   1  19
TORSDOF 8
