REMARK  Name = ZINC35697208
REMARK  3 active torsions:
REMARK  status: ('A' for Active; 'I' for Inactive)
REMARK    1  A    between atoms: C_3  and  C_8
REMARK    2  A    between atoms: C_5  and  N_7
REMARK    3  A    between atoms: C_10  and  C_13
REMARK                            x       y       z     vdW  Elec       q    Type
REMARK                         _______ _______ _______ _____ _____    ______ ____
ROOT
ATOM      1  C   UNL     1       3.659   2.176  -0.023  0.00  0.00    +0.202 A 
ATOM      2  N   UNL     1       3.768   3.514  -0.012  0.00  0.00    -0.187 NA
ATOM      3  C   UNL     1       5.034   3.860  -0.025  0.00  0.00    +0.259 A 
ATOM      4  O   UNL     1       5.777   2.739  -0.044  0.00  0.00    -0.332 OA
ATOM      5  N   UNL     1       4.862   1.653  -0.037  0.00  0.00    -0.056 NA
ENDROOT
BRANCH   3   6
ATOM      6  C   UNL     1       5.555   5.243  -0.019  0.00  0.00    +0.039 A 
ATOM      7  C   UNL     1       4.672   6.324   0.007  0.00  0.00    +0.014 A 
ATOM      8  C   UNL     1       5.163   7.612   0.012  0.00  0.00    +0.015 A 
ATOM      9  C   UNL     1       6.529   7.835  -0.009  0.00  0.00    +0.013 A 
ATOM     10  C   UNL     1       7.410   6.768  -0.035  0.00  0.00    +0.015 A 
ATOM     11  C   UNL     1       6.931   5.474  -0.034  0.00  0.00    +0.014 A 
ATOM     12  I   UNL     1       7.267   9.796  -0.003  0.00  0.00    -0.044 I 
ENDBRANCH   3   6
BRANCH   1  15
ATOM     13  C   UNL     1      -0.017   1.377   0.010  0.00  0.00    +0.002 A 
ATOM     14  C   UNL     1       1.167   2.088   0.002  0.00  0.00    +0.012 A 
ATOM     15  C   UNL     1       2.386   1.413  -0.014  0.00  0.00    +0.024 A 
ATOM     16  C   UNL     1       2.406   0.021  -0.021  0.00  0.00    +0.034 A 
ATOM     17  C   UNL     1       1.213  -0.686  -0.013  0.00  0.00    +0.025 A 
ATOM     18  C   UNL     1       0.002  -0.004   0.002  0.00  0.00    +0.023 A 
BRANCH  17  19
ATOM     19  N   UNL     1       1.228  -2.083  -0.021  0.00  0.00    -0.358 N 
ATOM     20  H   UNL     1       2.074  -2.559  -0.033  0.00  0.00    +0.142 HD
ATOM     21  H   UNL     1       0.394  -2.577  -0.016  0.00  0.00    +0.142 HD
ENDBRANCH  17  19
ENDBRANCH   1  15
TORSDOF 3
