REMARK  Name = ZINC32878760
REMARK  8 active torsions:
REMARK  status: ('A' for Active; 'I' for Inactive)
REMARK    1  A    between atoms: C_1  and  C_2
REMARK    2  A    between atoms: C_2  and  C_4
REMARK    3  A    between atoms: C_2  and  N_14
REMARK    4  A    between atoms: C_15  and  C_17
REMARK    5  A    between atoms: C_17  and  C_18
REMARK    6  A    between atoms: C_18  and  N_19
REMARK    7  A    between atoms: C_20  and  C_22
REMARK    8  A    between atoms: C_22  and  C_23
REMARK                            x       y       z     vdW  Elec       q    Type
REMARK                         _______ _______ _______ _____ _____    ______ ____
ROOT
ATOM      1  N   UNL     1      -1.372  -0.511   0.012  0.00  0.00    -0.312 N 
ATOM      2  C   UNL     1      -2.051  -0.643  -1.145  0.00  0.00    +0.215 C 
ATOM      3  O   UNL     1      -1.524  -0.341  -2.194  0.00  0.00    -0.276 OA
ATOM      4  H   UNL     1      -1.851  -0.785   0.965  0.00  0.00    +0.149 HD
ENDROOT
BRANCH   1   6
ATOM      5  C   UNL     1      -0.019   1.526   0.010  0.00  0.00    +0.028 C 
ATOM      6  C   UNL     1       0.002  -0.004   0.002  0.00  0.00    +0.076 C 
BRANCH   6   7
ATOM      7  C   UNL     1       0.742  -0.511   1.242  0.00  0.00    -0.010 C 
ATOM      8  C   UNL     1       0.763  -2.041   1.233  0.00  0.00    +0.012 C 
ATOM      9  C   UNL     1       1.503  -2.548   2.473  0.00  0.00    -0.010 C 
ATOM     10  C   UNL     1       2.938  -2.018   2.462  0.00  0.00    +0.007 C 
ATOM     11  C   UNL     1       2.917  -0.488   2.470  0.00  0.00    -0.010 C 
ATOM     12  C   UNL     1       2.178   0.019   1.231  0.00  0.00    +0.012 C 
ATOM     13  C   UNL     1       2.201   0.005   3.729  0.00  0.00    +0.007 C 
ATOM     14  C   UNL     1       0.766  -0.524   3.740  0.00  0.00    -0.010 C 
ATOM     15  C   UNL     1       0.787  -2.054   3.732  0.00  0.00    +0.007 C 
ATOM     16  C   UNL     1       0.026  -0.018   2.500  0.00  0.00    +0.012 C 
ENDBRANCH   6   7
ENDBRANCH   1   6
BRANCH   2  17
ATOM     17  C   UNL     1      -3.465  -1.164  -1.134  0.00  0.00    +0.114 C 
BRANCH  17  18
ATOM     18  C   UNL     1      -4.000  -1.215  -2.566  0.00  0.00    +0.113 C 
BRANCH  18  19
ATOM     19  N   UNL     1      -5.375  -1.722  -2.556  0.00  0.00    -0.315 N 
ATOM     20  C   UNL     1      -6.053  -1.854  -3.713  0.00  0.00    +0.217 C 
ATOM     21  O   UNL     1      -5.526  -1.552  -4.763  0.00  0.00    -0.275 OA
ATOM     22  H   UNL     1      -5.853  -1.996  -1.604  0.00  0.00    +0.149 HD
BRANCH  20  23
ATOM     23  C   UNL     1      -7.467  -2.376  -3.702  0.00  0.00    +0.130 C 
BRANCH  23  24
ATOM     24  C   UNL     1      -7.995  -2.426  -5.113  0.00  0.00    -0.039 A 
ATOM     25  C   UNL     1      -8.653  -1.332  -5.644  0.00  0.00    +0.004 A 
ATOM     26  C   UNL     1      -9.133  -1.377  -6.939  0.00  0.00    +0.000 A 
ATOM     27  C   UNL     1      -8.963  -2.518  -7.701  0.00  0.00    +0.000 A 
ATOM     28  C   UNL     1      -8.309  -3.613  -7.168  0.00  0.00    +0.000 A 
ATOM     29  C   UNL     1      -7.825  -3.567  -5.874  0.00  0.00    +0.004 A 
ENDBRANCH  23  24
ENDBRANCH  20  23
ENDBRANCH  18  19
ENDBRANCH  17  18
ENDBRANCH   2  17
TORSDOF 7
