REMARK  Name = ZINC13321395
REMARK  5 active torsions:
REMARK  status: ('A' for Active; 'I' for Inactive)
REMARK    1  A    between atoms: C_10  and  C_11
REMARK    2  A    between atoms: N_12  and  N_13
REMARK    3  A    between atoms: C_14  and  C_16
REMARK    4  A    between atoms: C_18  and  O_23
REMARK    5  A    between atoms: C_21  and  O_22
REMARK                            x       y       z     vdW  Elec       q    Type
REMARK                         _______ _______ _______ _____ _____    ______ ____
ROOT
ATOM      1  N   UNL     1      -0.034  -0.635  -3.658  0.00  0.00    -0.203 N 
ATOM      2  C   UNL     1      -0.019   0.038  -2.491  0.00  0.00    +0.267 C 
ATOM      3  O   UNL     1      -0.029   1.254  -2.490  0.00  0.00    -0.268 OA
ATOM      4  H   UNL     1      -0.026  -1.605  -3.659  0.00  0.00    +0.178 HD
ENDROOT
BRANCH   2   5
ATOM      5  C   UNL     1       0.009  -0.700  -1.214  0.00  0.00    +0.083 A 
ATOM      6  C   UNL     1       0.026  -2.097  -1.211  0.00  0.00    +0.062 A 
ATOM      7  C   UNL     1       0.047  -2.783  -0.011  0.00  0.00    +0.118 A 
ATOM      8  C   UNL     1       0.057  -2.086   1.191  0.00  0.00    +0.049 A 
ATOM      9  C   UNL     1       0.046  -0.706   1.198  0.00  0.00    +0.050 A 
ATOM     10  C   UNL     1       0.025  -0.004   0.002  0.00  0.00    +0.129 A 
BRANCH  10  11
ATOM     11  O   UNL     1       0.015   1.353   0.009  0.00  0.00    -0.506 OA
ATOM     12  H   UNL     1       0.895   1.754  -0.000  0.00  0.00    +0.292 HD
ENDBRANCH  10  11
BRANCH   7  13
ATOM     13  O   UNL     1       0.057  -4.142  -0.007  0.00  0.00    -0.507 OA
ATOM     14  H   UNL     1      -0.823  -4.542   0.006  0.00  0.00    +0.292 HD
ENDBRANCH   7  13
ENDBRANCH   2   5
BRANCH   1  16
ATOM     15  C   UNL     1      -0.076  -0.583  -5.997  0.00  0.00    +0.139 C 
ATOM     16  N   UNL     1      -0.061   0.067  -4.871  0.00  0.00    -0.187 NA
BRANCH  15  26
ATOM     17  C   UNL     1      -0.460   4.369  -7.389  0.00  0.00    +0.001 A 
ATOM     18  C   UNL     1      -0.437   3.708  -6.164  0.00  0.00    +0.001 A 
ATOM     19  C   UNL     1      -0.324   2.350  -6.103  0.00  0.00    +0.009 A 
ATOM     20  C   UNL     1      -0.228   1.610  -7.287  0.00  0.00    -0.009 A 
ATOM     21  C   UNL     1      -0.250   2.280  -8.535  0.00  0.00    -0.017 A 
ATOM     22  C   UNL     1      -0.369   3.680  -8.560  0.00  0.00    +0.008 A 
ATOM     23  C   UNL     1      -0.154   1.533  -9.721  0.00  0.00    +0.008 A 
ATOM     24  C   UNL     1      -0.040   0.177  -9.681  0.00  0.00    +0.001 A 
ATOM     25  C   UNL     1      -0.008  -0.520  -8.481  0.00  0.00    +0.010 A 
ATOM     26  C   UNL     1      -0.104   0.154  -7.270  0.00  0.00    +0.002 A 
ENDBRANCH  15  26
ENDBRANCH   1  16
TORSDOF 5
