REMARK  Name = ZINC19898181
REMARK  13 active torsions:
REMARK  status: ('A' for Active; 'I' for Inactive)
REMARK    1  A    between atoms: C_1  and  C_2
REMARK    2  A    between atoms: C_2  and  C_3
REMARK    3  A    between atoms: C_3  and  C_4
REMARK    4  A    between atoms: C_4  and  O_5
REMARK    5  A    between atoms: O_5  and  C_6
REMARK    6  A    between atoms: C_6  and  C_8
REMARK    7  A    between atoms: C_9  and  C_41
REMARK    8  A    between atoms: C_13  and  C_15
REMARK    9  A    between atoms: C_28  and  C_31
REMARK   10  A    between atoms: C_34  and  O_39
REMARK   11  A    between atoms: C_35  and  O_37
REMARK   12  A    between atoms: O_37  and  C_38
REMARK   13  A    between atoms: O_39  and  C_40
REMARK                            x       y       z     vdW  Elec       q    Type
REMARK                         _______ _______ _______ _____ _____    ______ ____
ROOT
ATOM      1  C   UNL     1       1.970   4.124  -1.177  0.00  0.00    +0.065 C 
ATOM      2  C   UNL     1       3.224   4.590  -1.049  0.00  0.00    +0.016 C 
ATOM      3  N   UNL     1       3.827   4.626   0.177  0.00  0.00    -0.321 N 
ATOM      4  C   UNL     1       3.081   4.577   1.324  0.00  0.00    +0.016 C 
ATOM      5  C   UNL     1       1.813   4.114   1.297  0.00  0.00    +0.024 C 
ATOM      6  C   UNL     1       1.199   3.626   0.010  0.00  0.00    +0.093 C 
ATOM      7  C   UNL     1       1.030   4.074   2.464  0.00  0.00    +0.162 C 
ATOM      8  O   UNL     1      -0.104   3.642   2.407  0.00  0.00    -0.292 OA
ATOM      9  C   UNL     1       1.571   4.557   3.782  0.00  0.00    +0.088 C 
ATOM     10  C   UNL     1       2.625   5.639   3.523  0.00  0.00    +0.032 C 
ATOM     11  C   UNL     1       3.706   5.055   2.611  0.00  0.00    +0.059 C 
ATOM     12  C   UNL     1       3.971   5.075  -2.264  0.00  0.00    +0.061 C 
ATOM     13  H   UNL     1       4.923   4.695   0.250  0.00  0.00    +0.152 HD
ENDROOT
BRANCH   6  14
ATOM     14  C   UNL     1       1.198   2.119   0.002  0.00  0.00    -0.027 A 
ATOM     15  C   UNL     1       2.374   1.434   0.033  0.00  0.00    +0.005 A 
ATOM     16  C   UNL     1       2.393   0.040   0.025  0.00  0.00    +0.001 A 
ATOM     17  C   UNL     1       1.236  -0.676  -0.011  0.00  0.00    +0.008 A 
ATOM     18  C   UNL     1       0.003  -0.004  -0.043  0.00  0.00    -0.018 A 
ATOM     19  C   UNL     1      -0.017   1.413  -0.036  0.00  0.00    -0.014 A 
ATOM     20  C   UNL     1      -1.251   2.086  -0.061  0.00  0.00    +0.009 A 
ATOM     21  C   UNL     1      -2.407   1.370  -0.102  0.00  0.00    +0.001 A 
ATOM     22  C   UNL     1      -2.388  -0.024  -0.110  0.00  0.00    +0.001 A 
ATOM     23  C   UNL     1      -1.213  -0.709  -0.080  0.00  0.00    +0.008 A 
ENDBRANCH   6  14
BRANCH  10  24
ATOM     24  C   UNL     1       3.242   6.074   4.827  0.00  0.00    -0.040 A 
ATOM     25  C   UNL     1       3.887   5.149   5.627  0.00  0.00    +0.008 A 
ATOM     26  C   UNL     1       4.455   5.543   6.824  0.00  0.00    +0.049 A 
ATOM     27  C   UNL     1       4.379   6.868   7.224  0.00  0.00    +0.161 A 
ATOM     28  C   UNL     1       3.729   7.799   6.419  0.00  0.00    +0.162 A 
ATOM     29  C   UNL     1       3.167   7.398   5.218  0.00  0.00    +0.053 A 
BRANCH  28  30
ATOM     30  O   UNL     1       3.652   9.100   6.808  0.00  0.00    -0.491 OA
ATOM     31  C   UNL     1       2.971   9.999   5.931  0.00  0.00    +0.277 C 
ENDBRANCH  28  30
BRANCH  27  32
ATOM     32  O   UNL     1       4.936   7.257   8.402  0.00  0.00    -0.491 OA
ATOM     33  C   UNL     1       5.586   6.247   9.177  0.00  0.00    +0.277 C 
ENDBRANCH  27  32
ENDBRANCH  10  24
BRANCH   1  34
ATOM     34  C   UNL     1       1.365   4.103  -2.456  0.00  0.00    +0.338 C 
ATOM     35  O   UNL     1       1.980   4.504  -3.426  0.00  0.00    -0.245 OA
BRANCH  34  36
ATOM     36  O   UNL     1       0.107   3.638  -2.600  0.00  0.00    -0.461 OA
BRANCH  36  37
ATOM     37  C   UNL     1      -0.441   3.647  -3.920  0.00  0.00    +0.232 C 
BRANCH  37  38
ATOM     38  C   UNL     1      -1.865   3.088  -3.884  0.00  0.00    +0.041 C 
BRANCH  38  40
ATOM     39  C   UNL     1      -3.876   2.538  -5.262  0.00  0.00    +0.004 C 
ATOM     40  C   UNL     1      -2.452   3.096  -5.297  0.00  0.00    -0.000 C 
ENDBRANCH  38  40
ENDBRANCH  37  38
ENDBRANCH  36  37
ENDBRANCH  34  36
ENDBRANCH   1  34
TORSDOF 9
