REMARK  Name = ZINC00700941
REMARK  8 active torsions:
REMARK  status: ('A' for Active; 'I' for Inactive)
REMARK    1  A    between atoms: C_5  and  N_7
REMARK    2  A    between atoms: C_8  and  C_10
REMARK    3  A    between atoms: C_13  and  C_15
REMARK    4  A    between atoms: C_15  and  N_16
REMARK    5  A    between atoms: N_16  and  C_17
REMARK    6  A    between atoms: N_16  and  C_25
REMARK    7  A    between atoms: C_17  and  C_18
REMARK    8  A    between atoms: C_25  and  C_26
REMARK                            x       y       z     vdW  Elec       q    Type
REMARK                         _______ _______ _______ _____ _____    ______ ____
ROOT
ATOM      1  N   UNL     1       2.476  -7.973   2.056  0.00  0.00    +0.389 N 
ATOM      2  H   UNL     1       1.717  -8.316   2.627  0.00  0.00    -0.080 HD
ENDROOT
BRANCH   1   3
ATOM      3  C   UNL     1       2.003  -7.776   0.680  0.00  0.00    -0.014 C 
BRANCH   3   7
ATOM      4  C   UNL     1      -0.076 -10.720  -0.230  0.00  0.00    +0.133 A 
ATOM      5  C   UNL     1       0.925 -11.325  -0.941  0.00  0.00    +0.079 A 
ATOM      6  S   UNL     1       2.191 -10.231  -0.785  0.00  0.00    -0.082 S 
ATOM      7  C   UNL     1       1.430  -9.067   0.155  0.00  0.00    +0.063 A 
ATOM      8  N   UNL     1       0.225  -9.540   0.323  0.00  0.00    -0.241 NA
BRANCH   4  10
ATOM      9  N   UNL     1      -2.395 -10.655   0.536  0.00  0.00    -0.278 N 
ATOM     10  C   UNL     1      -1.409 -11.329  -0.087  0.00  0.00    +0.267 C 
ATOM     11  O   UNL     1      -1.619 -12.442  -0.531  0.00  0.00    -0.268 OA
ATOM     12  H   UNL     1      -2.234  -9.759   0.871  0.00  0.00    +0.155 HD
BRANCH   9  17
ATOM     13  C   UNL     1      -5.331 -12.796  -0.031  0.00  0.00    +0.002 A 
ATOM     14  C   UNL     1      -6.140 -12.419   1.025  0.00  0.00    +0.003 A 
ATOM     15  C   UNL     1      -5.710 -11.456   1.920  0.00  0.00    +0.040 A 
ATOM     16  C   UNL     1      -4.468 -10.869   1.762  0.00  0.00    +0.144 A 
ATOM     17  C   UNL     1      -3.653 -11.247   0.701  0.00  0.00    +0.069 A 
ATOM     18  C   UNL     1      -4.089 -12.214  -0.196  0.00  0.00    +0.026 A 
ATOM     19  F   UNL     1      -4.048  -9.928   2.636  0.00  0.00    -0.204 F 
ENDBRANCH   9  17
ENDBRANCH   4  10
ENDBRANCH   3   7
ENDBRANCH   1   3
BRANCH   1  20
ATOM     20  C   UNL     1       2.954  -6.693   2.597  0.00  0.00    -0.042 C 
BRANCH  20  21
ATOM     21  C   UNL     1       1.800  -5.731   2.708  0.00  0.00    -0.064 A 
ATOM     22  C   UNL     1       1.560  -4.820   1.696  0.00  0.00    +0.003 A 
ATOM     23  C   UNL     1       0.501  -3.938   1.797  0.00  0.00    +0.020 A 
ATOM     24  C   UNL     1      -0.319  -3.966   2.911  0.00  0.00    +0.041 A 
ATOM     25  C   UNL     1      -0.079  -4.878   3.923  0.00  0.00    +0.020 A 
ATOM     26  C   UNL     1       0.977  -5.764   3.818  0.00  0.00    +0.003 A 
ATOM     27 CL   UNL     1      -1.649  -2.857   3.038  0.00  0.00    -0.084 Cl
ENDBRANCH  20  21
ENDBRANCH   1  20
BRANCH   1  28
ATOM     28  C   UNL     1       3.574  -8.948   2.062  0.00  0.00    -0.042 C 
BRANCH  28  29
ATOM     29  C   UNL     1       3.977  -9.242   3.484  0.00  0.00    -0.060 A 
ATOM     30  C   UNL     1       4.953  -8.478   4.097  0.00  0.00    +0.005 A 
ATOM     31  C   UNL     1       5.325  -8.744   5.401  0.00  0.00    +0.050 A 
ATOM     32  C   UNL     1       4.721  -9.778   6.098  0.00  0.00    +0.166 A 
ATOM     33  C   UNL     1       3.738 -10.548   5.481  0.00  0.00    +0.166 A 
ATOM     34  C   UNL     1       3.366 -10.272   4.175  0.00  0.00    +0.051 A 
ATOM     35  O   UNL     1       3.304 -11.492   6.366  0.00  0.00    -0.453 OA
ATOM     36  C   UNL     1       4.315 -11.555   7.389  0.00  0.00    +0.466 C 
ATOM     37  O   UNL     1       4.902 -10.240   7.370  0.00  0.00    -0.453 OA
ENDBRANCH  28  29
ENDBRANCH   1  28
TORSDOF 8
