REMARK  Name = ZINC41159568
REMARK  7 active torsions:
REMARK  status: ('A' for Active; 'I' for Inactive)
REMARK    1  A    between atoms: C_1  and  C_2
REMARK    2  A    between atoms: C_7  and  C_15
REMARK    3  A    between atoms: C_13  and  C_14
REMARK    4  A    between atoms: C_15  and  N_16
REMARK    5  A    between atoms: N_16  and  S_17
REMARK    6  A    between atoms: S_17  and  C_20
REMARK    7  A    between atoms: C_20  and  C_21
REMARK                            x       y       z     vdW  Elec       q    Type
REMARK                         _______ _______ _______ _____ _____    ______ ____
ROOT
ATOM      1  C   UNL     1      -0.018   1.503   0.010  0.00  0.00    +0.044 C 
ATOM      2  C   UNL     1       0.002  -0.004   0.002  0.00  0.00    -0.046 A 
ATOM      3  C   UNL     1       0.006  -0.684  -1.208  0.00  0.00    +0.004 A 
ATOM      4  C   UNL     1       0.024  -2.050  -1.238  0.00  0.00    +0.010 A 
ATOM      5  C   UNL     1       0.040  -2.769  -0.039  0.00  0.00    -0.001 A 
ATOM      6  C   UNL     1       0.060  -4.233  -0.034  0.00  0.00    +0.020 A 
ATOM      7  C   UNL     1       0.075  -4.877   1.159  0.00  0.00    +0.033 A 
ATOM      8  C   UNL     1       0.070  -4.142   2.364  0.00  0.00    +0.254 A 
ATOM      9  O   UNL     1       0.084  -4.740   3.426  0.00  0.00    -0.268 OA
ATOM     10  N   UNL     1       0.052  -2.797   2.370  0.00  0.00    -0.322 N 
ATOM     11  H   UNL     1       0.050  -2.323   3.216  0.00  0.00    +0.169 HD
ATOM     12  C   UNL     1       0.036  -2.083   1.190  0.00  0.00    +0.052 A 
ATOM     13  C   UNL     1       0.023  -0.692   1.196  0.00  0.00    -0.024 A 
ATOM     14  C   UNL     1       0.025   0.059   2.502  0.00  0.00    +0.046 C 
ENDROOT
BRANCH   7  15
ATOM     15  C   UNL     1       0.096  -6.383   1.200  0.00  0.00    +0.146 C 
BRANCH  15  16
ATOM     16  N   UNL     1       1.479  -6.850   1.326  0.00  0.00    -0.190 NA
ATOM     17  H   UNL     1       2.213  -6.240   1.153  0.00  0.00    +0.148 HD
BRANCH  16  18
ATOM     18  S   UNL     1       1.788  -8.416   1.764  0.00  0.00    +0.034 S 
ATOM     19  O   UNL     1       3.205  -8.507   1.811  0.00  0.00    -0.158 OA
ATOM     20  O   UNL     1       1.009  -8.626   2.935  0.00  0.00    -0.158 OA
BRANCH  18  21
ATOM     21  C   UNL     1       1.142  -9.419   0.397  0.00  0.00    +0.220 C 
BRANCH  21  22
ATOM     22  C   UNL     1       1.372 -10.879   0.692  0.00  0.00    -0.025 A 
ATOM     23  C   UNL     1       2.545 -11.489   0.288  0.00  0.00    +0.007 A 
ATOM     24  C   UNL     1       2.756 -12.828   0.558  0.00  0.00    +0.020 A 
ATOM     25  C   UNL     1       1.794 -13.557   1.234  0.00  0.00    +0.041 A 
ATOM     26  C   UNL     1       0.621 -12.946   1.639  0.00  0.00    +0.020 A 
ATOM     27  C   UNL     1       0.413 -11.605   1.373  0.00  0.00    +0.007 A 
ATOM     28 CL   UNL     1       2.059 -15.239   1.573  0.00  0.00    -0.084 Cl
ENDBRANCH  21  22
ENDBRANCH  18  21
ENDBRANCH  16  18
ENDBRANCH  15  16
ENDBRANCH   7  15
TORSDOF 5
