REMARK  Name = ZINC12363833
REMARK  6 active torsions:
REMARK  status: ('A' for Active; 'I' for Inactive)
REMARK    1  A    between atoms: C_1  and  C_2
REMARK    2  A    between atoms: C_2  and  C_4
REMARK    3  A    between atoms: C_4  and  N_5
REMARK    4  A    between atoms: C_19  and  C_22
REMARK    5  A    between atoms: C_22  and  C_23
REMARK    6  A    between atoms: N_31  and  C_34
REMARK                            x       y       z     vdW  Elec       q    Type
REMARK                         _______ _______ _______ _____ _____    ______ ____
ROOT
ATOM      1  N   UNL     1      -1.329  -1.131  -2.424  0.00  0.00    -0.265 N 
ATOM      2  C   UNL     1      -2.141  -2.252  -2.241  0.00  0.00    +0.042 A 
ATOM      3  C   UNL     1      -1.854  -3.507  -1.710  0.00  0.00    +0.024 A 
ATOM      4  C   UNL     1      -2.838  -4.470  -1.632  0.00  0.00    +0.002 A 
ATOM      5  C   UNL     1      -4.118  -4.198  -2.080  0.00  0.00    +0.000 A 
ATOM      6  C   UNL     1      -4.412  -2.954  -2.610  0.00  0.00    +0.008 A 
ATOM      7  C   UNL     1      -3.433  -1.990  -2.690  0.00  0.00    +0.004 A 
ATOM      8  C   UNL     1      -3.412  -0.576  -3.196  0.00  0.00    +0.136 C 
ATOM      9  C   UNL     1      -2.002  -0.101  -2.973  0.00  0.00    +0.246 C 
ATOM     10  O   UNL     1      -1.556   0.996  -3.239  0.00  0.00    -0.273 OA
ATOM     11  C   UNL     1      -4.419   0.306  -2.449  0.00  0.00    +0.123 C 
ATOM     12  C   UNL     1      -4.945   1.296  -3.525  0.00  0.00    +0.108 C 
ATOM     13  C   UNL     1      -4.180   0.926  -4.813  0.00  0.00    +0.072 C 
ATOM     14  N   UNL     1      -3.789  -0.503  -4.620  0.00  0.00    -0.295 NA
ATOM     15  C   UNL     1      -6.402   0.918  -3.666  0.00  0.00    +0.232 C 
ATOM     16  O   UNL     1      -7.193   1.445  -4.418  0.00  0.00    -0.274 OA
ATOM     17  N   UNL     1      -6.682  -0.089  -2.830  0.00  0.00    -0.210 N 
ATOM     18  C   UNL     1      -5.637  -0.513  -2.083  0.00  0.00    +0.233 C 
ATOM     19  O   UNL     1      -5.662  -1.401  -1.259  0.00  0.00    -0.274 OA
ATOM     20  H   UNL     1      -3.010  -0.743  -5.214  0.00  0.00    +0.124 HD
ENDROOT
BRANCH  17  21
ATOM     21  C   UNL     1      -7.960  -0.657  -2.731  0.00  0.00    +0.044 A 
ATOM     22  C   UNL     1      -8.485  -1.379  -3.794  0.00  0.00    +0.024 A 
ATOM     23  C   UNL     1      -9.744  -1.938  -3.693  0.00  0.00    +0.002 A 
ATOM     24  C   UNL     1     -10.481  -1.779  -2.534  0.00  0.00    +0.000 A 
ATOM     25  C   UNL     1      -9.961  -1.061  -1.474  0.00  0.00    +0.002 A 
ATOM     26  C   UNL     1      -8.700  -0.504  -1.567  0.00  0.00    +0.024 A 
ENDBRANCH  17  21
BRANCH   1  27
ATOM     27  C   UNL     1       0.087  -1.078  -2.054  0.00  0.00    +0.143 C 
BRANCH  27  29
ATOM     28  C   UNL     1       0.234   0.877  -0.331  0.00  0.00    +0.040 C 
ATOM     29  C   UNL     1       0.218  -0.600  -0.631  0.00  0.00    -0.062 C 
ATOM     30  C   UNL     1       0.318  -1.468   0.345  0.00  0.00    +0.009 C 
ENDBRANCH  27  29
ENDBRANCH   1  27
BRANCH  13  31
ATOM     31  C   UNL     1      -5.096   1.053  -6.032  0.00  0.00    +0.054 C 
BRANCH  31  32
ATOM     32  C   UNL     1      -4.300   0.807  -7.287  0.00  0.00    -0.046 A 
ATOM     33  C   UNL     1      -3.676   1.861  -7.928  0.00  0.00    +0.004 A 
ATOM     34  C   UNL     1      -2.945   1.635  -9.079  0.00  0.00    +0.000 A 
ATOM     35  C   UNL     1      -2.838   0.354  -9.589  0.00  0.00    +0.000 A 
ATOM     36  C   UNL     1      -3.461  -0.700  -8.948  0.00  0.00    +0.000 A 
ATOM     37  C   UNL     1      -4.188  -0.474  -7.794  0.00  0.00    +0.004 A 
ENDBRANCH  31  32
ENDBRANCH  13  31
TORSDOF 5
