REMARK  Name = ZINC06752998
REMARK  8 active torsions:
REMARK  status: ('A' for Active; 'I' for Inactive)
REMARK    1  A    between atoms: C_1  and  C_2
REMARK    2  A    between atoms: C_2  and  C_3
REMARK    3  A    between atoms: C_3  and  C_4
REMARK    4  A    between atoms: C_4  and  N_5
REMARK    5  A    between atoms: C_6  and  C_23
REMARK    6  A    between atoms: C_9  and  C_16
REMARK    7  A    between atoms: C_21  and  O_22
REMARK    8  A    between atoms: C_27  and  O_29
REMARK                            x       y       z     vdW  Elec       q    Type
REMARK                         _______ _______ _______ _____ _____    ______ ____
ROOT
ATOM      1  N   UNL     1       1.471  -2.526   2.420  0.00  0.00    -0.285 N 
ATOM      2  C   UNL     1       2.913  -2.788   2.514  0.00  0.00    +0.141 C 
ATOM      3  C   UNL     1       3.159  -3.266   3.919  0.00  0.00    +0.035 A 
ATOM      4  C   UNL     1       4.085  -3.712   4.868  0.00  0.00    +0.102 A 
ATOM      5  N   UNL     1       3.423  -3.953   5.982  0.00  0.00    -0.173 NA
ATOM      6  N   UNL     1       2.171  -3.703   5.831  0.00  0.00    -0.272 N 
ATOM      7  H   UNL     1       1.496  -3.808   6.519  0.00  0.00    +0.189 HD
ATOM      8  C   UNL     1       1.935  -3.268   4.558  0.00  0.00    +0.126 A 
ATOM      9  C   UNL     1       0.914  -2.802   3.613  0.00  0.00    +0.265 C 
ATOM     10  O   UNL     1      -0.269  -2.686   3.870  0.00  0.00    -0.268 OA
ENDROOT
BRANCH   4  11
ATOM     11  C   UNL     1       5.545  -3.883   4.658  0.00  0.00    +0.044 A 
ATOM     12  C   UNL     1       6.114  -3.584   3.423  0.00  0.00    +0.014 A 
ATOM     13  C   UNL     1       7.471  -3.745   3.233  0.00  0.00    +0.001 A 
ATOM     14  C   UNL     1       8.270  -4.202   4.266  0.00  0.00    +0.004 A 
ATOM     15  C   UNL     1       7.715  -4.502   5.496  0.00  0.00    +0.046 A 
ATOM     16  C   UNL     1       6.355  -4.340   5.702  0.00  0.00    +0.126 A 
BRANCH  16  17
ATOM     17  O   UNL     1       5.809  -4.629   6.912  0.00  0.00    -0.506 OA
ATOM     18  H   UNL     1       5.516  -5.546   7.002  0.00  0.00    +0.292 HD
ENDBRANCH  16  17
ENDBRANCH   4  11
BRANCH   2  19
ATOM     19  C   UNL     1       3.689  -1.523   2.252  0.00  0.00    -0.019 A 
ATOM     20  C   UNL     1       3.242  -0.320   2.767  0.00  0.00    +0.006 A 
ATOM     21  C   UNL     1       3.951   0.843   2.528  0.00  0.00    +0.004 A 
ATOM     22  C   UNL     1       5.108   0.805   1.773  0.00  0.00    +0.045 A 
ATOM     23  C   UNL     1       5.558  -0.401   1.256  0.00  0.00    +0.117 A 
ATOM     24  C   UNL     1       4.848  -1.567   1.502  0.00  0.00    +0.051 A 
BRANCH  23  25
ATOM     25  O   UNL     1       6.696  -0.440   0.513  0.00  0.00    -0.507 OA
ATOM     26  H   UNL     1       7.499  -0.590   1.032  0.00  0.00    +0.292 HD
ENDBRANCH  23  25
ENDBRANCH   2  19
BRANCH   1  27
ATOM     27  C   UNL     1       0.763  -2.041   1.233  0.00  0.00    +0.109 C 
BRANCH  27  28
ATOM     28  C   UNL     1       0.742  -0.511   1.242  0.00  0.00    +0.019 C 
BRANCH  28  30
ATOM     29  C   UNL     1      -0.019   1.526   0.010  0.00  0.00    +0.004 C 
ATOM     30  C   UNL     1       0.002  -0.004   0.002  0.00  0.00    -0.002 C 
ENDBRANCH  28  30
ENDBRANCH  27  28
ENDBRANCH   1  27
TORSDOF 7
