REMARK  Name = ZINC11910067
REMARK  7 active torsions:
REMARK  status: ('A' for Active; 'I' for Inactive)
REMARK    1  A    between atoms: C_3  and  N_29
REMARK    2  A    between atoms: C_6  and  C_7
REMARK    3  A    between atoms: C_7  and  C_8
REMARK    4  A    between atoms: N_10  and  C_11
REMARK    5  A    between atoms: C_11  and  C_12
REMARK    6  A    between atoms: C_20  and  N_22
REMARK    7  A    between atoms: N_22  and  C_23
REMARK                            x       y       z     vdW  Elec       q    Type
REMARK                         _______ _______ _______ _____ _____    ______ ____
ROOT
ATOM      1  C   UNL     1      -1.332  -0.706   0.011  0.00  0.00    +0.180 C 
ENDROOT
BRANCH   1   2
ATOM      2  C   UNL     1      -0.018   0.031   0.002  0.00  0.00    +0.149 A 
ATOM      3  N   UNL     1      -0.035   1.343  -0.006  0.00  0.00    -0.230 NA
ATOM      4  C   UNL     1       1.111   2.038  -0.014  0.00  0.00    +0.076 A 
ATOM      5  C   UNL     1       1.129   3.440  -0.023  0.00  0.00    +0.030 A 
ATOM      6  C   UNL     1       2.323   4.098  -0.031  0.00  0.00    +0.022 A 
ATOM      7  C   UNL     1       3.528   3.399  -0.030  0.00  0.00    +0.042 A 
ATOM      8  C   UNL     1       3.546   2.034  -0.022  0.00  0.00    +0.033 A 
ATOM      9  C   UNL     1       2.337   1.329  -0.013  0.00  0.00    +0.042 A 
ATOM     10  C   UNL     1       2.291  -0.086  -0.005  0.00  0.00    +0.130 A 
ATOM     11  N   UNL     1       1.102  -0.674   0.003  0.00  0.00    -0.215 NA
ATOM     12 CL   UNL     1       5.026   4.275  -0.042  0.00  0.00    -0.084 Cl
BRANCH  10  13
ATOM     13  N   UNL     1       3.450  -0.832  -0.005  0.00  0.00    -0.326 N 
ATOM     14  H   UNL     1       4.313  -0.389  -0.010  0.00  0.00    +0.148 HD
BRANCH  13  15
ATOM     15  C   UNL     1       3.380  -2.296   0.004  0.00  0.00    +0.072 C 
ATOM     16  C   UNL     1       3.285  -2.812   1.454  0.00  0.00    +0.022 C 
ATOM     17  C   UNL     1       4.132  -4.110   1.450  0.00  0.00    +0.002 C 
ATOM     18  C   UNL     1       5.313  -3.745   0.516  0.00  0.00    +0.002 C 
ATOM     19  C   UNL     1       4.668  -2.889  -0.593  0.00  0.00    +0.022 C 
ENDBRANCH  13  15
ENDBRANCH  10  13
ENDBRANCH   1   2
BRANCH   1  22
ATOM     20  C   UNL     1      -2.918  -1.603  -1.606  0.00  0.00    +0.218 C 
ATOM     21  O   UNL     1      -3.603  -1.983  -0.680  0.00  0.00    -0.275 OA
ATOM     22  N   UNL     1      -1.762  -0.954  -1.368  0.00  0.00    -0.308 N 
ATOM     23  H   UNL     1      -1.215  -0.650  -2.108  0.00  0.00    +0.149 HD
BRANCH  20  24
ATOM     24  C   UNL     1      -3.361  -1.858  -3.024  0.00  0.00    +0.130 C 
BRANCH  24  30
ATOM     25  C   UNL     1      -4.691  -3.978  -3.013  0.00  0.00    +0.006 A 
ATOM     26  C   UNL     1      -5.893  -4.657  -3.000  0.00  0.00    +0.024 A 
ATOM     27  C   UNL     1      -7.088  -3.949  -3.001  0.00  0.00    +0.038 A 
ATOM     28  C   UNL     1      -7.069  -2.561  -3.009  0.00  0.00    +0.024 A 
ATOM     29  C   UNL     1      -5.863  -1.888  -3.017  0.00  0.00    +0.006 A 
ATOM     30  C   UNL     1      -4.675  -2.595  -3.016  0.00  0.00    -0.039 A 
BRANCH  27  31
ATOM     31  N   UNL     1      -8.309  -4.634  -2.992  0.00  0.00    -0.254 N 
ATOM     32  C   UNL     1      -9.635  -4.010  -2.871  0.00  0.00    +0.134 C 
ATOM     33  C   UNL     1     -10.610  -5.203  -2.917  0.00  0.00    +0.125 C 
ATOM     34  N   UNL     1      -9.729  -6.372  -3.059  0.00  0.00    -0.297 N 
ATOM     35  C   UNL     1      -8.455  -5.961  -3.099  0.00  0.00    +0.307 C 
ATOM     36  O   UNL     1      -7.516  -6.724  -3.217  0.00  0.00    -0.252 OA
ATOM     37  H   UNL     1     -10.024  -7.294  -3.119  0.00  0.00    +0.150 HD
ENDBRANCH  27  31
ENDBRANCH  24  30
ENDBRANCH  20  24
ENDBRANCH   1  22
TORSDOF 7
