REMARK  Name = ZINC35228032
REMARK  13 active torsions:
REMARK  status: ('A' for Active; 'I' for Inactive)
REMARK    1  A    between atoms: C_1  and  C_2
REMARK    2  A    between atoms: N_5  and  C_8
REMARK    3  A    between atoms: C_11  and  N_21
REMARK    4  A    between atoms: C_13  and  C_14
REMARK    5  A    between atoms: N_16  and  C_17
REMARK    6  A    between atoms: C_17  and  C_18
REMARK    7  A    between atoms: C_18  and  C_19
REMARK    8  A    between atoms: C_18  and  C_20
REMARK    9  A    between atoms: N_21  and  S_22
REMARK   10  A    between atoms: S_22  and  C_25
REMARK   11  A    between atoms: C_25  and  C_26
REMARK   12  A    between atoms: C_31  and  C_32
REMARK   13  A    between atoms: C_31  and  C_33
REMARK                            x       y       z     vdW  Elec       q    Type
REMARK                         _______ _______ _______ _____ _____    ______ ____
ROOT
ATOM      1  C   UNL     1      -1.068  -3.491   1.982  0.00  0.00    +0.042 A 
ATOM      2  C   UNL     1      -1.002  -4.847   1.688  0.00  0.00    +0.026 A 
ATOM      3  C   UNL     1      -1.508  -5.774   2.576  0.00  0.00    +0.026 A 
ATOM      4  C   UNL     1      -2.088  -5.359   3.771  0.00  0.00    +0.049 A 
ATOM      5  C   UNL     1      -2.162  -4.011   4.078  0.00  0.00    +0.039 A 
ATOM      6  C   UNL     1      -1.646  -3.066   3.187  0.00  0.00    +0.059 A 
ENDROOT
BRANCH   1  11
ATOM      7  C   UNL     1       1.515  -1.764  -2.546  0.00  0.00    +0.007 C 
ATOM      8  C   UNL     1       0.760  -1.596  -1.225  0.00  0.00    -0.011 C 
ATOM      9  C   UNL     1       1.556  -2.254  -0.096  0.00  0.00    +0.022 C 
ATOM     10  C   UNL     1       0.815  -2.053   1.230  0.00  0.00    +0.105 C 
ATOM     11  N   UNL     1      -0.558  -2.557   1.085  0.00  0.00    -0.329 N 
ATOM     12  C   UNL     1      -1.381  -2.057  -0.024  0.00  0.00    +0.105 C 
ATOM     13  C   UNL     1      -0.615  -2.258  -1.336  0.00  0.00    +0.022 C 
ENDBRANCH   1  11
BRANCH   6  14
ATOM     14  C   UNL     1      -1.714  -1.629   3.510  0.00  0.00    +0.246 C 
ATOM     15  O   UNL     1      -1.362  -0.804   2.689  0.00  0.00    -0.270 OA
ATOM     16  N   UNL     1      -2.167  -1.230   4.715  0.00  0.00    -0.311 N 
ATOM     17  H   UNL     1      -2.448  -1.888   5.370  0.00  0.00    +0.149 HD
BRANCH  16  18
ATOM     18  C   UNL     1      -2.235   0.198   5.036  0.00  0.00    +0.107 C 
BRANCH  18  19
ATOM     19  C   UNL     1      -2.780   0.376   6.455  0.00  0.00    -0.000 C 
ATOM     20  C   UNL     1      -1.790  -0.218   7.459  0.00  0.00    +0.009 C 
ATOM     21  C   UNL     1      -2.968   1.867   6.745  0.00  0.00    +0.009 C 
ENDBRANCH  18  19
ENDBRANCH  16  18
ENDBRANCH   6  14
BRANCH   4  22
ATOM     22  N   UNL     1      -2.599  -6.307   4.665  0.00  0.00    -0.221 N 
ATOM     23  H   UNL     1      -3.466  -6.167   5.077  0.00  0.00    +0.173 HD
BRANCH  22  24
ATOM     24  S   UNL     1      -1.724  -7.667   5.019  0.00  0.00    +0.044 S 
ATOM     25  O   UNL     1      -2.541  -8.400   5.922  0.00  0.00    -0.155 OA
ATOM     26  O   UNL     1      -1.372  -8.212   3.755  0.00  0.00    -0.155 OA
BRANCH  24  27
ATOM     27  C   UNL     1      -0.242  -7.059   5.872  0.00  0.00    +0.203 C 
BRANCH  27  28
ATOM     28  C   UNL     1       0.650  -8.243   6.250  0.00  0.00    +0.055 C 
ATOM     29  C   UNL     1       1.201  -9.087   5.061  0.00  0.00    +0.017 C 
ATOM     30  C   UNL     1       2.422  -9.834   5.646  0.00  0.00    +0.005 C 
ATOM     31  C   UNL     1       2.483  -9.374   7.135  0.00  0.00    +0.003 C 
ATOM     32  C   UNL     1       1.983  -7.891   7.000  0.00  0.00    -0.018 C 
ATOM     33  C   UNL     1       2.922  -7.044   6.139  0.00  0.00    +0.012 C 
ATOM     34  C   UNL     1       1.724  -7.246   8.363  0.00  0.00    +0.012 C 
ATOM     35  C   UNL     1       1.242 -10.047   7.798  0.00  0.00    +0.079 C 
ATOM     36  C   UNL     1       0.034  -9.262   7.219  0.00  0.00    +0.142 C 
ATOM     37  O   UNL     1      -1.138  -9.430   7.458  0.00  0.00    -0.297 OA
ENDBRANCH  27  28
ENDBRANCH  24  27
ENDBRANCH  22  24
ENDBRANCH   4  22
TORSDOF 8
