REMARK  Name = ZINC02996177
REMARK  8 active torsions:
REMARK  status: ('A' for Active; 'I' for Inactive)
REMARK    1  A    between atoms: C_4  and  N_7
REMARK    2  A    between atoms: N_7  and  C_8
REMARK    3  A    between atoms: C_8  and  C_9
REMARK    4  A    between atoms: C_9  and  C_10
REMARK    5  A    between atoms: C_10  and  C_11
REMARK    6  A    between atoms: N_13  and  N_14
REMARK    7  A    between atoms: C_15  and  C_16
REMARK    8  A    between atoms: C_21  and  O_22
REMARK                            x       y       z     vdW  Elec       q    Type
REMARK                         _______ _______ _______ _____ _____    ______ ____
ROOT
ATOM      1  C   UNL     1       6.542  -4.613  -0.086  0.00  0.00    +0.232 C 
ATOM      2  O   UNL     1       7.452  -3.811  -0.091  0.00  0.00    -0.274 OA
ATOM      3  N   UNL     1       6.808  -5.934  -0.096  0.00  0.00    -0.207 N 
ATOM      4  H   UNL     1       6.080  -6.576  -0.092  0.00  0.00    +0.177 HD
ENDROOT
BRANCH   3   5
ATOM      5  N   UNL     1       8.136  -6.382  -0.112  0.00  0.00    -0.188 NA
ATOM      6  C   UNL     1       8.392  -7.654  -0.121  0.00  0.00    +0.142 C 
BRANCH   6   7
ATOM      7  C   UNL     1       9.788  -8.125  -0.137  0.00  0.00    +0.038 A 
ATOM      8  C   UNL     1      10.068  -9.493  -0.153  0.00  0.00    +0.028 A 
ATOM      9  C   UNL     1      11.378  -9.927  -0.169  0.00  0.00    +0.020 A 
ATOM     10  C   UNL     1      12.417  -9.011  -0.169  0.00  0.00    +0.034 A 
ATOM     11  C   UNL     1      12.153  -7.654  -0.153  0.00  0.00    +0.061 A 
ATOM     12  C   UNL     1      10.842  -7.202  -0.143  0.00  0.00    +0.139 A 
ATOM     13 BR   UNL     1      13.580  -6.414  -0.154  0.00  0.00    -0.046 Br
ATOM     14 BR   UNL     1      11.755 -11.780  -0.190  0.00  0.00    -0.050 Br
BRANCH  12  15
ATOM     15  O   UNL     1      10.582  -5.869  -0.133  0.00  0.00    -0.505 OA
ATOM     16  H   UNL     1      10.515  -5.487   0.753  0.00  0.00    +0.292 HD
ENDBRANCH  12  15
ENDBRANCH   6   7
ENDBRANCH   3   5
BRANCH   1  17
ATOM     17  C   UNL     1       5.114  -4.132  -0.070  0.00  0.00    +0.099 C 
BRANCH  17  18
ATOM     18  C   UNL     1       5.091  -2.602  -0.061  0.00  0.00    +0.028 C 
BRANCH  18  19
ATOM     19  C   UNL     1       3.641  -2.114  -0.044  0.00  0.00    +0.102 C 
BRANCH  19  20
ATOM     20  N   UNL     1       3.620  -0.649  -0.036  0.00  0.00    -0.344 N 
ATOM     21  H   UNL     1       4.452  -0.152  -0.042  0.00  0.00    +0.146 HD
BRANCH  20  25
ATOM     22  C   UNL     1      -0.017   1.379   0.010  0.00  0.00    +0.000 A 
ATOM     23  C   UNL     1       1.169   2.089   0.002  0.00  0.00    +0.002 A 
ATOM     24  C   UNL     1       2.377   1.420  -0.013  0.00  0.00    +0.023 A 
ATOM     25  C   UNL     1       2.400   0.031  -0.021  0.00  0.00    +0.027 A 
ATOM     26  C   UNL     1       1.206  -0.680  -0.013  0.00  0.00    +0.023 A 
ATOM     27  C   UNL     1       0.002  -0.004   0.002  0.00  0.00    +0.002 A 
ENDBRANCH  20  25
ENDBRANCH  19  20
ENDBRANCH  18  19
ENDBRANCH  17  18
ENDBRANCH   1  17
TORSDOF 8
