REMARK  Name = ZINC22935562
REMARK  9 active torsions:
REMARK  status: ('A' for Active; 'I' for Inactive)
REMARK    1  A    between atoms: C_1  and  C_2
REMARK    2  A    between atoms: C_9  and  C_35
REMARK    3  A    between atoms: C_10  and  C_16
REMARK    4  A    between atoms: C_16  and  C_17
REMARK    5  A    between atoms: C_17  and  C_18
REMARK    6  A    between atoms: N_20  and  C_21
REMARK    7  A    between atoms: C_21  and  C_22
REMARK    8  A    between atoms: C_22  and  N_28
REMARK    9  A    between atoms: N_31  and  C_34
REMARK                            x       y       z     vdW  Elec       q    Type
REMARK                         _______ _______ _______ _____ _____    ______ ____
ROOT
ATOM      1  C   UNL     1      -1.318  -2.518   9.177  0.00  0.00    +0.213 C 
ATOM      2  O   UNL     1      -0.268  -2.357   9.763  0.00  0.00    -0.276 OA
ATOM      3  N   UNL     1      -2.474  -2.572   9.868  0.00  0.00    -0.314 N 
ATOM      4  H   UNL     1      -3.313  -2.701   9.400  0.00  0.00    +0.149 HD
ENDROOT
BRANCH   1   5
ATOM      5  C   UNL     1      -1.329  -2.659   7.677  0.00  0.00    +0.100 C 
BRANCH   5   6
ATOM      6  C   UNL     1       0.102  -2.562   7.144  0.00  0.00    +0.052 C 
BRANCH   6  16
ATOM      7  C   UNL     1      -0.018   1.503   0.010  0.00  0.00    +0.047 C 
ATOM      8  C   UNL     1       0.002  -0.004   0.002  0.00  0.00    -0.005 A 
ATOM      9  C   UNL     1       0.009  -0.802  -1.073  0.00  0.00    +0.199 A 
ATOM     10  O   UNL     1       0.028  -2.093  -0.695  0.00  0.00    -0.463 OA
ATOM     11  C   UNL     1       0.035  -2.202   0.649  0.00  0.00    +0.139 A 
ATOM     12  C   UNL     1       0.025  -0.893   1.172  0.00  0.00    +0.024 A 
ATOM     13  C   UNL     1       0.035  -0.683   2.544  0.00  0.00    +0.023 A 
ATOM     14  C   UNL     1       0.058  -1.782   3.403  0.00  0.00    +0.022 A 
ATOM     15  C   UNL     1       0.068  -1.597   4.857  0.00  0.00    -0.030 A 
ATOM     16  C   UNL     1       0.090  -2.703   5.644  0.00  0.00    +0.041 A 
ATOM     17  C   UNL     1       0.102  -3.985   5.054  0.00  0.00    +0.341 A 
ATOM     18  O   UNL     1       0.121  -4.968   5.772  0.00  0.00    -0.245 OA
ATOM     19  O   UNL     1       0.092  -4.149   3.722  0.00  0.00    -0.422 OA
ATOM     20  C   UNL     1       0.071  -3.092   2.879  0.00  0.00    +0.143 A 
ATOM     21  C   UNL     1       0.053  -3.290   1.510  0.00  0.00    +0.093 A 
ATOM     22  C   UNL     1       0.056  -0.217   5.462  0.00  0.00    +0.045 C 
ENDBRANCH   6  16
ENDBRANCH   5   6
ENDBRANCH   1   5
BRANCH   3  23
ATOM     23  C   UNL     1      -2.462  -2.435  11.327  0.00  0.00    +0.126 C 
BRANCH  23  24
ATOM     24  C   UNL     1      -3.893  -2.532  11.860  0.00  0.00    +0.037 C 
ATOM     25  C   UNL     1      -3.881  -2.389  13.383  0.00  0.00    +0.024 C 
ATOM     26  C   UNL     1      -3.286  -1.032  13.763  0.00  0.00    +0.002 C 
ATOM     27  C   UNL     1      -4.134   0.086  13.153  0.00  0.00    +0.000 C 
ATOM     28  C   UNL     1      -4.146  -0.057  11.629  0.00  0.00    +0.002 C 
ATOM     29  C   UNL     1      -4.741  -1.414  11.249  0.00  0.00    +0.024 C 
BRANCH  24  30
ATOM     30  N   UNL     1      -4.465  -3.835  11.494  0.00  0.00    -0.299 NA
ATOM     31  C   UNL     1      -5.870  -3.929  11.914  0.00  0.00    +0.066 C 
ATOM     32  C   UNL     1      -6.444  -5.275  11.463  0.00  0.00    -0.064 C 
ATOM     33  N   UNL     1      -5.662  -6.365  12.060  0.00  0.00    +0.379 N 
ATOM     34  C   UNL     1      -4.267  -6.272  11.613  0.00  0.00    -0.064 C 
ATOM     35  C   UNL     1      -3.675  -4.935  12.065  0.00  0.00    +0.066 C 
ATOM     36  C   UNL     1      -6.225  -7.656  11.642  0.00  0.00    -0.096 C 
ATOM     37  H   UNL     1      -5.699  -6.293  13.066  0.00  0.00    -0.082 HD
ENDBRANCH  24  30
ENDBRANCH  23  24
ENDBRANCH   3  23
TORSDOF 6
