REMARK  Name = ZINC35432426
REMARK  6 active torsions:
REMARK  status: ('A' for Active; 'I' for Inactive)
REMARK    1  A    between atoms: C_1  and  C_2
REMARK    2  A    between atoms: C_4  and  C_29
REMARK    3  A    between atoms: C_5  and  S_9
REMARK    4  A    between atoms: C_6  and  C_8
REMARK    5  A    between atoms: S_9  and  N_12
REMARK    6  A    between atoms: C_21  and  C_23
REMARK                            x       y       z     vdW  Elec       q    Type
REMARK                         _______ _______ _______ _____ _____    ______ ____
ROOT
ATOM      1  N   UNL     1       0.399  -5.328   0.167  0.00  0.00    -0.176 NA
ATOM      2  C   UNL     1       1.077  -5.803  -1.047  0.00  0.00    +0.113 C 
ATOM      3  C   UNL     1       1.206  -7.327  -0.976  0.00  0.00    +0.067 C 
ATOM      4  C   UNL     1       1.898  -7.717   0.331  0.00  0.00    +0.130 C 
ATOM      5  C   UNL     1       1.072  -7.240   1.526  0.00  0.00    +0.067 C 
ATOM      6  C   UNL     1       0.946  -5.709   1.476  0.00  0.00    +0.113 C 
ATOM      7  N   UNL     1       3.240  -7.126   0.381  0.00  0.00    -0.286 N 
ATOM      8  C   UNL     1       4.110  -8.154   0.464  0.00  0.00    +0.264 C 
ATOM      9  O   UNL     1       5.319  -8.056   0.525  0.00  0.00    -0.268 OA
ATOM     10  C   UNL     1       3.342  -9.425   0.467  0.00  0.00    +0.130 C 
ATOM     11  N   UNL     1       2.073  -9.170   0.391  0.00  0.00    -0.252 NA
ATOM     12  H   UNL     1       3.458  -6.181   0.360  0.00  0.00    +0.151 HD
ENDROOT
BRANCH  10  13
ATOM     13  C   UNL     1       3.935 -10.779   0.546  0.00  0.00    +0.005 A 
ATOM     14  C   UNL     1       3.113 -11.906   0.536  0.00  0.00    +0.010 A 
ATOM     15  C   UNL     1       3.672 -13.165   0.610  0.00  0.00    +0.001 A 
ATOM     16  C   UNL     1       5.046 -13.311   0.695  0.00  0.00    +0.000 A 
ATOM     17  C   UNL     1       5.867 -12.197   0.705  0.00  0.00    +0.001 A 
ATOM     18  C   UNL     1       5.320 -10.933   0.626  0.00  0.00    +0.010 A 
ENDBRANCH  10  13
BRANCH   1  19
ATOM     19  S   UNL     1      -0.951  -4.375   0.062  0.00  0.00    +0.061 S 
ATOM     20  O   UNL     1      -1.663  -4.543   1.280  0.00  0.00    -0.153 OA
ATOM     21  O   UNL     1      -1.537  -4.640  -1.206  0.00  0.00    -0.153 OA
BRANCH  19  26
ATOM     22  C   UNL     1       0.920   1.359  -0.067  0.00  0.00    +0.044 C 
ATOM     23  C   UNL     1       0.452  -0.073  -0.035  0.00  0.00    -0.050 A 
ATOM     24  C   UNL     1       0.175  -0.682   1.174  0.00  0.00    +0.008 A 
ATOM     25  C   UNL     1      -0.254  -1.996   1.204  0.00  0.00    -0.024 A 
ATOM     26  C   UNL     1      -0.406  -2.700   0.024  0.00  0.00    +0.111 A 
ATOM     27  C   UNL     1      -0.130  -2.090  -1.185  0.00  0.00    -0.024 A 
ATOM     28  C   UNL     1       0.295  -0.775  -1.215  0.00  0.00    +0.008 A 
ATOM     29  C   UNL     1      -0.295  -2.858  -2.472  0.00  0.00    +0.046 C 
ATOM     30  C   UNL     1      -0.554  -2.661   2.522  0.00  0.00    +0.046 C 
ENDBRANCH  19  26
ENDBRANCH   1  19
TORSDOF 3
