REMARK  Name = ZINC35157167
REMARK  9 active torsions:
REMARK  status: ('A' for Active; 'I' for Inactive)
REMARK    1  A    between atoms: C_1  and  C_2
REMARK    2  A    between atoms: C_9  and  C_16
REMARK    3  A    between atoms: C_10  and  N_11
REMARK    4  A    between atoms: N_11  and  C_12
REMARK    5  A    between atoms: C_12  and  C_13
REMARK    6  A    between atoms: C_12  and  C_14
REMARK    7  A    between atoms: C_12  and  C_15
REMARK    8  A    between atoms: C_16  and  C_24
REMARK    9  A    between atoms: C_17  and  C_18
REMARK                            x       y       z     vdW  Elec       q    Type
REMARK                         _______ _______ _______ _____ _____    ______ ____
ROOT
ATOM      1  C   UNL     1       0.391  -0.043  -2.844  0.00  0.00    +0.047 C 
ATOM      2  C   UNL     1       0.310  -1.417  -2.229  0.00  0.00    -0.009 A 
ATOM      3  C   UNL     1       0.332  -2.523  -3.018  0.00  0.00    +0.008 A 
ATOM      4  C   UNL     1       0.256  -3.800  -2.433  0.00  0.00    +0.018 A 
ATOM      5  C   UNL     1       0.161  -3.933  -1.095  0.00  0.00    +0.094 A 
ATOM      6  N   UNL     1       0.137  -2.828  -0.286  0.00  0.00    -0.289 N 
ATOM      7  C   UNL     1       0.216  -1.566  -0.829  0.00  0.00    +0.120 A 
ATOM      8  N   UNL     1       0.181  -0.679   0.152  0.00  0.00    -0.338 N 
ATOM      9  C   UNL     1       0.086  -1.325   1.332  0.00  0.00    +0.083 A 
ATOM     10  C   UNL     1       0.048  -2.685   1.071  0.00  0.00    +0.129 A 
ATOM     11  H   UNL     1       0.218   0.283   0.041  0.00  0.00    +0.167 HD
ENDROOT
BRANCH   9  12
ATOM     12  C   UNL     1       0.021  -0.698   2.659  0.00  0.00    -0.023 C 
ATOM     13  C   UNL     1      -1.115  -0.103   3.068  0.00  0.00    +0.013 C 
ATOM     14  C   UNL     1       1.227  -0.720   3.563  0.00  0.00    +0.046 C 
BRANCH  13  15
ATOM     15  C   UNL     1      -1.137   0.652   4.332  0.00  0.00    -0.025 A 
ATOM     16  C   UNL     1      -2.284   0.649   5.132  0.00  0.00    +0.008 A 
ATOM     17  C   UNL     1      -2.297   1.359   6.314  0.00  0.00    +0.001 A 
ATOM     18  C   UNL     1      -1.180   2.073   6.709  0.00  0.00    +0.000 A 
ATOM     19  C   UNL     1      -0.041   2.082   5.922  0.00  0.00    +0.001 A 
ATOM     20  C   UNL     1      -0.011   1.372   4.740  0.00  0.00    +0.008 A 
ENDBRANCH  13  15
ENDBRANCH   9  12
BRANCH  10  21
ATOM     21  N   UNL     1      -0.046  -3.709   2.009  0.00  0.00    -0.324 N 
ATOM     22  H   UNL     1      -0.044  -3.500   2.956  0.00  0.00    +0.148 HD
BRANCH  21  23
ATOM     23  C   UNL     1      -0.147  -5.101   1.566  0.00  0.00    +0.025 C 
ATOM     24  C   UNL     1       1.132  -5.495   0.824  0.00  0.00    +0.031 C 
ATOM     25  C   UNL     1      -0.332  -6.011   2.782  0.00  0.00    +0.031 C 
ATOM     26  C   UNL     1      -1.347  -5.253   0.629  0.00  0.00    +0.031 C 
ENDBRANCH  21  23
ENDBRANCH  10  21
TORSDOF 4
