REMARK  Name = ZINC24768865
REMARK  10 active torsions:
REMARK  status: ('A' for Active; 'I' for Inactive)
REMARK    1  A    between atoms: C_1  and  C_2
REMARK    2  A    between atoms: C_2  and  O_3
REMARK    3  A    between atoms: O_3  and  C_4
REMARK    4  A    between atoms: C_4  and  C_6
REMARK    5  A    between atoms: C_7  and  C_8
REMARK    6  A    between atoms: C_11  and  N_14
REMARK    7  A    between atoms: C_15  and  C_17
REMARK    8  A    between atoms: C_17  and  N_18
REMARK    9  A    between atoms: C_21  and  C_25
REMARK   10  A    between atoms: C_21  and  C_26
REMARK                            x       y       z     vdW  Elec       q    Type
REMARK                         _______ _______ _______ _____ _____    ______ ____
ROOT
ATOM      1  C   UNL     1       4.860   1.043  -0.253  0.00  0.00    +0.214 C 
ENDROOT
BRANCH   1   2
ATOM      2  N   UNL     1       5.961   2.004  -0.356  0.00  0.00    -0.215 N 
ATOM      3  C   UNL     1       6.426   2.502  -1.519  0.00  0.00    +0.251 C 
ATOM      4  O   UNL     1       6.028   2.248  -2.635  0.00  0.00    -0.272 OA
ATOM      5  C   UNL     1       7.550   3.446  -1.141  0.00  0.00    +0.136 C 
ATOM      6  N   UNL     1       7.597   3.357   0.329  0.00  0.00    -0.281 N 
ATOM      7  C   UNL     1       6.633   2.492   0.693  0.00  0.00    +0.310 C 
ATOM      8  O   UNL     1       6.399   2.188   1.847  0.00  0.00    -0.252 OA
ATOM      9  C   UNL     1       7.234   4.875  -1.584  0.00  0.00    +0.047 C 
ATOM     10  H   UNL     1       8.336   3.946   0.892  0.00  0.00    +0.152 HD
BRANCH   5  11
ATOM     11  C   UNL     1       8.852   2.981  -1.742  0.00  0.00    +0.003 A 
ATOM     12  C   UNL     1       9.891   2.587  -0.919  0.00  0.00    +0.009 A 
ATOM     13  C   UNL     1      11.083   2.155  -1.470  0.00  0.00    +0.020 A 
ATOM     14  C   UNL     1      11.241   2.129  -2.844  0.00  0.00    +0.042 A 
ATOM     15  C   UNL     1      10.204   2.530  -3.667  0.00  0.00    +0.040 A 
ATOM     16  C   UNL     1       9.009   2.956  -3.116  0.00  0.00    +0.048 A 
ATOM     17 CL   UNL     1       7.707   3.459  -4.148  0.00  0.00    -0.083 Cl
ATOM     18 CL   UNL     1      12.741   1.594  -3.536  0.00  0.00    -0.083 Cl
ENDBRANCH   5  11
ENDBRANCH   1   2
BRANCH   1  20
ATOM     19  N   UNL     1       2.399   1.103  -0.015  0.00  0.00    -0.284 N 
ATOM     20  C   UNL     1       3.556   1.786  -0.124  0.00  0.00    +0.235 C 
ATOM     21  O   UNL     1       3.546   2.999  -0.117  0.00  0.00    -0.274 OA
ATOM     22  H   UNL     1       2.413   0.005   0.056  0.00  0.00    +0.155 HD
BRANCH  19  26
ATOM     23  C   UNL     1      -1.230   3.148   0.056  0.00  0.00    -0.025 A 
ATOM     24  C   UNL     1      -1.140   1.900  -0.572  0.00  0.00    +0.010 A 
ATOM     25  C   UNL     1       0.060   1.226  -0.589  0.00  0.00    +0.024 A 
ATOM     26  C   UNL     1       1.184   1.788   0.009  0.00  0.00    +0.033 A 
ATOM     27  C   UNL     1       1.100   3.030   0.631  0.00  0.00    +0.024 A 
ATOM     28  C   UNL     1      -0.097   3.709   0.656  0.00  0.00    +0.010 A 
BRANCH  23  30
ATOM     29  C   UNL     1      -3.603   3.327  -0.500  0.00  0.00    +0.092 C 
ATOM     30  C   UNL     1      -2.510   3.870   0.080  0.00  0.00    +0.015 C 
BRANCH  29  31
ATOM     31  C   UNL     1      -4.838   4.023  -0.476  0.00  0.00    +0.332 C 
ATOM     32  O   UNL     1      -4.913   5.109   0.066  0.00  0.00    -0.246 OA
BRANCH  31  33
ATOM     33  O   UNL     1      -5.929   3.481  -1.056  0.00  0.00    -0.462 OA
BRANCH  33  35
ATOM     34  C   UNL     1      -8.259   3.468  -1.699  0.00  0.00    +0.048 C 
ATOM     35  C   UNL     1      -7.140   4.238  -0.994  0.00  0.00    +0.229 C 
ENDBRANCH  33  35
ENDBRANCH  31  33
ENDBRANCH  29  31
ENDBRANCH  23  30
ENDBRANCH  19  26
ENDBRANCH   1  20
TORSDOF 8
