REMARK  Name = ZINC04759769
REMARK  9 active torsions:
REMARK  status: ('A' for Active; 'I' for Inactive)
REMARK    1  A    between atoms: C_1  and  N_2
REMARK    2  A    between atoms: C_3  and  C_33
REMARK    3  A    between atoms: C_5  and  C_19
REMARK    4  A    between atoms: C_9  and  O_17
REMARK    5  A    between atoms: C_10  and  O_15
REMARK    6  A    between atoms: O_15  and  C_16
REMARK    7  A    between atoms: O_17  and  C_18
REMARK    8  A    between atoms: C_27  and  O_31
REMARK    9  A    between atoms: O_31  and  C_32
REMARK                            x       y       z     vdW  Elec       q    Type
REMARK                         _______ _______ _______ _____ _____    ______ ____
ROOT
ATOM      1  C   UNL     1       0.205   7.513  -1.257  0.00  0.00    +0.133 C 
ATOM      2  N   UNL     1      -1.011   6.697  -1.236  0.00  0.00    -0.292 N 
ATOM      3  C   UNL     1      -1.621   6.347   0.045  0.00  0.00    +0.129 C 
ATOM      4  C   UNL     1      -2.111   4.901   0.039  0.00  0.00    +0.131 C 
ATOM      5  C   UNL     1      -2.957   4.644  -1.180  0.00  0.00    -0.018 A 
ATOM      6  C   UNL     1      -4.008   3.755  -1.129  0.00  0.00    +0.054 A 
ATOM      7  C   UNL     1      -4.772   3.518  -2.264  0.00  0.00    +0.162 A 
ATOM      8  C   UNL     1      -4.480   4.176  -3.458  0.00  0.00    +0.162 A 
ATOM      9  C   UNL     1      -3.430   5.073  -3.514  0.00  0.00    +0.062 A 
ATOM     10  C   UNL     1      -2.667   5.315  -2.371  0.00  0.00    +0.045 A 
ATOM     11  C   UNL     1      -1.550   6.279  -2.398  0.00  0.00    +0.247 C 
ATOM     12  O   UNL     1      -1.120   6.692  -3.458  0.00  0.00    -0.270 OA
ENDROOT
BRANCH   4  13
ATOM     13  C   UNL     1      -0.924   3.972   0.028  0.00  0.00    +0.228 C 
ATOM     14  O   UNL     1       0.200   4.425   0.025  0.00  0.00    -0.275 OA
ATOM     15  N   UNL     1      -1.113   2.637   0.022  0.00  0.00    -0.264 N 
ATOM     16  C   UNL     1      -0.022   1.783   0.012  0.00  0.00    +0.165 A 
ATOM     17  N   UNL     1       1.256   2.080   0.001  0.00  0.00    -0.225 NA
ATOM     18  C   UNL     1       2.222   1.135  -0.013  0.00  0.00    +0.081 A 
ATOM     19  C   UNL     1       3.623   1.321  -0.025  0.00  0.00    +0.032 A 
ATOM     20  C   UNL     1       4.473   0.246  -0.039  0.00  0.00    +0.048 A 
ATOM     21  C   UNL     1       3.993  -1.060  -0.042  0.00  0.00    +0.121 A 
ATOM     22  C   UNL     1       2.623  -1.277  -0.030  0.00  0.00    +0.063 A 
ATOM     23  C   UNL     1       1.768  -0.203  -0.016  0.00  0.00    +0.044 A 
ATOM     24  S   UNL     1       0.002  -0.004   0.002  0.00  0.00    -0.052 S 
ATOM     25  H   UNL     1      -2.013   2.275   0.025  0.00  0.00    +0.157 HD
BRANCH  21  26
ATOM     26  O   UNL     1       4.856  -2.111  -0.056  0.00  0.00    -0.495 OA
ATOM     27  C   UNL     1       6.251  -1.804  -0.068  0.00  0.00    +0.277 C 
ENDBRANCH  21  26
ENDBRANCH   4  13
BRANCH   3  28
ATOM     28  C   UNL     1      -2.789   7.264   0.304  0.00  0.00    +0.011 A 
ATOM     29  C   UNL     1      -3.163   7.864   1.460  0.00  0.00    +0.013 A 
ATOM     30  C   UNL     1      -4.282   8.675   1.463  0.00  0.00    +0.008 A 
ATOM     31  C   UNL     1      -4.974   8.845   0.310  0.00  0.00    +0.045 A 
ATOM     32  S   UNL     1      -4.035   7.847  -0.834  0.00  0.00    -0.100 S 
ENDBRANCH   3  28
BRANCH   8  33
ATOM     33  O   UNL     1      -5.228   3.935  -4.568  0.00  0.00    -0.491 OA
ATOM     34  C   UNL     1      -4.873   4.644  -5.757  0.00  0.00    +0.277 C 
ENDBRANCH   8  33
BRANCH   7  35
ATOM     35  O   UNL     1      -5.808   2.642  -2.210  0.00  0.00    -0.491 OA
ATOM     36  C   UNL     1      -6.053   2.003  -0.956  0.00  0.00    +0.277 C 
ENDBRANCH   7  35
TORSDOF 5
