REMARK  Name = ZINC39707779
REMARK  8 active torsions:
REMARK  status: ('A' for Active; 'I' for Inactive)
REMARK    1  A    between atoms: C_4  and  N_7
REMARK    2  A    between atoms: C_9  and  C_14
REMARK    3  A    between atoms: N_16  and  C_17
REMARK    4  A    between atoms: C_20  and  C_24
REMARK    5  A    between atoms: C_24  and  C_25
REMARK    6  A    between atoms: N_27  and  C_28
REMARK    7  A    between atoms: C_28  and  C_29
REMARK    8  A    between atoms: C_29  and  C_30
REMARK                            x       y       z     vdW  Elec       q    Type
REMARK                         _______ _______ _______ _____ _____    ______ ____
ROOT
ATOM      1  C   UNL     1       7.625  -5.088   0.832  0.00  0.00    +0.202 C 
ATOM      2  N   UNL     1       8.866  -5.581   0.179  0.00  0.00    -0.286 NA
ATOM      3  C   UNL     1      10.061  -4.851   0.643  0.00  0.00    +0.075 C 
ATOM      4  C   UNL     1      10.041  -4.804   2.200  0.00  0.00    +0.091 C 
ATOM      5  S   UNL     1       8.234  -4.505   2.469  0.00  0.00    -0.121 S 
ATOM      6  H   UNL     1       8.975  -6.575   0.312  0.00  0.00    +0.125 HD
ENDROOT
BRANCH   1   9
ATOM      7  C   UNL     1       5.791  -3.559   0.348  0.00  0.00    +0.220 C 
ATOM      8  O   UNL     1       5.151  -4.094   1.228  0.00  0.00    -0.275 OA
ATOM      9  N   UNL     1       7.040  -3.982   0.070  0.00  0.00    -0.291 N 
ATOM     10  H   UNL     1       7.552  -3.554  -0.634  0.00  0.00    +0.151 HD
BRANCH   7  13
ATOM     11  N   UNL     1       3.622  -0.651  -0.037  0.00  0.00    -0.271 N 
ATOM     12  C   UNL     1       3.757  -2.109   0.053  0.00  0.00    +0.127 C 
ATOM     13  C   UNL     1       5.189  -2.421  -0.436  0.00  0.00    +0.101 C 
ATOM     14  C   UNL     1       5.921  -1.092  -0.134  0.00  0.00    +0.110 C 
ATOM     15  C   UNL     1       4.821  -0.054  -0.144  0.00  0.00    +0.221 C 
ATOM     16  O   UNL     1       4.997   1.143  -0.232  0.00  0.00    -0.275 OA
BRANCH  11  20
ATOM     17  C   UNL     1      -0.017   1.379   0.010  0.00  0.00    +0.000 A 
ATOM     18  C   UNL     1       1.170   2.089   0.016  0.00  0.00    +0.002 A 
ATOM     19  C   UNL     1       2.377   1.419   0.001  0.00  0.00    +0.023 A 
ATOM     20  C   UNL     1       2.400   0.031  -0.021  0.00  0.00    +0.036 A 
ATOM     21  C   UNL     1       1.206  -0.680  -0.028  0.00  0.00    +0.023 A 
ATOM     22  C   UNL     1       0.002  -0.004  -0.012  0.00  0.00    +0.002 A 
ENDBRANCH  11  20
ENDBRANCH   7  13
ENDBRANCH   1   9
BRANCH   3  23
ATOM     23  C   UNL     1      11.323  -5.575   0.168  0.00  0.00    +0.115 C 
BRANCH  23  24
ATOM     24  C   UNL     1      11.409  -5.500  -1.335  0.00  0.00    +0.215 C 
ATOM     25  O   UNL     1      10.547  -4.924  -1.964  0.00  0.00    -0.276 OA
ATOM     26  N   UNL     1      12.445  -6.072  -1.980  0.00  0.00    -0.315 N 
ATOM     27  H   UNL     1      13.135  -6.533  -1.476  0.00  0.00    +0.149 HD
BRANCH  26  28
ATOM     28  C   UNL     1      12.529  -5.999  -3.440  0.00  0.00    +0.109 C 
BRANCH  28  29
ATOM     29  C   UNL     1      13.791  -6.723  -3.915  0.00  0.00    +0.056 C 
BRANCH  29  30
ATOM     30  C   UNL     1      13.878  -6.648  -5.418  0.00  0.00    -0.021 A 
ATOM     31  C   UNL     1      14.446  -5.550  -6.204  0.00  0.00    +0.003 A 
ATOM     32  C   UNL     1      15.039  -4.329  -5.879  0.00  0.00    +0.010 A 
ATOM     33  C   UNL     1      15.481  -3.503  -6.874  0.00  0.00    +0.001 A 
ATOM     34  C   UNL     1      15.344  -3.868  -8.206  0.00  0.00    +0.002 A 
ATOM     35  C   UNL     1      14.761  -5.069  -8.549  0.00  0.00    +0.026 A 
ATOM     36  C   UNL     1      14.305  -5.925  -7.553  0.00  0.00    +0.047 A 
ATOM     37  N   UNL     1      13.695  -7.160  -7.570  0.00  0.00    -0.360 N 
ATOM     38  C   UNL     1      13.454  -7.577  -6.290  0.00  0.00    +0.087 A 
ATOM     39  H   UNL     1      13.474  -7.661  -8.371  0.00  0.00    +0.165 HD
ENDBRANCH  29  30
ENDBRANCH  28  29
ENDBRANCH  26  28
ENDBRANCH  23  24
ENDBRANCH   3  23
TORSDOF 8
