REMARK  Name = ZINC50786628
REMARK  7 active torsions:
REMARK  status: ('A' for Active; 'I' for Inactive)
REMARK    1  A    between atoms: C_1  and  C_2
REMARK    2  A    between atoms: C_4  and  C_21
REMARK    3  A    between atoms: C_6  and  N_8
REMARK    4  A    between atoms: N_8  and  C_9
REMARK    5  A    between atoms: C_10  and  C_12
REMARK    6  A    between atoms: C_17  and  N_18
REMARK    7  A    between atoms: N_18  and  C_19
REMARK                            x       y       z     vdW  Elec       q    Type
REMARK                         _______ _______ _______ _____ _____    ______ ____
ROOT
ATOM      1  N   UNL     1       0.114  -2.787   2.447  0.00  0.00    -0.270 N 
ATOM      2  C   UNL     1       0.097  -4.250   2.503  0.00  0.00    +0.138 C 
ATOM      3  C   UNL     1       0.146  -2.069   3.587  0.00  0.00    +0.254 C 
ATOM      4  O   UNL     1       0.072  -0.856   3.544  0.00  0.00    -0.270 OA
ENDROOT
BRANCH   1  10
ATOM      5  C   UNL     1      -0.228   1.383  -0.134  0.00  0.00    +0.044 C 
ATOM      6  C   UNL     1      -0.067  -0.114  -0.071  0.00  0.00    -0.048 A 
ATOM      7  C   UNL     1       0.063  -0.844  -1.238  0.00  0.00    +0.006 A 
ATOM      8  C   UNL     1       0.211  -2.218  -1.184  0.00  0.00    -0.048 A 
ATOM      9  C   UNL     1       0.228  -2.865   0.036  0.00  0.00    +0.027 A 
ATOM     10  C   UNL     1       0.098  -2.134   1.210  0.00  0.00    +0.037 A 
ATOM     11  C   UNL     1      -0.044  -0.754   1.153  0.00  0.00    +0.027 A 
ATOM     12  C   UNL     1       0.353  -3.010  -2.458  0.00  0.00    +0.044 C 
ENDBRANCH   1  10
BRANCH   3  13
ATOM     13  C   UNL     1       0.272  -2.753   4.886  0.00  0.00    +0.078 A 
ATOM     14  C   UNL     1       1.300  -3.678   5.108  0.00  0.00    +0.033 A 
ATOM     15  C   UNL     1       1.374  -4.294   6.345  0.00  0.00    +0.037 A 
ATOM     16  C   UNL     1       0.440  -3.982   7.319  0.00  0.00    +0.128 A 
ATOM     17  N   UNL     1      -0.520  -3.109   7.089  0.00  0.00    -0.239 NA
ATOM     18  C   UNL     1      -0.634  -2.486   5.926  0.00  0.00    +0.131 A 
ATOM     19 BR   UNL     1       2.740  -5.552   6.702  0.00  0.00    -0.049 Br
BRANCH  18  20
ATOM     20  N   UNL     1      -1.653  -1.572   5.732  0.00  0.00    -0.332 N 
ATOM     21  C   UNL     1      -2.530  -1.206   6.847  0.00  0.00    +0.127 C 
ATOM     22  H   UNL     1      -1.788  -1.173   4.858  0.00  0.00    +0.147 HD
ENDBRANCH  18  20
ENDBRANCH   3  13
TORSDOF 3
