REMARK  Name = ZINC05954337
REMARK  10 active torsions:
REMARK  status: ('A' for Active; 'I' for Inactive)
REMARK    1  A    between atoms: C_1  and  C_2
REMARK    2  A    between atoms: C_2  and  C_3
REMARK    3  A    between atoms: C_5  and  C_26
REMARK    4  A    between atoms: C_7  and  O_9
REMARK    5  A    between atoms: O_9  and  C_10
REMARK    6  A    between atoms: C_10  and  C_11
REMARK    7  A    between atoms: C_11  and  O_12
REMARK    8  A    between atoms: O_12  and  C_13
REMARK    9  A    between atoms: C_18  and  C_19
REMARK   10  A    between atoms: N_20  and  N_21
REMARK                            x       y       z     vdW  Elec       q    Type
REMARK                         _______ _______ _______ _____ _____    ______ ____
ROOT
ATOM      1  C   UNL     1      -0.194   1.208  -2.359  0.00  0.00    +0.129 A 
ATOM      2  C   UNL     1       0.949   0.429  -2.432  0.00  0.00    +0.047 A 
ATOM      3  C   UNL     1       1.464   0.068  -3.662  0.00  0.00    +0.019 A 
ATOM      4  C   UNL     1       0.850   0.489  -4.830  0.00  0.00    +0.019 A 
ATOM      5  C   UNL     1      -0.287   1.269  -4.775  0.00  0.00    +0.028 A 
ATOM      6  C   UNL     1      -0.820   1.636  -3.537  0.00  0.00    +0.037 A 
ATOM      7 BR   UNL     1       1.571  -0.008  -6.506  0.00  0.00    -0.050 Br
ENDROOT
BRANCH   6   8
ATOM      8  C   UNL     1      -2.034   2.469  -3.471  0.00  0.00    +0.142 C 
ATOM      9  N   UNL     1      -2.527   2.808  -2.319  0.00  0.00    -0.186 NA
BRANCH   9  10
ATOM     10  N   UNL     1      -3.681   3.599  -2.256  0.00  0.00    -0.191 N 
ATOM     11  C   UNL     1      -4.192   3.951  -1.060  0.00  0.00    +0.317 C 
ATOM     12  O   UNL     1      -5.194   4.638  -1.005  0.00  0.00    -0.251 OA
ATOM     13  N   UNL     1      -3.594   3.541   0.076  0.00  0.00    -0.312 N 
ATOM     14  H   UNL     1      -4.112   3.894  -3.073  0.00  0.00    +0.179 HD
ATOM     15  H   UNL     1      -2.794   2.993   0.033  0.00  0.00    +0.147 HD
ATOM     16  H   UNL     1      -3.962   3.794   0.937  0.00  0.00    +0.147 HD
ENDBRANCH   9  10
ENDBRANCH   6   8
BRANCH   1  17
ATOM     17  O   UNL     1      -0.704   1.559  -1.150  0.00  0.00    -0.488 OA
BRANCH  17  18
ATOM     18  C   UNL     1      -0.013   1.086   0.008  0.00  0.00    +0.270 C 
BRANCH  18  19
ATOM     19  C   UNL     1      -0.729   1.579   1.267  0.00  0.00    +0.270 C 
BRANCH  19  20
ATOM     20  O   UNL     1      -2.030   0.991   1.336  0.00  0.00    -0.489 OA
BRANCH  20  25
ATOM     21  C   UNL     1      -4.860   1.137   3.617  0.00  0.00    -0.044 A 
ATOM     22  C   UNL     1      -4.376   2.013   4.572  0.00  0.00    +0.007 A 
ATOM     23  C   UNL     1      -3.107   2.546   4.444  0.00  0.00    -0.047 A 
ATOM     24  C   UNL     1      -2.317   2.201   3.364  0.00  0.00    +0.049 A 
ATOM     25  C   UNL     1      -2.803   1.328   2.402  0.00  0.00    +0.121 A 
ATOM     26  C   UNL     1      -4.077   0.794   2.533  0.00  0.00    +0.049 A 
ATOM     27  C   UNL     1      -2.582   3.498   5.487  0.00  0.00    +0.044 C 
BRANCH  21  29
ATOM     28  C   UNL     1      -6.170  -0.749   4.551  0.00  0.00    +0.009 C 
ATOM     29  C   UNL     1      -6.244   0.558   3.759  0.00  0.00    +0.032 C 
ENDBRANCH  21  29
ENDBRANCH  20  25
ENDBRANCH  19  20
ENDBRANCH  18  19
ENDBRANCH  17  18
ENDBRANCH   1  17
TORSDOF 8
