REMARK  Name = ZINC63526374
REMARK  4 active torsions:
REMARK  status: ('A' for Active; 'I' for Inactive)
REMARK    1  A    between atoms: C_9  and  C_12
REMARK    2  A    between atoms: N_14  and  C_15
REMARK    3  A    between atoms: C_15  and  C_16
REMARK    4  A    between atoms: C_16  and  C_17
REMARK                            x       y       z     vdW  Elec       q    Type
REMARK                         _______ _______ _______ _____ _____    ______ ____
ROOT
ATOM      1  C   UNL     1       2.752  -2.902  -1.978  0.00  0.00    +0.228 C 
ATOM      2  O   UNL     1       2.053  -2.228  -2.705  0.00  0.00    -0.275 OA
ATOM      3  N   UNL     1       3.518  -3.882  -2.498  0.00  0.00    -0.314 N 
ATOM      4  H   UNL     1       4.077  -4.420  -1.917  0.00  0.00    +0.149 HD
ENDROOT
BRANCH   1  12
ATOM      5  C   UNL     1      -0.017   1.372   0.010  0.00  0.00    +0.000 A 
ATOM      6  C   UNL     1       1.161   2.097   0.002  0.00  0.00    +0.001 A 
ATOM      7  C   UNL     1       2.366   1.421  -0.021  0.00  0.00    +0.015 A 
ATOM      8  C   UNL     1       2.381   0.038  -0.034  0.00  0.00    +0.013 A 
ATOM      9  C   UNL     1       1.208  -0.710  -0.011  0.00  0.00    -0.015 A 
ATOM     10  C   UNL     1       0.002  -0.004   0.002  0.00  0.00    +0.006 A 
ATOM     11  C   UNL     1       1.372  -2.210   0.015  0.00  0.00    +0.133 C 
ATOM     12  C   UNL     1       2.765  -2.643  -0.494  0.00  0.00    +0.159 C 
ATOM     13  S   UNL     1       3.725  -1.127  -0.084  0.00  0.00    -0.110 S 
ATOM     14 CL   UNL     1       1.160  -2.795   1.707  0.00  0.00    -0.115 Cl
ENDBRANCH   1  12
BRANCH   3  15
ATOM     15  C   UNL     1       3.505  -4.133  -3.942  0.00  0.00    +0.108 C 
BRANCH  15  16
ATOM     16  C   UNL     1       4.453  -5.289  -4.266  0.00  0.00    +0.065 C 
BRANCH  16  17
ATOM     17  C   UNL     1       4.440  -5.551  -5.774  0.00  0.00    +0.175 C 
ATOM     18  N   UNL     1       3.100  -5.974  -6.199  0.00  0.00    -0.363 N 
ATOM     19  C   UNL     1       3.210  -7.168  -6.707  0.00  0.00    +0.060 A 
ATOM     20  C   UNL     1       2.235  -8.099  -7.291  0.00  0.00    +0.027 A 
ATOM     21  C   UNL     1       2.650  -9.298  -7.746  0.00  0.00    +0.002 A 
ATOM     22  C   UNL     1       3.994  -9.708  -7.687  0.00  0.00    +0.002 A 
ATOM     23  C   UNL     1       4.968  -8.932  -7.170  0.00  0.00    +0.027 A 
ATOM     24  C   UNL     1       4.632  -7.601  -6.644  0.00  0.00    +0.060 A 
ATOM     25  N   UNL     1       5.347  -6.659  -6.100  0.00  0.00    -0.363 N 
ATOM     26  H   UNL     1       2.282  -5.459  -6.118  0.00  0.00    +0.162 HD
ATOM     27  H   UNL     1       6.303  -6.684  -5.941  0.00  0.00    +0.162 HD
ENDBRANCH  16  17
ENDBRANCH  15  16
ENDBRANCH   3  15
TORSDOF 4
