REMARK  Name = ZINC00567059
REMARK  4 active torsions:
REMARK  status: ('A' for Active; 'I' for Inactive)
REMARK    1  A    between atoms: C_3  and  C_19
REMARK    2  A    between atoms: C_4  and  C_17
REMARK    3  A    between atoms: C_6  and  N_7
REMARK    4  A    between atoms: C_8  and  C_9
REMARK                            x       y       z     vdW  Elec       q    Type
REMARK                         _______ _______ _______ _____ _____    ______ ____
ROOT
ATOM      1  C   UNL     1       1.421   6.281  -0.841  0.00  0.00    +0.029 A 
ATOM      2  C   UNL     1       1.400   7.657  -0.836  0.00  0.00    +0.022 A 
ATOM      3  C   UNL     1       2.253   8.369   0.010  0.00  0.00    +0.069 A 
ATOM      4  C   UNL     1       3.134   7.674   0.866  0.00  0.00    +0.071 A 
ATOM      5  C   UNL     1       3.146   6.285   0.861  0.00  0.00    +0.048 A 
ATOM      6  C   UNL     1       2.288   5.585   0.009  0.00  0.00    +0.065 A 
ENDROOT
BRANCH   6   7
ATOM      7  N   UNL     1       2.299   4.219   0.002  0.00  0.00    -0.255 NA
ATOM      8  C   UNL     1       1.175   3.558   0.009  0.00  0.00    +0.120 C 
BRANCH   8   9
ATOM      9  C   UNL     1       1.187   2.087   0.002  0.00  0.00    +0.011 A 
ATOM     10  C   UNL     1      -0.017   1.374   0.010  0.00  0.00    +0.012 A 
ATOM     11  C   UNL     1       0.002  -0.004   0.002  0.00  0.00    +0.021 A 
ATOM     12  C   UNL     1       1.209  -0.685  -0.013  0.00  0.00    +0.042 A 
ATOM     13  C   UNL     1       2.405   0.013  -0.021  0.00  0.00    +0.040 A 
ATOM     14  C   UNL     1       2.403   1.393  -0.014  0.00  0.00    +0.051 A 
ATOM     15 CL   UNL     1       3.903   2.266  -0.024  0.00  0.00    -0.083 Cl
ATOM     16 CL   UNL     1       1.222  -2.421  -0.023  0.00  0.00    -0.083 Cl
ENDBRANCH   8   9
ENDBRANCH   6   7
BRANCH   4  17
ATOM     17  C   UNL     1       4.010   8.398   1.736  0.00  0.00    +0.101 C 
ATOM     18  N   UNL     1       4.706   8.973   2.427  0.00  0.00    -0.191 NA
ENDBRANCH   4  17
BRANCH   3  19
ATOM     19  C   UNL     1       2.234   9.800   0.008  0.00  0.00    +0.100 C 
ATOM     20  N   UNL     1       2.218  10.936   0.007  0.00  0.00    -0.191 NA
ENDBRANCH   3  19
TORSDOF 4
