REMARK  Name = ZINC08387072
REMARK  10 active torsions:
REMARK  status: ('A' for Active; 'I' for Inactive)
REMARK    1  A    between atoms: C_1  and  C_2
REMARK    2  A    between atoms: C_7  and  N_8
REMARK    3  A    between atoms: C_9  and  C_11
REMARK    4  A    between atoms: C_12  and  C_36
REMARK    5  A    between atoms: C_14  and  S_25
REMARK    6  A    between atoms: C_15  and  C_23
REMARK    7  A    between atoms: C_16  and  C_18
REMARK    8  A    between atoms: S_25  and  C_26
REMARK    9  A    between atoms: C_26  and  C_27
REMARK   10  A    between atoms: C_27  and  C_29
REMARK                            x       y       z     vdW  Elec       q    Type
REMARK                         _______ _______ _______ _____ _____    ______ ____
ROOT
ATOM      1  C   UNL     1       1.219   1.935  -0.168  0.00  0.00    +0.044 C 
ATOM      2  C   UNL     1       2.416   1.327  -0.150  0.00  0.00    +0.014 C 
ATOM      3  N   UNL     1       3.575   2.048  -0.249  0.00  0.00    -0.312 N 
ATOM      4  C   UNL     1       3.548   3.344  -0.714  0.00  0.00    +0.080 C 
ATOM      5  C   UNL     1       2.381   4.040  -0.748  0.00  0.00    +0.069 C 
ATOM      6  C   UNL     1       1.093   3.428  -0.275  0.00  0.00    +0.105 C 
ATOM      7  C   UNL     1       2.484  -0.173  -0.025  0.00  0.00    +0.061 C 
ATOM      8  H   UNL     1       4.532   1.592   0.043  0.00  0.00    +0.152 HD
ENDROOT
BRANCH   6   9
ATOM      9  C   UNL     1       0.743   3.994   1.077  0.00  0.00    +0.002 A 
ATOM     10  C   UNL     1      -0.347   4.711   1.446  0.00  0.00    +0.012 A 
ATOM     11  C   UNL     1      -0.460   5.131   2.758  0.00  0.00    +0.008 A 
ATOM     12  C   UNL     1       0.522   4.814   3.637  0.00  0.00    +0.045 A 
ATOM     13  S   UNL     1       1.651   3.887   2.611  0.00  0.00    -0.101 S 
ENDBRANCH   6   9
BRANCH   1  15
ATOM     14  N   UNL     1      -0.324   0.623   1.107  0.00  0.00    -0.281 N 
ATOM     15  C   UNL     1       0.045   1.149  -0.077  0.00  0.00    +0.247 C 
ATOM     16  O   UNL     1      -0.634   0.953  -1.069  0.00  0.00    -0.270 OA
ATOM     17  H   UNL     1       0.249   0.858   2.016  0.00  0.00    +0.155 HD
BRANCH  14  24
ATOM     18  C   UNL     1      -0.260  -1.518   2.980  0.00  0.00    +0.045 C 
ATOM     19  C   UNL     1      -1.446  -1.281   2.081  0.00  0.00    -0.029 A 
ATOM     20  C   UNL     1      -2.545  -2.114   2.151  0.00  0.00    +0.005 A 
ATOM     21  C   UNL     1      -3.633  -1.897   1.326  0.00  0.00    +0.000 A 
ATOM     22  C   UNL     1      -3.625  -0.845   0.428  0.00  0.00    +0.002 A 
ATOM     23  C   UNL     1      -2.532  -0.004   0.357  0.00  0.00    +0.023 A 
ATOM     24  C   UNL     1      -1.435  -0.223   1.181  0.00  0.00    +0.037 A 
ENDBRANCH  14  24
ENDBRANCH   1  15
BRANCH   5  25
ATOM     25  C   UNL     1       2.379   5.383  -1.245  0.00  0.00    +0.098 C 
ATOM     26  N   UNL     1       2.377   6.449  -1.639  0.00  0.00    -0.191 NA
ENDBRANCH   5  25
BRANCH   4  27
ATOM     27  S   UNL     1       5.037   4.104  -1.270  0.00  0.00    -0.101 S 
BRANCH  27  28
ATOM     28  C   UNL     1       6.204   2.748  -0.997  0.00  0.00    +0.155 C 
BRANCH  28  29
ATOM     29  C   UNL     1       7.585   3.182  -1.414  0.00  0.00    +0.173 C 
ATOM     30  O   UNL     1       7.764   4.298  -1.853  0.00  0.00    -0.291 OA
BRANCH  29  31
ATOM     31  C   UNL     1       8.718   2.251  -1.288  0.00  0.00    +0.018 A 
ATOM     32  C   UNL     1       8.517   0.965  -0.777  0.00  0.00    +0.013 A 
ATOM     33  C   UNL     1       9.582   0.096  -0.668  0.00  0.00    +0.020 A 
ATOM     34  C   UNL     1      10.851   0.499  -1.052  0.00  0.00    +0.041 A 
ATOM     35  C   UNL     1      11.058   1.774  -1.554  0.00  0.00    +0.020 A 
ATOM     36  C   UNL     1      10.002   2.651  -1.675  0.00  0.00    +0.013 A 
ATOM     37 CL   UNL     1      12.187  -0.599  -0.904  0.00  0.00    -0.084 Cl
ENDBRANCH  29  31
ENDBRANCH  28  29
ENDBRANCH  27  28
ENDBRANCH   4  27
TORSDOF 8
