REMARK  Name = ZINC39524942
REMARK  4 active torsions:
REMARK  status: ('A' for Active; 'I' for Inactive)
REMARK    1  A    between atoms: C_4  and  O_28
REMARK    2  A    between atoms: C_5  and  C_7
REMARK    3  A    between atoms: C_17  and  C_21
REMARK    4  A    between atoms: C_26  and  O_27
REMARK                            x       y       z     vdW  Elec       q    Type
REMARK                         _______ _______ _______ _____ _____    ______ ____
ROOT
ATOM      1  C   UNL     1       1.227  -2.194  -0.022  0.00  0.00    +0.024 C 
ATOM      2  C   UNL     1       0.527  -2.682  -1.289  0.00  0.00    +0.008 C 
ATOM      3  C   UNL     1       0.505  -4.212  -1.288  0.00  0.00    +0.002 C 
ATOM      4  C   UNL     1      -0.311  -4.698  -0.095  0.00  0.00    +0.023 C 
ATOM      5  C   UNL     1       0.257  -4.205   1.229  0.00  0.00    +0.034 C 
ATOM      6  C   UNL     1       0.522  -2.705   1.223  0.00  0.00    +0.031 C 
ATOM      7  C   UNL     1      -0.827  -4.454   2.308  0.00  0.00    +0.023 C 
ATOM      8  C   UNL     1      -1.143  -5.947   2.366  0.00  0.00    +0.004 C 
ATOM      9  C   UNL     1       0.130  -6.722   2.717  0.00  0.00    +0.025 C 
ATOM     10  C   UNL     1       1.219  -6.403   1.691  0.00  0.00    +0.102 C 
ATOM     11  N   UNL     1       1.442  -4.957   1.628  0.00  0.00    -0.228 NA
ATOM     12 BR   UNL     1       2.949  -4.547   0.650  0.00  0.00    +0.014 Br
ENDROOT
BRANCH   1  17
ATOM     13  C   UNL     1      -0.017   1.378   0.010  0.00  0.00    +0.001 A 
ATOM     14  C   UNL     1       1.170   2.088   0.002  0.00  0.00    +0.004 A 
ATOM     15  C   UNL     1       2.377   1.417  -0.013  0.00  0.00    +0.046 A 
ATOM     16  C   UNL     1       2.399   0.030  -0.021  0.00  0.00    +0.120 A 
ATOM     17  C   UNL     1       1.207  -0.680  -0.013  0.00  0.00    -0.003 A 
ATOM     18  C   UNL     1       0.002  -0.004   0.002  0.00  0.00    +0.007 A 
BRANCH  16  19
ATOM     19  O   UNL     1       3.586  -0.632  -0.037  0.00  0.00    -0.506 OA
ATOM     20  H   UNL     1       3.938  -0.829   0.842  0.00  0.00    +0.292 HD
ENDBRANCH  16  19
ENDBRANCH   1  17
BRANCH  10  21
ATOM     21  C   UNL     1       2.498  -7.086   2.101  0.00  0.00    +0.012 A 
ATOM     22  C   UNL     1       3.442  -6.399   2.840  0.00  0.00    +0.009 A 
ATOM     23  C   UNL     1       4.616  -7.024   3.217  0.00  0.00    +0.001 A 
ATOM     24  C   UNL     1       4.848  -8.339   2.856  0.00  0.00    +0.004 A 
ATOM     25  C   UNL     1       3.908  -9.030   2.118  0.00  0.00    +0.046 A 
ATOM     26  C   UNL     1       2.727  -8.406   1.743  0.00  0.00    +0.122 A 
BRANCH  26  27
ATOM     27  O   UNL     1       1.797  -9.086   1.021  0.00  0.00    -0.506 OA
ATOM     28  H   UNL     1       1.912  -9.013   0.064  0.00  0.00    +0.292 HD
ENDBRANCH  26  27
ENDBRANCH  10  21
TORSDOF 4
