REMARK  Name = ZINC55071483
REMARK  7 active torsions:
REMARK  status: ('A' for Active; 'I' for Inactive)
REMARK    1  A    between atoms: C_1  and  C_2
REMARK    2  A    between atoms: C_2  and  C_3
REMARK    3  A    between atoms: C_3  and  C_5
REMARK    4  A    between atoms: C_3  and  N_6
REMARK    5  A    between atoms: N_9  and  C_12
REMARK    6  A    between atoms: C_12  and  C_13
REMARK    7  A    between atoms: C_16  and  C_22
REMARK                            x       y       z     vdW  Elec       q    Type
REMARK                         _______ _______ _______ _____ _____    ______ ____
ROOT
ATOM      1  N   UNL     1       1.978   0.018  -1.231  0.00  0.00    +0.383 N 
ATOM      2  C   UNL     1       1.964   1.468  -0.996  0.00  0.00    -0.063 C 
ATOM      3  C   UNL     1       3.399   1.999  -0.998  0.00  0.00    +0.066 C 
ATOM      4  N   UNL     1       4.027   1.701  -2.294  0.00  0.00    -0.305 NA
ATOM      5  C   UNL     1       4.025   0.255  -2.554  0.00  0.00    +0.066 C 
ATOM      6  C   UNL     1       2.585  -0.262  -2.539  0.00  0.00    -0.063 C 
ATOM      7  H   UNL     1       2.516  -0.434  -0.507  0.00  0.00    -0.081 HD
ENDROOT
BRANCH   1   8
ATOM      8  C   UNL     1       0.601  -0.494  -1.211  0.00  0.00    -0.072 C 
ATOM      9  C   UNL     1      -0.175   0.083  -2.396  0.00  0.00    -0.013 C 
BRANCH   8  11
ATOM     10  C   UNL     1       1.283  -2.603  -0.058  0.00  0.00    +0.002 C 
ATOM     11  C   UNL     1       0.624  -2.021  -1.310  0.00  0.00    -0.019 C 
ENDBRANCH   8  11
ENDBRANCH   1   8
BRANCH   4  12
ATOM     12  C   UNL     1       5.389   2.246  -2.356  0.00  0.00    +0.095 C 
BRANCH  12  13
ATOM     13  C   UNL     1       5.916   2.139  -3.789  0.00  0.00    +0.069 C 
ATOM     14  C   UNL     1       7.377   2.599  -3.836  0.00  0.00    +0.015 C 
ATOM     15  C   UNL     1       7.856   2.624  -5.288  0.00  0.00    -0.013 C 
ATOM     16  C   UNL     1       7.053   3.657  -6.081  0.00  0.00    +0.011 C 
ATOM     17  C   UNL     1       5.580   3.237  -6.118  0.00  0.00    +0.075 C 
ATOM     18  C   UNL     1       5.098   3.028  -4.699  0.00  0.00    +0.138 C 
ATOM     19  O   UNL     1       4.090   3.561  -4.301  0.00  0.00    -0.297 OA
ATOM     20  C   UNL     1       9.339   2.996  -5.328  0.00  0.00    +0.007 C 
ENDBRANCH  12  13
ENDBRANCH   4  12
TORSDOF 4
