REMARK  Name = ZINC13165203
REMARK  15 active torsions:
REMARK  status: ('A' for Active; 'I' for Inactive)
REMARK    1  A    between atoms: C_1  and  C_2
REMARK    2  A    between atoms: C_2  and  O_3
REMARK    3  A    between atoms: O_3  and  C_4
REMARK    4  A    between atoms: C_4  and  C_6
REMARK    5  A    between atoms: C_7  and  C_29
REMARK    6  A    between atoms: C_10  and  N_11
REMARK    7  A    between atoms: C_12  and  C_14
REMARK    8  A    between atoms: C_14  and  O_15
REMARK    9  A    between atoms: O_15  and  C_16
REMARK   10  A    between atoms: C_16  and  C_18
REMARK   11  A    between atoms: C_22  and  S_24
REMARK   12  A    between atoms: S_24  and  N_27
REMARK   13  A    between atoms: C_29  and  C_30
REMARK   14  A    between atoms: C_30  and  C_31
REMARK   15  A    between atoms: C_30  and  C_32
REMARK                            x       y       z     vdW  Elec       q    Type
REMARK                         _______ _______ _______ _____ _____    ______ ____
ROOT
ATOM      1  N   UNL     1       2.295   2.036   0.902  0.00  0.00    -0.277 N 
ATOM      2  C   UNL     1       3.248   2.990   0.918  0.00  0.00    +0.255 C 
ATOM      3  O   UNL     1       2.937   4.159   0.838  0.00  0.00    -0.272 OA
ATOM      4  H   UNL     1       2.544   1.101   0.966  0.00  0.00    +0.155 HD
ENDROOT
BRANCH   1   9
ATOM      5  C   UNL     1      -0.156   1.562   0.762  0.00  0.00    +0.091 A 
ATOM      6  C   UNL     1      -1.441   2.208   0.638  0.00  0.00    -0.024 A 
ATOM      7  C   UNL     1      -1.450   3.552   0.576  0.00  0.00    +0.051 A 
ATOM      8  S   UNL     1       0.276   3.978   0.669  0.00  0.00    -0.081 S 
ATOM      9  C   UNL     1       0.960   2.392   0.795  0.00  0.00    +0.086 A 
BRANCH   5  10
ATOM     10  C   UNL     1      -0.032   0.106   0.844  0.00  0.00    +0.342 C 
ATOM     11  O   UNL     1      -0.130  -0.454   1.920  0.00  0.00    -0.245 OA
BRANCH  10  12
ATOM     12  O   UNL     1       0.190  -0.616  -0.273  0.00  0.00    -0.461 OA
BRANCH  12  14
ATOM     13  C   UNL     1       0.550  -2.699  -1.483  0.00  0.00    +0.048 C 
ATOM     14  C   UNL     1       0.301  -2.055  -0.117  0.00  0.00    +0.229 C 
ENDBRANCH  12  14
ENDBRANCH  10  12
ENDBRANCH   5  10
BRANCH   6  15
ATOM     15  C   UNL     1      -2.719   1.411   0.586  0.00  0.00    +0.039 C 
BRANCH  15  16
ATOM     16  C   UNL     1      -2.941   0.897  -0.838  0.00  0.00    -0.013 C 
ATOM     17  C   UNL     1      -4.161  -0.026  -0.863  0.00  0.00    +0.007 C 
ATOM     18  C   UNL     1      -3.178   2.081  -1.777  0.00  0.00    +0.007 C 
ENDBRANCH  15  16
ENDBRANCH   6  15
ENDBRANCH   1   9
BRANCH   2  19
ATOM     19  C   UNL     1       4.700   2.603   1.034  0.00  0.00    +0.328 C 
BRANCH  19  20
ATOM     20  O   UNL     1       5.522   3.799   1.029  0.00  0.00    -0.452 OA
BRANCH  20  21
ATOM     21  C   UNL     1       6.854   3.627   1.127  0.00  0.00    +0.340 C 
ATOM     22  O   UNL     1       7.317   2.507   1.214  0.00  0.00    -0.245 OA
BRANCH  21  23
ATOM     23  C   UNL     1       7.753   4.798   1.128  0.00  0.00    +0.061 A 
ATOM     24  C   UNL     1       7.224   6.087   1.021  0.00  0.00    +0.016 A 
ATOM     25  C   UNL     1       8.068   7.178   1.028  0.00  0.00    +0.023 A 
ATOM     26  C   UNL     1       9.438   6.997   1.128  0.00  0.00    +0.067 A 
ATOM     27  C   UNL     1       9.968   5.721   1.229  0.00  0.00    +0.124 A 
ATOM     28  C   UNL     1       9.134   4.623   1.229  0.00  0.00    +0.045 A 
ATOM     29 CL   UNL     1      10.494   8.374   1.129  0.00  0.00    -0.082 Cl
BRANCH  27  30
ATOM     30  S   UNL     1      11.711   5.502   1.357  0.00  0.00    +0.057 S 
ATOM     31  O   UNL     1      12.159   6.391   2.370  0.00  0.00    -0.153 OA
ATOM     32  O   UNL     1      11.941   4.100   1.417  0.00  0.00    -0.153 OA
BRANCH  30  33
ATOM     33  N   UNL     1      12.377   6.030  -0.064  0.00  0.00    -0.203 NA
ATOM     34  H   UNL     1      13.272   6.404  -0.071  0.00  0.00    +0.144 HD
ATOM     35  H   UNL     1      11.872   5.965  -0.890  0.00  0.00    +0.144 HD
ENDBRANCH  30  33
ENDBRANCH  27  30
ENDBRANCH  21  23
ENDBRANCH  20  21
ENDBRANCH  19  20
ENDBRANCH   2  19
TORSDOF 12
