REMARK  Name = ZINC13500978
REMARK  12 active torsions:
REMARK  status: ('A' for Active; 'I' for Inactive)
REMARK    1  A    between atoms: C_1  and  C_2
REMARK    2  A    between atoms: C_2  and  C_3
REMARK    3  A    between atoms: C_3  and  C_4
REMARK    4  A    between atoms: C_4  and  C_6
REMARK    5  A    between atoms: C_4  and  N_72
REMARK    6  A    between atoms: N_10  and  C_11
REMARK    7  A    between atoms: C_16  and  C_17
REMARK    8  A    between atoms: C_16  and  N_72
REMARK    9  A    between atoms: C_17  and  C_18
REMARK   10  A    between atoms: C_24  and  C_25
REMARK   11  A    between atoms: C_24  and  N_72
REMARK   12  A    between atoms: C_31  and  C_37
REMARK                            x       y       z     vdW  Elec       q    Type
REMARK                         _______ _______ _______ _____ _____    ______ ____
ROOT
ATOM      1  N   UNL     1       0.093  -0.120  -0.353  0.00  0.00    +0.389 N 
ATOM      2  H   UNL     1       0.308  -0.716  -1.161  0.00  0.00    -0.080 HD
ENDROOT
BRANCH   1   3
ATOM      3  C   UNL     1       0.196   1.297  -0.760  0.00  0.00    +0.003 C 
BRANCH   3   4
ATOM      4  C   UNL     1       0.060   2.203   0.436  0.00  0.00    +0.138 A 
ATOM      5  N   UNL     1       0.686   2.085   1.582  0.00  0.00    -0.115 NA
ATOM      6  N   UNL     1       0.303   3.049   2.345  0.00  0.00    -0.023 NA
ATOM      7  N   UNL     1      -0.552   3.779   1.717  0.00  0.00    -0.044 NA
ATOM      8  N   UNL     1      -0.724   3.292   0.535  0.00  0.00    -0.228 N 
BRANCH   8   9
ATOM      9  C   UNL     1      -1.610   3.823  -0.504  0.00  0.00    +0.111 C 
ATOM     10  C   UNL     1      -1.227   5.282  -0.830  0.00  0.00    +0.027 C 
ATOM     11  C   UNL     1      -2.585   5.983  -1.084  0.00  0.00    +0.002 C 
ATOM     12  C   UNL     1      -3.511   5.328  -0.029  0.00  0.00    +0.002 C 
ATOM     13  C   UNL     1      -3.062   3.852   0.005  0.00  0.00    +0.027 C 
ENDBRANCH   8   9
ENDBRANCH   3   4
BRANCH   3  14
ATOM     14  C   UNL     1       1.559   1.524  -1.419  0.00  0.00    -0.008 C 
BRANCH  14  16
ATOM     15  C   UNL     1       3.073   0.793  -3.267  0.00  0.00    +0.004 C 
ATOM     16  C   UNL     1       1.670   0.654  -2.673  0.00  0.00    -0.005 C 
ENDBRANCH  14  16
ENDBRANCH   3  14
ENDBRANCH   1   3
BRANCH   1  17
ATOM     17  C   UNL     1      -1.280  -0.414   0.109  0.00  0.00    -0.073 C 
BRANCH  17  18
ATOM     18  C   UNL     1      -2.218  -0.407  -1.100  0.00  0.00    +0.016 C 
BRANCH  18  19
ATOM     19  C   UNL     1      -3.611  -0.773  -0.656  0.00  0.00    -0.049 A 
ATOM     20  C   UNL     1      -3.976  -2.102  -0.550  0.00  0.00    +0.003 A 
ATOM     21  C   UNL     1      -5.253  -2.437  -0.139  0.00  0.00    +0.000 A 
ATOM     22  C   UNL     1      -6.167  -1.443   0.156  0.00  0.00    +0.000 A 
ATOM     23  C   UNL     1      -5.803  -0.114   0.045  0.00  0.00    +0.000 A 
ATOM     24  C   UNL     1      -4.525   0.221  -0.361  0.00  0.00    +0.003 A 
ENDBRANCH  18  19
ENDBRANCH  17  18
ENDBRANCH   1  17
BRANCH   1  25
ATOM     25  C   UNL     1       1.062  -0.407   0.727  0.00  0.00    -0.037 C 
BRANCH  25  26
ATOM     26  C   UNL     1       1.236  -1.900   0.836  0.00  0.00    +0.001 A 
ATOM     27  C   UNL     1       2.229  -2.516   0.150  0.00  0.00    +0.017 A 
ATOM     28  C   UNL     1       2.374  -3.967   0.281  0.00  0.00    -0.001 A 
ATOM     29  C   UNL     1       3.384  -4.658  -0.398  0.00  0.00    +0.010 A 
ATOM     30  C   UNL     1       3.489  -6.012  -0.258  0.00  0.00    +0.001 A 
ATOM     31  C   UNL     1       2.603  -6.710   0.552  0.00  0.00    +0.005 A 
ATOM     32  C   UNL     1       1.601  -6.050   1.230  0.00  0.00    -0.026 A 
ATOM     33  C   UNL     1       1.474  -4.671   1.103  0.00  0.00    +0.052 A 
ATOM     34  N   UNL     1       0.482  -3.985   1.770  0.00  0.00    -0.322 N 
ATOM     35  H   UNL     1      -0.138  -4.472   2.336  0.00  0.00    +0.169 HD
ATOM     36  C   UNL     1       0.360  -2.652   1.648  0.00  0.00    +0.251 A 
ATOM     37  O   UNL     1      -0.530  -2.079   2.252  0.00  0.00    -0.268 OA
ATOM     38  C   UNL     1       0.647  -6.820   2.106  0.00  0.00    +0.046 C 
ENDBRANCH  25  26
ENDBRANCH   1  25
TORSDOF 10
