REMARK  Name = ZINC12039562
REMARK  14 active torsions:
REMARK  status: ('A' for Active; 'I' for Inactive)
REMARK    1  A    between atoms: C_1  and  C_2
REMARK    2  A    between atoms: C_2  and  C_3
REMARK    3  A    between atoms: C_6  and  C_9
REMARK    4  A    between atoms: C_9  and  N_72
REMARK    5  A    between atoms: C_15  and  C_19
REMARK    6  A    between atoms: C_19  and  C_21
REMARK    7  A    between atoms: C_19  and  N_25
REMARK    8  A    between atoms: C_21  and  C_22
REMARK    9  A    between atoms: C_22  and  C_23
REMARK   10  A    between atoms: C_22  and  C_24
REMARK   11  A    between atoms: C_26  and  C_28
REMARK   12  A    between atoms: C_31  and  C_33
REMARK   13  A    between atoms: C_33  and  O_34
REMARK   14  A    between atoms: O_34  and  C_35
REMARK                            x       y       z     vdW  Elec       q    Type
REMARK                         _______ _______ _______ _____ _____    ______ ____
ROOT
ATOM      1  C   UNL     1      -2.020   1.445   5.923  0.00  0.00    -0.071 C 
ATOM      2  C   UNL     1      -3.175   0.734   6.633  0.00  0.00    +0.058 C 
ATOM      3  C   UNL     1      -2.799   0.516   8.076  0.00  0.00    +0.132 A 
ATOM      4  N   UNL     1      -2.945  -0.567   8.782  0.00  0.00    -0.134 NA
ATOM      5  N   UNL     1      -2.538  -0.354   9.986  0.00  0.00    -0.132 NA
ATOM      6  C   UNL     1      -2.109   0.875  10.095  0.00  0.00    +0.154 A 
ATOM      7  N   UNL     1      -2.251   1.456   8.885  0.00  0.00    -0.315 N 
ATOM      8  C   UNL     1      -1.884   2.818   8.496  0.00  0.00    +0.106 C 
ATOM      9  C   UNL     1      -2.783   3.270   7.341  0.00  0.00    -0.056 C 
ATOM     10  N   UNL     1      -2.143   2.914   6.054  0.00  0.00    +0.384 N 
ATOM     11  H   UNL     1      -1.204   3.328   6.027  0.00  0.00    -0.081 HD
ENDROOT
BRANCH  10  12
ATOM     12  C   UNL     1      -2.935   3.452   4.933  0.00  0.00    -0.043 C 
BRANCH  12  16
ATOM     13  C   UNL     1      -0.729   2.905   1.316  0.00  0.00    -0.048 A 
ATOM     14  C   UNL     1      -0.549   4.051   2.068  0.00  0.00    +0.004 A 
ATOM     15  C   UNL     1      -1.266   4.230   3.237  0.00  0.00    +0.002 A 
ATOM     16  C   UNL     1      -2.156   3.259   3.657  0.00  0.00    -0.064 A 
ATOM     17  C   UNL     1      -2.331   2.111   2.908  0.00  0.00    +0.002 A 
ATOM     18  C   UNL     1      -1.617   1.934   1.737  0.00  0.00    +0.004 A 
BRANCH  13  20
ATOM     19  C   UNL     1      -0.743   3.292  -1.133  0.00  0.00    +0.009 C 
ATOM     20  C   UNL     1       0.050   2.713   0.040  0.00  0.00    +0.032 C 
ENDBRANCH  13  20
ENDBRANCH  12  16
ENDBRANCH  10  12
BRANCH   6  21
ATOM     21  C   UNL     1      -1.558   1.523  11.339  0.00  0.00    +0.142 C 
BRANCH  21  22
ATOM     22  N   UNL     1      -2.414   1.194  12.482  0.00  0.00    -0.299 N 
ATOM     23  C   UNL     1      -2.397   1.972  13.582  0.00  0.00    +0.280 C 
ATOM     24  O   UNL     1      -1.744   2.999  13.592  0.00  0.00    -0.267 OA
ATOM     25  H   UNL     1      -2.992   0.417  12.446  0.00  0.00    +0.150 HD
BRANCH  23  26
ATOM     26  C   UNL     1      -3.167   1.581  14.768  0.00  0.00    +0.190 A 
ATOM     27  C   UNL     1      -3.233   2.271  15.944  0.00  0.00    +0.055 A 
ATOM     28  C   UNL     1      -4.080   1.540  16.793  0.00  0.00    +0.048 A 
ATOM     29  C   UNL     1      -4.480   0.446  16.109  0.00  0.00    +0.131 A 
ATOM     30  O   UNL     1      -3.928   0.474  14.889  0.00  0.00    -0.453 OA
BRANCH  29  31
ATOM     31  C   UNL     1      -5.397  -0.629  16.633  0.00  0.00    +0.233 C 
BRANCH  31  32
ATOM     32  O   UNL     1      -6.752  -0.288  16.332  0.00  0.00    -0.375 OA
ATOM     33  C   UNL     1      -7.708  -1.247  16.787  0.00  0.00    +0.194 C 
ENDBRANCH  31  32
ENDBRANCH  29  31
ENDBRANCH  23  26
ENDBRANCH  21  22
BRANCH  21  34
ATOM     34  C   UNL     1      -0.141   1.007  11.598  0.00  0.00    +0.033 C 
BRANCH  34  35
ATOM     35  C   UNL     1       0.777   1.439  10.453  0.00  0.00    -0.015 C 
ATOM     36  C   UNL     1       0.926   2.962  10.465  0.00  0.00    +0.007 C 
ATOM     37  C   UNL     1       2.152   0.791  10.628  0.00  0.00    +0.007 C 
ENDBRANCH  34  35
ENDBRANCH  21  34
ENDBRANCH   6  21
TORSDOF 10
