REMARK  Name = ZINC63251803
REMARK  6 active torsions:
REMARK  status: ('A' for Active; 'I' for Inactive)
REMARK    1  A    between atoms: C_4  and  C_7
REMARK    2  A    between atoms: C_7  and  C_8
REMARK    3  A    between atoms: C_8  and  N_9
REMARK    4  A    between atoms: C_12  and  N_15
REMARK    5  A    between atoms: N_15  and  C_16
REMARK    6  A    between atoms: C_24  and  N_31
REMARK                            x       y       z     vdW  Elec       q    Type
REMARK                         _______ _______ _______ _____ _____    ______ ____
ROOT
ATOM      1  N   UNL     1       9.466  -2.823   2.002  0.00  0.00    -0.308 NA
ATOM      2  H   UNL     1       9.253  -3.780   1.763  0.00  0.00    +0.123 HD
ENDROOT
BRANCH   1   3
ATOM      3  C   UNL     1      10.236  -2.753   3.252  0.00  0.00    +0.080 C 
ATOM      4  C   UNL     1      11.141  -1.516   3.230  0.00  0.00    +0.021 C 
ATOM      5  C   UNL     1      12.029  -1.502   1.988  0.00  0.00    +0.006 C 
ATOM      6  C   UNL     1      12.986  -2.707   2.008  0.00  0.00    +0.033 C 
ATOM      7  C   UNL     1      12.135  -3.928   2.249  0.00  0.00    -0.037 C 
ATOM      8  C   UNL     1      12.054  -5.088   1.608  0.00  0.00    +0.001 A 
ATOM      9  C   UNL     1      12.845  -5.655   0.504  0.00  0.00    +0.042 A 
ATOM     10  C   UNL     1      12.467  -6.885   0.067  0.00  0.00    +0.127 A 
ATOM     11  C   UNL     1      11.395  -7.599   0.611  0.00  0.00    +0.035 A 
ATOM     12  C   UNL     1      10.620  -7.159   1.634  0.00  0.00    +0.028 A 
ATOM     13  C   UNL     1      10.926  -5.881   2.185  0.00  0.00    +0.043 A 
ATOM     14  N   UNL     1      10.373  -5.236   3.170  0.00  0.00    -0.376 N 
ATOM     15  C   UNL     1      11.114  -3.998   3.385  0.00  0.00    +0.123 C 
ATOM     16  H   UNL     1       9.600  -5.528   3.678  0.00  0.00    +0.160 HD
BRANCH  10  17
ATOM     17  N   UNL     1      13.230  -7.500  -1.042  0.00  0.00    +0.056 N 
ATOM     18  O   UNL     1      14.163  -6.910  -1.535  0.00  0.00    -0.126 OA
ATOM     19  O   UNL     1      12.920  -8.594  -1.456  0.00  0.00    -0.126 OA
ENDBRANCH  10  17
ENDBRANCH   1   3
BRANCH   1  23
ATOM     20  N   UNL     1       5.453  -1.680   1.382  0.00  0.00    +0.380 N 
ATOM     21  C   UNL     1       6.484  -0.824   0.782  0.00  0.00    -0.077 C 
ATOM     22  C   UNL     1       7.802  -1.595   0.688  0.00  0.00    -0.000 C 
ATOM     23  C   UNL     1       8.241  -2.017   2.093  0.00  0.00    +0.050 C 
ATOM     24  C   UNL     1       7.128  -2.848   2.737  0.00  0.00    -0.000 C 
ATOM     25  C   UNL     1       5.835  -2.031   2.755  0.00  0.00    -0.077 C 
ATOM     26  H   UNL     1       5.359  -2.523   0.835  0.00  0.00    -0.082 HD
BRANCH  20  27
ATOM     27  C   UNL     1       4.171  -0.963   1.399  0.00  0.00    -0.074 C 
BRANCH  27  28
ATOM     28  C   UNL     1       3.711  -0.707  -0.038  0.00  0.00    +0.016 C 
BRANCH  28  32
ATOM     29  C   UNL     1      -0.017   1.378   0.010  0.00  0.00    +0.000 A 
ATOM     30  C   UNL     1       1.171   2.086   0.002  0.00  0.00    +0.000 A 
ATOM     31  C   UNL     1       2.377   1.411  -0.013  0.00  0.00    +0.003 A 
ATOM     32  C   UNL     1       2.396   0.029  -0.020  0.00  0.00    -0.049 A 
ATOM     33  C   UNL     1       1.208  -0.679  -0.012  0.00  0.00    +0.003 A 
ATOM     34  C   UNL     1       0.002  -0.004   0.002  0.00  0.00    +0.000 A 
ENDBRANCH  28  32
ENDBRANCH  27  28
ENDBRANCH  20  27
ENDBRANCH   1  23
TORSDOF 6
