REMARK  Name = ZINC08445387
REMARK  14 active torsions:
REMARK  status: ('A' for Active; 'I' for Inactive)
REMARK    1  A    between atoms: C_1  and  C_2
REMARK    2  A    between atoms: C_2  and  O_3
REMARK    3  A    between atoms: O_3  and  C_4
REMARK    4  A    between atoms: C_4  and  C_6
REMARK    5  A    between atoms: C_6  and  C_7
REMARK    6  A    between atoms: C_6  and  N_11
REMARK    7  A    between atoms: C_6  and  N_29
REMARK    8  A    between atoms: N_11  and  C_12
REMARK    9  A    between atoms: C_15  and  S_18
REMARK   10  A    between atoms: S_18  and  N_21
REMARK   11  A    between atoms: N_21  and  C_22
REMARK   12  A    between atoms: C_23  and  C_28
REMARK   13  A    between atoms: C_24  and  C_27
REMARK   14  A    between atoms: C_30  and  C_32
REMARK                            x       y       z     vdW  Elec       q    Type
REMARK                         _______ _______ _______ _____ _____    ______ ____
ROOT
ATOM      1  C   UNL     1      -0.896   6.880   4.966  0.00  0.00    +0.029 A 
ATOM      2  C   UNL     1      -2.247   6.912   4.647  0.00  0.00    +0.025 A 
ATOM      3  C   UNL     1      -2.954   5.731   4.525  0.00  0.00    +0.030 A 
ATOM      4  C   UNL     1      -2.318   4.519   4.720  0.00  0.00    +0.109 A 
ATOM      5  C   UNL     1      -0.973   4.484   5.043  0.00  0.00    +0.030 A 
ATOM      6  C   UNL     1      -0.259   5.661   5.161  0.00  0.00    +0.025 A 
ENDROOT
BRANCH   4   7
ATOM      7  S   UNL     1      -3.223   3.016   4.563  0.00  0.00    +0.075 S 
ATOM      8  O   UNL     1      -4.587   3.337   4.797  0.00  0.00    -0.150 OA
ATOM      9  O   UNL     1      -2.528   2.041   5.329  0.00  0.00    -0.150 OA
BRANCH   7  10
ATOM     10  N   UNL     1      -3.114   2.541   2.981  0.00  0.00    -0.183 N 
ATOM     11  H   UNL     1      -3.909   2.512   2.426  0.00  0.00    +0.177 HD
BRANCH  10  12
ATOM     12  C   UNL     1      -1.888   2.185   2.449  0.00  0.00    +0.240 A 
ATOM     13  C   UNL     1      -1.636   1.779   1.168  0.00  0.00    +0.035 A 
ATOM     14  C   UNL     1      -0.248   1.541   1.156  0.00  0.00    +0.085 A 
ATOM     15  N   UNL     1       0.187   1.815   2.354  0.00  0.00    -0.081 NA
ATOM     16  O   UNL     1      -0.706   2.174   3.086  0.00  0.00    -0.338 OA
ATOM     17  C   UNL     1       0.575   1.067  -0.015  0.00  0.00    +0.069 C 
ATOM     18  C   UNL     1      -2.615   1.621   0.034  0.00  0.00    +0.051 C 
ENDBRANCH  10  12
ENDBRANCH   7  10
ENDBRANCH   4   7
BRANCH   1  19
ATOM     19  N   UNL     1      -0.178   8.072   5.091  0.00  0.00    -0.307 N 
ATOM     20  H   UNL     1      -0.617   8.921   4.928  0.00  0.00    +0.149 HD
BRANCH  19  21
ATOM     21  C   UNL     1       1.238   8.038   5.467  0.00  0.00    +0.295 C 
BRANCH  21  22
ATOM     22  N   UNL     1       1.964   7.148   4.558  0.00  0.00    -0.279 N 
ATOM     23  C   UNL     1       3.291   6.970   4.707  0.00  0.00    +0.212 C 
ATOM     24  O   UNL     1       3.867   7.465   5.653  0.00  0.00    -0.276 OA
ATOM     25  C   UNL     1       4.060   6.155   3.699  0.00  0.00    +0.109 C 
ATOM     26  H   UNL     1       1.489   6.687   3.849  0.00  0.00    +0.152 HD
ENDBRANCH  21  22
BRANCH  21  27
ATOM     27  C   UNL     1       1.823   9.449   5.375  0.00  0.00    +0.438 C 
ATOM     28  F   UNL     1       1.043  10.328   6.133  0.00  0.00    -0.166 F 
ATOM     29  F   UNL     1       3.132   9.444   5.868  0.00  0.00    -0.166 F 
ATOM     30  F   UNL     1       1.830   9.865   4.039  0.00  0.00    -0.166 F 
ENDBRANCH  21  27
BRANCH  21  31
ATOM     31  C   UNL     1       1.370   7.531   6.880  0.00  0.00    +0.359 C 
ATOM     32  O   UNL     1       0.383   7.228   7.508  0.00  0.00    -0.246 OA
BRANCH  31  33
ATOM     33  O   UNL     1       2.584   7.415   7.440  0.00  0.00    -0.462 OA
BRANCH  33  35
ATOM     34  C   UNL     1       4.092   6.857   9.269  0.00  0.00    +0.048 C 
ATOM     35  C   UNL     1       2.636   6.919   8.804  0.00  0.00    +0.229 C 
ENDBRANCH  33  35
ENDBRANCH  31  33
ENDBRANCH  21  31
ENDBRANCH  19  21
ENDBRANCH   1  19
TORSDOF 10
