REMARK  Name = ZINC17143834
REMARK  5 active torsions:
REMARK  status: ('A' for Active; 'I' for Inactive)
REMARK    1  A    between atoms: C_1  and  O_2
REMARK    2  A    between atoms: O_2  and  C_3
REMARK    3  A    between atoms: C_3  and  C_5
REMARK    4  A    between atoms: C_6  and  N_27
REMARK    5  A    between atoms: C_19  and  C_21
REMARK                            x       y       z     vdW  Elec       q    Type
REMARK                         _______ _______ _______ _____ _____    ______ ____
ROOT
ATOM      1  C   UNL     1      -5.197   4.678  -0.334  0.00  0.00    +0.105 C 
ATOM      2  C   UNL     1      -4.859   3.370  -0.496  0.00  0.00    +0.195 C 
ATOM      3  O   UNL     1      -3.650   2.933  -0.129  0.00  0.00    -0.441 OA
ATOM      4  C   UNL     1      -2.572   3.780  -0.112  0.00  0.00    +0.146 A 
ATOM      5  C   UNL     1      -1.292   3.085  -0.314  0.00  0.00    +0.032 A 
ATOM      6  C   UNL     1      -1.299   1.692  -0.512  0.00  0.00    +0.012 A 
ATOM      7  C   UNL     1      -0.124   1.024  -0.694  0.00  0.00    +0.001 A 
ATOM      8  C   UNL     1       1.095   1.687  -0.701  0.00  0.00    +0.001 A 
ATOM      9  C   UNL     1       1.136   3.057  -0.515  0.00  0.00    +0.016 A 
ATOM     10  C   UNL     1      -0.048   3.738  -0.326  0.00  0.00    +0.026 A 
ATOM     11  S   UNL     1      -0.106   5.494  -0.081  0.00  0.00    -0.047 S 
ATOM     12  C   UNL     1      -1.771   6.092   0.133  0.00  0.00    +0.225 A 
ATOM     13  O   UNL     1      -2.022   7.273   0.314  0.00  0.00    -0.280 OA
ATOM     14  C   UNL     1      -2.789   5.099   0.079  0.00  0.00    +0.061 A 
ATOM     15  C   UNL     1      -4.197   5.633   0.251  0.00  0.00    +0.099 C 
ENDROOT
BRANCH  15  16
ATOM     16  C   UNL     1      -4.484   5.817   1.719  0.00  0.00    -0.035 A 
ATOM     17  C   UNL     1      -4.434   4.732   2.574  0.00  0.00    +0.004 A 
ATOM     18  C   UNL     1      -4.692   4.901   3.922  0.00  0.00    +0.000 A 
ATOM     19  C   UNL     1      -5.011   6.154   4.412  0.00  0.00    +0.000 A 
ATOM     20  C   UNL     1      -5.066   7.238   3.556  0.00  0.00    +0.000 A 
ATOM     21  C   UNL     1      -4.803   7.069   2.210  0.00  0.00    +0.004 A 
ENDBRANCH  15  16
BRANCH   2  22
ATOM     22  N   UNL     1      -5.764   2.496  -1.037  0.00  0.00    -0.329 N 
ATOM     23  H   UNL     1      -5.764   1.566  -0.761  0.00  0.00    +0.145 HD
ATOM     24  H   UNL     1      -6.404   2.807  -1.696  0.00  0.00    +0.145 HD
ENDBRANCH   2  22
BRANCH   1  25
ATOM     25  C   UNL     1      -6.470   5.131  -0.712  0.00  0.00    +0.341 C 
ATOM     26  O   UNL     1      -7.315   4.335  -1.082  0.00  0.00    -0.245 OA
BRANCH  25  28
ATOM     27  C   UNL     1      -8.074   6.840  -1.064  0.00  0.00    +0.280 C 
ATOM     28  O   UNL     1      -6.759   6.449  -0.665  0.00  0.00    -0.465 OA
ENDBRANCH  25  28
ENDBRANCH   1  25
TORSDOF 4
