REMARK  Name = ZINC13659388
REMARK  8 active torsions:
REMARK  status: ('A' for Active; 'I' for Inactive)
REMARK    1  A    between atoms: C_1  and  C_2
REMARK    2  A    between atoms: C_7  and  C_8
REMARK    3  A    between atoms: C_7  and  N_59
REMARK    4  A    between atoms: C_9  and  C_19
REMARK    5  A    between atoms: N_21  and  N_22
REMARK    6  A    between atoms: C_23  and  C_24
REMARK    7  A    between atoms: C_24  and  C_26
REMARK    8  A    between atoms: C_24  and  C_27
REMARK                            x       y       z     vdW  Elec       q    Type
REMARK                         _______ _______ _______ _____ _____    ______ ____
ROOT
ATOM      1  C   UNL     1      -0.497   5.389   0.046  0.00  0.00    +0.063 A 
ATOM      2  C   UNL     1       0.764   5.914   0.053  0.00  0.00    +0.170 A 
ATOM      3  N   UNL     1       1.647   4.901   0.040  0.00  0.00    -0.124 NA
ATOM      4  N   UNL     1       1.016   3.778   0.031  0.00  0.00    -0.058 NA
ATOM      5  N   UNL     1      -0.360   4.045   0.038  0.00  0.00    -0.194 N 
ATOM      6  C   UNL     1      -1.393   3.100   0.031  0.00  0.00    +0.240 A 
ATOM      7  C   UNL     1      -1.224   1.645   0.017  0.00  0.00    +0.206 A 
ATOM      8  N   UNL     1      -2.408   1.094   0.020  0.00  0.00    -0.032 NA
ATOM      9  O   UNL     1      -3.369   2.134   0.030  0.00  0.00    -0.239 OA
ATOM     10  N   UNL     1      -2.669   3.366   0.034  0.00  0.00    -0.027 NA
ATOM     11  N   UNL     1      -0.011   0.966   0.007  0.00  0.00    -0.337 N 
ATOM     12  H   UNL     1       0.002  -0.004   0.002  0.00  0.00    +0.144 HD
ATOM     13  H   UNL     1       0.822   1.462   0.002  0.00  0.00    +0.144 HD
ENDROOT
BRANCH   2  14
ATOM     14  C   UNL     1       1.100   7.350   0.067  0.00  0.00    +0.285 C 
ATOM     15  O   UNL     1       0.213   8.182   0.077  0.00  0.00    -0.267 OA
ATOM     16  N   UNL     1       2.390   7.740   0.067  0.00  0.00    -0.202 N 
ATOM     17  H   UNL     1       3.097   7.077   0.059  0.00  0.00    +0.178 HD
BRANCH  16  18
ATOM     18  N   UNL     1       2.709   9.105   0.080  0.00  0.00    -0.192 NA
ATOM     19  C   UNL     1       3.934   9.475   0.081  0.00  0.00    +0.111 C 
BRANCH  19  20
ATOM     20  C   UNL     1       4.277  10.943   0.094  0.00  0.00    +0.059 C 
ATOM     21  C   UNL     1       5.093  11.288  -1.154  0.00  0.00    +0.018 C 
BRANCH  20  22
ATOM     22  C   UNL     1       5.087  11.258   1.326  0.00  0.00    -0.039 A 
ATOM     23  C   UNL     1       6.297  10.625   1.538  0.00  0.00    +0.004 A 
ATOM     24  C   UNL     1       7.041  10.917   2.666  0.00  0.00    +0.000 A 
ATOM     25  C   UNL     1       6.571  11.835   3.586  0.00  0.00    +0.000 A 
ATOM     26  C   UNL     1       5.358  12.465   3.376  0.00  0.00    +0.000 A 
ATOM     27  C   UNL     1       4.616  12.176   2.246  0.00  0.00    +0.004 A 
ENDBRANCH  20  22
ENDBRANCH  19  20
ENDBRANCH  16  18
ENDBRANCH   2  14
BRANCH   1  28
ATOM     28  C   UNL     1      -1.792   6.161   0.050  0.00  0.00    -0.020 C 
BRANCH  28  35
ATOM     29  C   UNL     1      -3.183   8.009   5.276  0.00  0.00    +0.007 C 
ATOM     30  C   UNL     1      -2.701   7.949   3.825  0.00  0.00    -0.018 C 
ATOM     31  C   UNL     1      -3.842   7.465   2.926  0.00  0.00    -0.016 C 
ATOM     32  C   UNL     1      -3.336   7.349   1.487  0.00  0.00    -0.078 C 
ATOM     33  C   UNL     1      -1.088   6.871   2.254  0.00  0.00    -0.078 C 
ATOM     34  C   UNL     1      -1.526   6.973   3.717  0.00  0.00    -0.016 C 
ATOM     35  N   UNL     1      -2.223   6.377   1.446  0.00  0.00    +0.383 N 
ATOM     36  H   UNL     1      -2.546   5.484   1.837  0.00  0.00    -0.081 HD
ENDBRANCH  28  35
ENDBRANCH   1  28
TORSDOF 6
