REMARK  Name = ZINC66986112
REMARK  4 active torsions:
REMARK  status: ('A' for Active; 'I' for Inactive)
REMARK    1  A    between atoms: C_3  and  C_23
REMARK    2  A    between atoms: N_7  and  C_8
REMARK    3  A    between atoms: C_8  and  C_9
REMARK    4  A    between atoms: C_9  and  N_10
REMARK                            x       y       z     vdW  Elec       q    Type
REMARK                         _______ _______ _______ _____ _____    ______ ____
ROOT
ATOM      1  N   UNL     1       4.776  -4.294  -0.065  0.00  0.00    -0.297 N 
ATOM      2  C   UNL     1       5.914  -5.016  -0.081  0.00  0.00    +0.307 C 
ATOM      3  O   UNL     1       6.988  -4.456  -0.181  0.00  0.00    -0.252 OA
ATOM      4  N   UNL     1       5.861  -6.360   0.014  0.00  0.00    -0.255 N 
ATOM      5  C   UNL     1       4.629  -7.153   0.026  0.00  0.00    +0.120 C 
ATOM      6  C   UNL     1       5.091  -8.614   0.147  0.00  0.00    +0.056 C 
ATOM      7  C   UNL     1       6.600  -8.534   0.196  0.00  0.00    -0.023 A 
ATOM      8  C   UNL     1       6.974  -7.202   0.109  0.00  0.00    +0.041 A 
ATOM      9  C   UNL     1       8.331  -6.876   0.128  0.00  0.00    +0.025 A 
ATOM     10  C   UNL     1       9.283  -7.867   0.229  0.00  0.00    +0.017 A 
ATOM     11  C   UNL     1       8.901  -9.194   0.312  0.00  0.00    +0.018 A 
ATOM     12  C   UNL     1       7.557  -9.524   0.301  0.00  0.00    +0.020 A 
ATOM     13 BR   UNL     1      10.210 -10.552   0.450  0.00  0.00    -0.050 Br
ATOM     14  H   UNL     1       3.916  -4.744  -0.059  0.00  0.00    +0.150 HD
ENDROOT
BRANCH   1  15
ATOM     15  C   UNL     1       4.837  -2.831  -0.058  0.00  0.00    +0.124 C 
BRANCH  15  16
ATOM     16  C   UNL     1       3.418  -2.261  -0.040  0.00  0.00    +0.121 C 
BRANCH  16  23
ATOM     17  C   UNL     1      -0.016   1.379   0.017  0.00  0.00    +0.021 A 
ATOM     18  C   UNL     1       1.179   2.077   0.008  0.00  0.00    +0.024 A 
ATOM     19  C   UNL     1       2.374   1.349  -0.008  0.00  0.00    +0.091 A 
ATOM     20  C   UNL     1       2.311  -0.055  -0.016  0.00  0.00    +0.136 A 
ATOM     21  N   UNL     1       1.140  -0.672  -0.007  0.00  0.00    -0.239 NA
ATOM     22  C   UNL     1       0.003  -0.004   0.009  0.00  0.00    +0.113 A 
ATOM     23  N   UNL     1       3.479  -0.797  -0.032  0.00  0.00    -0.327 N 
ATOM     24  H   UNL     1       4.339  -0.348  -0.038  0.00  0.00    +0.148 HD
BRANCH  19  25
ATOM     25  C   UNL     1       3.638   2.022  -0.018  0.00  0.00    +0.103 C 
ATOM     26  N   UNL     1       4.641   2.556  -0.026  0.00  0.00    -0.191 NA
ENDBRANCH  19  25
ENDBRANCH  16  23
ENDBRANCH  15  16
ENDBRANCH   1  15
TORSDOF 4
