REMARK  Name = ZINC21329547
REMARK  5 active torsions:
REMARK  status: ('A' for Active; 'I' for Inactive)
REMARK    1  A    between atoms: C_4  and  C_7
REMARK    2  A    between atoms: C_7  and  C_8
REMARK    3  A    between atoms: C_7  and  N_14
REMARK    4  A    between atoms: C_20  and  C_22
REMARK    5  A    between atoms: C_22  and  N_23
REMARK                            x       y       z     vdW  Elec       q    Type
REMARK                         _______ _______ _______ _____ _____    ______ ____
ROOT
ATOM      1  N   UNL     1      -5.429   3.539   2.148  0.00  0.00    -0.289 NA
ATOM      2  C   UNL     1      -4.695   2.928   3.264  0.00  0.00    +0.104 C 
ATOM      3  C   UNL     1      -3.191   3.121   3.048  0.00  0.00    +0.123 C 
ATOM      4  N   UNL     1      -2.840   2.605   1.716  0.00  0.00    -0.298 N 
ATOM      5  C   UNL     1      -3.621   3.073   0.560  0.00  0.00    +0.123 C 
ATOM      6  C   UNL     1      -5.112   2.877   0.875  0.00  0.00    +0.104 C 
ATOM      7  C   UNL     1      -1.827   1.730   1.557  0.00  0.00    +0.234 C 
ATOM      8  O   UNL     1      -1.190   1.358   2.521  0.00  0.00    -0.274 OA
ENDROOT
BRANCH   1   9
ATOM      9  C   UNL     1      -6.877   3.528   2.401  0.00  0.00    +0.117 C 
BRANCH   9  13
ATOM     10  C   UNL     1      -7.697   5.557   6.069  0.00  0.00    +0.000 A 
ATOM     11  C   UNL     1      -8.325   4.359   5.787  0.00  0.00    +0.000 A 
ATOM     12  C   UNL     1      -8.060   3.702   4.599  0.00  0.00    +0.005 A 
ATOM     13  C   UNL     1      -7.166   4.244   3.695  0.00  0.00    -0.026 A 
ATOM     14  C   UNL     1      -6.533   5.439   3.980  0.00  0.00    +0.005 A 
ATOM     15  C   UNL     1      -6.802   6.099   5.164  0.00  0.00    +0.000 A 
ENDBRANCH   9  13
BRANCH   9  16
ATOM     16  C   UNL     1      -7.589   4.224   1.271  0.00  0.00    -0.026 A 
ATOM     17  C   UNL     1      -7.101   5.420   0.778  0.00  0.00    +0.005 A 
ATOM     18  C   UNL     1      -7.752   6.057  -0.262  0.00  0.00    +0.000 A 
ATOM     19  C   UNL     1      -8.897   5.503  -0.802  0.00  0.00    +0.000 A 
ATOM     20  C   UNL     1      -9.389   4.310  -0.306  0.00  0.00    +0.000 A 
ATOM     21  C   UNL     1      -8.735   3.671   0.730  0.00  0.00    +0.005 A 
ENDBRANCH   9  16
ENDBRANCH   1   9
BRANCH   7  22
ATOM     22  C   UNL     1      -1.485   1.214   0.183  0.00  0.00    +0.213 C 
BRANCH  22  23
ATOM     23  N   UNL     1      -0.356   0.285   0.278  0.00  0.00    -0.215 N 
ATOM     24  C   UNL     1      -0.482  -1.046   0.469  0.00  0.00    +0.247 C 
ATOM     25  O   UNL     1      -1.509  -1.677   0.595  0.00  0.00    -0.273 OA
ATOM     26  C   UNL     1       0.928  -1.580   0.492  0.00  0.00    +0.113 C 
ATOM     27  C   UNL     1       1.146  -2.608  -0.626  0.00  0.00    +0.035 C 
ATOM     28  C   UNL     1       2.120  -3.640  -0.001  0.00  0.00    +0.003 C 
ATOM     29  C   UNL     1       1.637  -3.724   1.469  0.00  0.00    +0.003 C 
ATOM     30  C   UNL     1       1.238  -2.273   1.821  0.00  0.00    +0.035 C 
ATOM     31  N   UNL     1       1.770  -0.398   0.295  0.00  0.00    -0.285 N 
ATOM     32  C   UNL     1       0.929   0.649   0.180  0.00  0.00    +0.310 C 
ATOM     33  O   UNL     1       1.296   1.795   0.006  0.00  0.00    -0.252 OA
ATOM     34  H   UNL     1       2.865  -0.502   0.270  0.00  0.00    +0.151 HD
ENDBRANCH  22  23
ENDBRANCH   7  22
TORSDOF 5
