REMARK  Name = ZINC28711450
REMARK  11 active torsions:
REMARK  status: ('A' for Active; 'I' for Inactive)
REMARK    1  A    between atoms: C_1  and  C_2
REMARK    2  A    between atoms: C_2  and  C_3
REMARK    3  A    between atoms: C_2  and  N_4
REMARK    4  A    between atoms: N_4  and  C_5
REMARK    5  A    between atoms: C_5  and  C_6
REMARK    6  A    between atoms: C_6  and  C_8
REMARK    7  A    between atoms: C_6  and  O_34
REMARK    8  A    between atoms: C_11  and  C_14
REMARK    9  A    between atoms: C_17  and  N_21
REMARK   10  A    between atoms: C_23  and  C_28
REMARK   11  A    between atoms: C_28  and  N_29
REMARK                            x       y       z     vdW  Elec       q    Type
REMARK                         _______ _______ _______ _____ _____    ______ ____
ROOT
ATOM      1  C   UNL     1       0.036  -2.776  -0.013  0.00  0.00    +0.019 A 
ATOM      2  C   UNL     1      -1.173  -2.093   0.107  0.00  0.00    +0.013 A 
ATOM      3  C   UNL     1      -1.187  -0.715   0.120  0.00  0.00    +0.024 A 
ATOM      4  C   UNL     1       0.002  -0.004   0.002  0.00  0.00    +0.042 A 
ATOM      5  C   UNL     1       1.209  -0.680  -0.117  0.00  0.00    +0.062 A 
ATOM      6  C   UNL     1       1.230  -2.061  -0.125  0.00  0.00    +0.133 A 
ATOM      7  F   UNL     1       2.405  -2.720  -0.240  0.00  0.00    -0.205 F 
ENDROOT
BRANCH   1  11
ATOM      8  C   UNL     1       0.133  -6.980  -0.103  0.00  0.00    +0.068 A 
ATOM      9  C   UNL     1      -0.571  -6.365   0.916  0.00  0.00    +0.026 A 
ATOM     10  C   UNL     1      -0.618  -4.983   0.968  0.00  0.00    +0.012 A 
ATOM     11  C   UNL     1       0.055  -4.259  -0.020  0.00  0.00    +0.003 A 
ATOM     12  C   UNL     1       0.738  -4.953  -1.017  0.00  0.00    +0.119 A 
ATOM     13  N   UNL     1       0.759  -6.271  -1.022  0.00  0.00    -0.257 NA
BRANCH   8  14
ATOM     14  C   UNL     1       0.188  -8.485  -0.164  0.00  0.00    +0.146 C 
BRANCH  14  15
ATOM     15  O   UNL     1       1.533  -8.922   0.039  0.00  0.00    -0.388 OA
ATOM     16  H   UNL     1       2.057  -8.674   0.975  0.00  0.00    +0.210 HD
ENDBRANCH  14  15
BRANCH  14  17
ATOM     17  C   UNL     1      -0.301  -8.958  -1.534  0.00  0.00    -0.044 C 
BRANCH  17  18
ATOM     18  N   UNL     1      -0.361 -10.426  -1.552  0.00  0.00    +0.382 N 
ATOM     19  H   UNL     1      -1.054 -10.760  -0.766  0.00  0.00    -0.085 HD
ATOM     20  H   UNL     1       0.644 -10.823  -1.349  0.00  0.00    -0.085 HD
BRANCH  18  22
ATOM     21  C   UNL     1      -0.312 -12.341  -3.079  0.00  0.00    -0.014 C 
ATOM     22  C   UNL     1      -0.828 -10.917  -2.856  0.00  0.00    -0.078 C 
ATOM     23  C   UNL     1      -2.357 -10.919  -2.883  0.00  0.00    -0.014 C 
ENDBRANCH  18  22
ENDBRANCH  17  18
ENDBRANCH  14  17
ENDBRANCH   8  14
ENDBRANCH   1  11
BRANCH   4  24
ATOM     24  N   UNL     1      -0.017   1.394   0.010  0.00  0.00    -0.234 N 
ATOM     25  C   UNL     1      -1.225   2.233   0.003  0.00  0.00    +0.163 C 
ATOM     26  C   UNL     1      -0.673   3.672   0.019  0.00  0.00    +0.217 C 
ATOM     27  O   UNL     1       0.773   3.494   0.024  0.00  0.00    -0.443 OA
ATOM     28  C   UNL     1       1.063   2.188   0.018  0.00  0.00    +0.408 C 
ATOM     29  O   UNL     1       2.200   1.761   0.021  0.00  0.00    -0.226 OA
BRANCH  26  30
ATOM     30  C   UNL     1      -1.116   4.428  -1.235  0.00  0.00    +0.191 C 
BRANCH  30  31
ATOM     31  N   UNL     1      -0.600   5.798  -1.187  0.00  0.00    -0.248 N 
ATOM     32  C   UNL     1       0.158   6.394  -2.136  0.00  0.00    +0.130 A 
ATOM     33  C   UNL     1       0.406   7.647  -1.689  0.00  0.00    +0.156 A 
ATOM     34  N   UNL     1      -0.198   7.753  -0.500  0.00  0.00    -0.138 NA
ATOM     35  N   UNL     1      -0.785   6.641  -0.231  0.00  0.00    -0.066 NA
ENDBRANCH  30  31
ENDBRANCH  26  30
ENDBRANCH   4  24
TORSDOF 9
