REMARK  Name = ZINC25588937
REMARK  10 active torsions:
REMARK  status: ('A' for Active; 'I' for Inactive)
REMARK    1  A    between atoms: C_1  and  C_2
REMARK    2  A    between atoms: C_2  and  C_3
REMARK    3  A    between atoms: C_4  and  C_24
REMARK    4  A    between atoms: C_5  and  N_23
REMARK    5  A    between atoms: C_7  and  S_9
REMARK    6  A    between atoms: S_9  and  C_10
REMARK    7  A    between atoms: C_10  and  C_11
REMARK    8  A    between atoms: N_13  and  C_14
REMARK    9  A    between atoms: N_13  and  C_15
REMARK   10  A    between atoms: C_15  and  C_21
REMARK                            x       y       z     vdW  Elec       q    Type
REMARK                         _______ _______ _______ _____ _____    ______ ____
ROOT
ATOM      1  C   UNL     1       1.846  -6.655   2.936  0.00  0.00    +0.055 A 
ATOM      2  C   UNL     1       1.195  -7.173   1.818  0.00  0.00    +0.043 A 
ATOM      3  C   UNL     1       0.635  -6.270   0.895  0.00  0.00    +0.129 A 
ATOM      4  N   UNL     1       0.748  -4.967   1.124  0.00  0.00    -0.207 NA
ATOM      5  C   UNL     1       1.377  -4.520   2.202  0.00  0.00    +0.191 A 
ATOM      6  N   UNL     1       1.920  -5.343   3.089  0.00  0.00    -0.226 NA
ENDROOT
BRANCH   2   7
ATOM      7  C   UNL     1       1.095  -8.637   1.606  0.00  0.00    -0.013 A 
ATOM      8  C   UNL     1       0.368  -9.425   2.498  0.00  0.00    +0.010 A 
ATOM      9  C   UNL     1       0.274 -10.786   2.293  0.00  0.00    +0.020 A 
ATOM     10  C   UNL     1       0.908 -11.371   1.211  0.00  0.00    +0.041 A 
ATOM     11  C   UNL     1       1.635 -10.595   0.325  0.00  0.00    +0.020 A 
ATOM     12  C   UNL     1       1.732  -9.232   0.518  0.00  0.00    +0.010 A 
ATOM     13 CL   UNL     1       0.791 -13.086   0.963  0.00  0.00    -0.084 Cl
ENDBRANCH   2   7
BRANCH   3  14
ATOM     14  N   UNL     1      -0.022  -6.732  -0.231  0.00  0.00    -0.343 N 
ATOM     15  H   UNL     1      -0.457  -6.018  -0.946  0.00  0.00    +0.144 HD
ATOM     16  H   UNL     1      -0.111  -7.813  -0.411  0.00  0.00    +0.144 HD
ENDBRANCH   3  14
BRANCH   1  18
ATOM     17  C   UNL     1       3.915  -7.869   3.567  0.00  0.00    +0.010 C 
ATOM     18  C   UNL     1       2.464  -7.578   3.955  0.00  0.00    +0.053 C 
ENDBRANCH   1  18
BRANCH   5  19
ATOM     19  S   UNL     1       1.500  -2.782   2.462  0.00  0.00    -0.077 S 
BRANCH  19  20
ATOM     20  C   UNL     1       0.625  -2.182   0.995  0.00  0.00    +0.173 C 
BRANCH  20  21
ATOM     21  C   UNL     1       0.604  -0.675   1.004  0.00  0.00    +0.227 C 
ATOM     22  O   UNL     1       1.130  -0.067   1.911  0.00  0.00    -0.275 OA
ATOM     23  N   UNL     1       0.002  -0.004   0.002  0.00  0.00    -0.285 N 
ATOM     24  C   UNL     1      -0.633  -0.739  -1.095  0.00  0.00    +0.133 C 
BRANCH  23  25
ATOM     25  C   UNL     1      -0.018   1.461   0.010  0.00  0.00    +0.123 C 
ATOM     26  C   UNL     1      -0.734   1.954   1.269  0.00  0.00    +0.041 C 
ATOM     27  C   UNL     1      -0.755   3.484   1.277  0.00  0.00    +0.003 C 
ATOM     28  C   UNL     1      -1.495   3.991   0.038  0.00  0.00    +0.000 C 
ATOM     29  C   UNL     1      -0.778   3.497  -1.221  0.00  0.00    +0.003 C 
ATOM     30  C   UNL     1      -0.758   1.968  -1.230  0.00  0.00    +0.041 C 
BRANCH  25  31
ATOM     31  C   UNL     1       1.363   1.970  -0.000  0.00  0.00    +0.089 C 
ATOM     32  N   UNL     1       2.429   2.364  -0.008  0.00  0.00    -0.194 NA
ENDBRANCH  25  31
ENDBRANCH  23  25
ENDBRANCH  20  21
ENDBRANCH  19  20
ENDBRANCH   5  19
TORSDOF 8
