REMARK  Name = ZINC63162561
REMARK  5 active torsions:
REMARK  status: ('A' for Active; 'I' for Inactive)
REMARK    1  A    between atoms: C_1  and  C_2
REMARK    2  A    between atoms: C_2  and  C_3
REMARK    3  A    between atoms: C_2  and  N_13
REMARK    4  A    between atoms: N_16  and  C_17
REMARK    5  A    between atoms: C_19  and  C_25
REMARK                            x       y       z     vdW  Elec       q    Type
REMARK                         _______ _______ _______ _____ _____    ______ ____
ROOT
ATOM      1  N   UNL     1       0.657  -0.647   1.154  0.00  0.00    -0.290 N 
ATOM      2  C   UNL     1       0.010  -0.797   2.327  0.00  0.00    +0.305 C 
ATOM      3  O   UNL     1      -1.199  -0.676   2.374  0.00  0.00    -0.252 OA
ATOM      4  N   UNL     1       0.703  -1.080   3.447  0.00  0.00    -0.265 N 
ATOM      5  H   UNL     1       1.621  -0.743   1.116  0.00  0.00    +0.151 HD
ATOM      6  H   UNL     1       1.657  -1.249   3.398  0.00  0.00    +0.157 HD
ENDROOT
BRANCH   4   7
ATOM      7  C   UNL     1       0.045  -1.131   4.685  0.00  0.00    +0.100 A 
ATOM      8  C   UNL     1       0.075  -2.272   5.438  0.00  0.00    +0.042 A 
ATOM      9  C   UNL     1      -0.591  -2.295   6.672  0.00  0.00    +0.073 A 
ATOM     10  C   UNL     1      -1.252  -1.198   7.105  0.00  0.00    +0.098 A 
ATOM     11  N   UNL     1      -1.283  -0.063   6.358  0.00  0.00    -0.327 N 
ATOM     12  H   UNL     1      -1.763   0.714   6.685  0.00  0.00    +0.168 HD
ATOM     13  C   UNL     1      -0.650  -0.002   5.170  0.00  0.00    +0.270 A 
ATOM     14  O   UNL     1      -0.683   1.026   4.513  0.00  0.00    -0.266 OA
BRANCH   9  15
ATOM     15  C   UNL     1      -0.569  -3.544   7.516  0.00  0.00    +0.419 C 
ATOM     16  F   UNL     1      -1.296  -3.325   8.691  0.00  0.00    -0.166 F 
ATOM     17  F   UNL     1      -1.145  -4.600   6.801  0.00  0.00    -0.166 F 
ATOM     18  F   UNL     1       0.753  -3.866   7.839  0.00  0.00    -0.166 F 
ENDBRANCH   9  15
ENDBRANCH   4   7
BRANCH   1  20
ATOM     19  C   UNL     1      -0.316   1.172  -0.160  0.00  0.00    +0.036 C 
ATOM     20  C   UNL     1      -0.097  -0.339  -0.064  0.00  0.00    +0.137 C 
BRANCH  20  21
ATOM     21  C   UNL     1       0.678  -0.811  -1.267  0.00  0.00    +0.128 A 
ATOM     22  N   UNL     1       0.130  -1.132  -2.470  0.00  0.00    -0.340 N 
ATOM     23  H   UNL     1      -0.811  -1.098  -2.701  0.00  0.00    +0.167 HD
ATOM     24  C   UNL     1       1.163  -1.516  -3.302  0.00  0.00    +0.066 A 
ATOM     25  C   UNL     1       1.234  -1.944  -4.621  0.00  0.00    +0.028 A 
ATOM     26  C   UNL     1       2.458  -2.260  -5.172  0.00  0.00    +0.002 A 
ATOM     27  C   UNL     1       3.617  -2.152  -4.417  0.00  0.00    +0.002 A 
ATOM     28  C   UNL     1       3.567  -1.732  -3.118  0.00  0.00    +0.030 A 
ATOM     29  C   UNL     1       2.337  -1.407  -2.539  0.00  0.00    +0.089 A 
ATOM     30  N   UNL     1       1.969  -0.966  -1.308  0.00  0.00    -0.231 NA
ENDBRANCH  20  21
ENDBRANCH   1  20
TORSDOF 4
