REMARK  Name = ZINC38654573
REMARK  9 active torsions:
REMARK  status: ('A' for Active; 'I' for Inactive)
REMARK    1  A    between atoms: C_1  and  C_2
REMARK    2  A    between atoms: C_5  and  C_30
REMARK    3  A    between atoms: C_6  and  C_8
REMARK    4  A    between atoms: C_8  and  S_9
REMARK    5  A    between atoms: S_9  and  C_10
REMARK    6  A    between atoms: C_14  and  C_17
REMARK    7  A    between atoms: C_17  and  C_19
REMARK    8  A    between atoms: C_17  and  N_29
REMARK    9  A    between atoms: C_19  and  C_20
REMARK                            x       y       z     vdW  Elec       q    Type
REMARK                         _______ _______ _______ _____ _____    ______ ____
ROOT
ATOM      1  C   UNL     1      -1.250  -5.979   5.306  0.00  0.00    -0.017 C 
ENDROOT
BRANCH   1   5
ATOM      2  C   UNL     1       1.617  -4.041   4.561  0.00  0.00    +0.319 C 
ATOM      3  N   UNL     1       0.822  -3.271   5.527  0.00  0.00    -0.146 NA
ATOM      4  N   UNL     1       0.003  -4.011   6.089  0.00  0.00    -0.159 NA
ATOM      5  C   UNL     1       0.132  -5.383   5.582  0.00  0.00    +0.246 C 
ATOM      6  O   UNL     1       0.883  -5.266   4.354  0.00  0.00    -0.320 OA
BRANCH   2   7
ATOM      7  S   UNL     1       1.770  -3.127   3.002  0.00  0.00    -0.100 S 
BRANCH   7   8
ATOM      8  C   UNL     1       0.054  -2.845   2.489  0.00  0.00    +0.109 C 
BRANCH   8  14
ATOM      9  C   UNL     1      -0.018   1.503   0.010  0.00  0.00    +0.044 C 
ATOM     10  C   UNL     1       0.002  -0.004   0.002  0.00  0.00    -0.050 A 
ATOM     11  C   UNL     1       0.006  -0.689  -1.199  0.00  0.00    +0.003 A 
ATOM     12  C   UNL     1       0.025  -2.071  -1.207  0.00  0.00    +0.004 A 
ATOM     13  C   UNL     1       0.040  -2.768  -0.013  0.00  0.00    -0.046 A 
ATOM     14  C   UNL     1       0.037  -2.084   1.188  0.00  0.00    -0.034 A 
ATOM     15  C   UNL     1       0.023  -0.702   1.195  0.00  0.00    +0.008 A 
ATOM     16  C   UNL     1       0.059  -4.275  -0.021  0.00  0.00    +0.044 C 
ENDBRANCH   8  14
ENDBRANCH   7   8
ENDBRANCH   2   7
ENDBRANCH   1   5
BRANCH   1  17
ATOM     17  N   UNL     1      -1.099  -7.337   4.768  0.00  0.00    +0.383 N 
ATOM     18  H   UNL     1      -0.613  -7.913   5.439  0.00  0.00    -0.089 HD
ATOM     19  H   UNL     1      -2.011  -7.730   4.587  0.00  0.00    -0.089 HD
ATOM     20  H   UNL     1      -0.571  -7.302   3.909  0.00  0.00    -0.089 HD
ENDBRANCH   1  17
BRANCH   1  21
ATOM     21  C   UNL     1      -2.051  -6.032   6.609  0.00  0.00    +0.025 C 
BRANCH  21  22
ATOM     22  C   UNL     1      -3.453  -6.504   6.318  0.00  0.00    -0.024 A 
ATOM     23  C   UNL     1      -3.900  -7.895   6.213  0.00  0.00    +0.003 A 
ATOM     24  C   UNL     1      -3.262  -9.131   6.332  0.00  0.00    +0.010 A 
ATOM     25  C   UNL     1      -3.981 -10.283   6.174  0.00  0.00    +0.001 A 
ATOM     26  C   UNL     1      -5.340 -10.234   5.897  0.00  0.00    +0.002 A 
ATOM     27  C   UNL     1      -5.989  -9.024   5.775  0.00  0.00    +0.026 A 
ATOM     28  C   UNL     1      -5.278  -7.840   5.932  0.00  0.00    +0.047 A 
ATOM     29  N   UNL     1      -5.627  -6.509   5.873  0.00  0.00    -0.360 N 
ATOM     30  C   UNL     1      -4.529  -5.729   6.111  0.00  0.00    +0.087 A 
ATOM     31  H   UNL     1      -6.520  -6.175   5.694  0.00  0.00    +0.165 HD
ENDBRANCH  21  22
ENDBRANCH   1  21
TORSDOF 7
