REMARK  Name = ZINC38648423
REMARK  7 active torsions:
REMARK  status: ('A' for Active; 'I' for Inactive)
REMARK    1  A    between atoms: C_1  and  O_2
REMARK    2  A    between atoms: O_2  and  C_3
REMARK    3  A    between atoms: C_5  and  C_13
REMARK    4  A    between atoms: C_8  and  O_9
REMARK    5  A    between atoms: O_9  and  C_10
REMARK    6  A    between atoms: C_10  and  C_11
REMARK    7  A    between atoms: N_28  and  C_29
REMARK                            x       y       z     vdW  Elec       q    Type
REMARK                         _______ _______ _______ _____ _____    ______ ____
ROOT
ATOM      1  C   UNL     1       2.403   0.379  -4.230  0.00  0.00    +0.145 C 
ATOM      2  C   UNL     1       3.887   0.420  -4.073  0.00  0.00    +0.072 A 
ATOM      3  C   UNL     1       4.730   0.928  -2.985  0.00  0.00    +0.199 A 
ATOM      4  O   UNL     1       4.289   1.268  -1.902  0.00  0.00    -0.287 OA
ATOM      5  C   UNL     1       6.173   0.987  -3.330  0.00  0.00    +0.064 A 
ATOM      6  C   UNL     1       7.076   1.629  -2.482  0.00  0.00    +0.015 A 
ATOM      7  C   UNL     1       8.401   1.679  -2.817  0.00  0.00    +0.001 A 
ATOM      8  C   UNL     1       8.847   1.096  -3.994  0.00  0.00    +0.004 A 
ATOM      9  C   UNL     1       7.970   0.457  -4.841  0.00  0.00    +0.047 A 
ATOM     10  C   UNL     1       6.614   0.389  -4.522  0.00  0.00    +0.139 A 
ATOM     11  O   UNL     1       5.772  -0.252  -5.364  0.00  0.00    -0.450 OA
ATOM     12  C   UNL     1       4.440  -0.131  -5.194  0.00  0.00    +0.199 A 
ATOM     13  C   UNL     1       3.348  -0.533  -6.098  0.00  0.00    +0.283 C 
ATOM     14  O   UNL     1       3.501  -1.053  -7.185  0.00  0.00    -0.267 OA
ATOM     15  N   UNL     1       2.153  -0.238  -5.543  0.00  0.00    -0.279 N 
ENDROOT
BRANCH  15  16
ATOM     16  C   UNL     1       0.839  -0.489  -6.140  0.00  0.00    +0.100 C 
ATOM     17  C   UNL     1       0.735   0.262  -7.478  0.00  0.00    +0.047 C 
ATOM     18  C   UNL     1      -0.520  -0.263  -8.232  0.00  0.00    +0.168 C 
ATOM     19  S   UNL     1      -0.397  -2.067  -7.875  0.00  0.00    -0.029 S 
ATOM     20  O   UNL     1       0.323  -2.698  -8.925  0.00  0.00    -0.174 OA
ATOM     21  O   UNL     1      -1.683  -2.556  -7.517  0.00  0.00    -0.174 OA
ATOM     22  C   UNL     1       0.663  -2.009  -6.375  0.00  0.00    +0.188 C 
ENDBRANCH  15  16
BRANCH   1  25
ATOM     23  C   UNL     1       0.606  -0.608  -1.056  0.00  0.00    +0.162 A 
ATOM     24  C   UNL     1       1.173   0.159  -2.062  0.00  0.00    +0.055 A 
ATOM     25  C   UNL     1       1.787  -0.456  -3.137  0.00  0.00    -0.019 A 
ATOM     26  C   UNL     1       1.837  -1.836  -3.212  0.00  0.00    +0.009 A 
ATOM     27  C   UNL     1       1.273  -2.606  -2.212  0.00  0.00    +0.050 A 
ATOM     28  C   UNL     1       0.662  -1.996  -1.129  0.00  0.00    +0.162 A 
BRANCH  23  30
ATOM     29  C   UNL     1      -0.017   1.425   0.010  0.00  0.00    +0.277 C 
ATOM     30  O   UNL     1       0.002  -0.004   0.002  0.00  0.00    -0.491 OA
ENDBRANCH  23  30
BRANCH  28  31
ATOM     31  O   UNL     1       0.112  -2.753  -0.142  0.00  0.00    -0.484 OA
BRANCH  31  32
ATOM     32  C   UNL     1       0.206  -4.171  -0.283  0.00  0.00    +0.256 C 
BRANCH  32  33
ATOM     33  C   UNL     1      -0.453  -4.838   0.897  0.00  0.00    +0.006 C 
ATOM     34  C   UNL     1      -1.258  -5.855   0.709  0.00  0.00    +0.007 C 
ENDBRANCH  32  33
ENDBRANCH  31  32
ENDBRANCH  28  31
ENDBRANCH   1  25
TORSDOF 6
