REMARK  Name = ZINC02209860
REMARK  11 active torsions:
REMARK  status: ('A' for Active; 'I' for Inactive)
REMARK    1  A    between atoms: C_1  and  C_2
REMARK    2  A    between atoms: C_2  and  C_3
REMARK    3  A    between atoms: C_3  and  C_4
REMARK    4  A    between atoms: C_4  and  O_5
REMARK    5  A    between atoms: O_5  and  C_6
REMARK    6  A    between atoms: C_6  and  C_8
REMARK    7  A    between atoms: C_9  and  N_28
REMARK    8  A    between atoms: C_11  and  C_27
REMARK    9  A    between atoms: C_12  and  C_23
REMARK   10  A    between atoms: C_23  and  O_25
REMARK   11  A    between atoms: O_25  and  C_26
REMARK                            x       y       z     vdW  Elec       q    Type
REMARK                         _______ _______ _______ _____ _____    ______ ____
ROOT
ATOM      1  C   UNL     1       2.309   1.444   0.362  0.00  0.00    +0.117 C 
ATOM      2  C   UNL     1       1.134   2.012  -0.020  0.00  0.00    +0.195 C 
ATOM      3  O   UNL     1      -0.017   1.320  -0.015  0.00  0.00    -0.446 OA
ATOM      4  C   UNL     1       0.013  -0.020   0.000  0.00  0.00    +0.116 C 
ATOM      5  C   UNL     1       1.101  -0.706   0.378  0.00  0.00    +0.098 C 
ATOM      6  C   UNL     1       2.350   0.010   0.803  0.00  0.00    +0.145 C 
ATOM      7  C   UNL     1       2.525  -0.077   2.299  0.00  0.00    -0.002 A 
ATOM      8  C   UNL     1       1.765   0.358   3.361  0.00  0.00    +0.007 A 
ATOM      9  C   UNL     1       2.192   0.128   4.657  0.00  0.00    +0.000 A 
ATOM     10  C   UNL     1       3.382  -0.541   4.880  0.00  0.00    +0.002 A 
ATOM     11  C   UNL     1       4.146  -0.979   3.818  0.00  0.00    +0.023 A 
ATOM     12  C   UNL     1       3.723  -0.750   2.510  0.00  0.00    +0.038 A 
ATOM     13  N   UNL     1       4.309  -1.088   1.289  0.00  0.00    -0.284 N 
ATOM     14  C   UNL     1       3.571  -0.680   0.241  0.00  0.00    +0.237 C 
ATOM     15  O   UNL     1       3.835  -0.836  -0.932  0.00  0.00    -0.274 OA
ATOM     16  C   UNL     1      -1.218  -0.781  -0.421  0.00  0.00    +0.087 C 
ATOM     17  H   UNL     1       5.151  -1.562   1.206  0.00  0.00    +0.155 HD
ENDROOT
BRANCH   2  18
ATOM     18  N   UNL     1       1.124   3.322  -0.420  0.00  0.00    -0.329 N 
ATOM     19  H   UNL     1       0.283   3.761  -0.622  0.00  0.00    +0.145 HD
ATOM     20  H   UNL     1       1.958   3.811  -0.501  0.00  0.00    +0.145 HD
ENDBRANCH   2  18
BRANCH   1  21
ATOM     21  C   UNL     1       3.490   2.203   0.344  0.00  0.00    +0.342 C 
ATOM     22  O   UNL     1       3.931   2.668   1.380  0.00  0.00    -0.245 OA
BRANCH  21  23
ATOM     23  O   UNL     1       4.136   2.419  -0.822  0.00  0.00    -0.461 OA
BRANCH  23  24
ATOM     24  C   UNL     1       5.332   3.200  -0.766  0.00  0.00    +0.232 C 
BRANCH  24  25
ATOM     25  C   UNL     1       5.919   3.335  -2.173  0.00  0.00    +0.041 C 
BRANCH  25  27
ATOM     26  C   UNL     1       7.785   4.307  -3.520  0.00  0.00    +0.004 C 
ATOM     27  C   UNL     1       7.198   4.171  -2.113  0.00  0.00    -0.000 C 
ENDBRANCH  25  27
ENDBRANCH  24  25
ENDBRANCH  23  24
ENDBRANCH  21  23
ENDBRANCH   1  21
BRANCH   5  28
ATOM     28  C   UNL     1       1.072  -2.122   0.376  0.00  0.00    +0.340 C 
ATOM     29  O   UNL     1       0.063  -2.709   0.033  0.00  0.00    -0.245 OA
BRANCH  28  30
ATOM     30  O   UNL     1       2.162  -2.820   0.755  0.00  0.00    -0.465 OA
ATOM     31  C   UNL     1       2.062  -4.245   0.728  0.00  0.00    +0.280 C 
ENDBRANCH  28  30
ENDBRANCH   5  28
TORSDOF 8
