REMARK  Name = ZINC38546138
REMARK  5 active torsions:
REMARK  status: ('A' for Active; 'I' for Inactive)
REMARK    1  A    between atoms: C_3  and  C_6
REMARK    2  A    between atoms: N_8  and  C_9
REMARK    3  A    between atoms: C_10  and  C_18
REMARK    4  A    between atoms: C_18  and  C_20
REMARK    5  A    between atoms: C_18  and  N_29
REMARK                            x       y       z     vdW  Elec       q    Type
REMARK                         _______ _______ _______ _____ _____    ______ ____
ROOT
ATOM      1  C   UNL     1       6.049  -0.584   0.114  0.00  0.00    +0.074 A 
ATOM      2  C   UNL     1       6.675  -1.791   0.132  0.00  0.00    -0.025 A 
ATOM      3  C   UNL     1       8.069  -1.850   0.152  0.00  0.00    -0.033 A 
ATOM      4  C   UNL     1       8.729  -0.661   0.152  0.00  0.00    -0.005 A 
ATOM      5  S   UNL     1       7.432   0.547   0.116  0.00  0.00    -0.078 S 
ATOM      6  C   UNL     1      10.207  -0.440   0.173  0.00  0.00    +0.043 C 
ATOM      7  C   UNL     1      10.887  -1.760   0.564  0.00  0.00    +0.005 C 
ATOM      8  C   UNL     1      10.284  -2.891  -0.274  0.00  0.00    +0.005 C 
ATOM      9  C   UNL     1       8.847  -3.163   0.171  0.00  0.00    +0.036 C 
ENDROOT
BRANCH   1  12
ATOM     10  C   UNL     1       4.258   0.968  -0.062  0.00  0.00    +0.284 C 
ATOM     11  O   UNL     1       5.067   1.869  -0.185  0.00  0.00    -0.266 OA
ATOM     12  N   UNL     1       4.681  -0.302   0.093  0.00  0.00    -0.273 N 
ATOM     13  H   UNL     1       4.037  -1.020   0.191  0.00  0.00    +0.156 HD
BRANCH  10  16
ATOM     14  C   UNL     1       0.868   2.317  -0.197  0.00  0.00    +0.042 A 
ATOM     15  C   UNL     1       2.260   2.500  -0.234  0.00  0.00    +0.054 A 
ATOM     16  C   UNL     1       2.822   1.264  -0.084  0.00  0.00    +0.189 A 
ATOM     17  O   UNL     1       1.825   0.364   0.040  0.00  0.00    -0.458 OA
ATOM     18  C   UNL     1       0.645   0.995  -0.027  0.00  0.00    +0.196 A 
ENDBRANCH  10  16
ENDBRANCH   1  12
BRANCH   2  19
ATOM     19  C   UNL     1       5.865  -3.062   0.132  0.00  0.00    -0.004 C 
BRANCH  19  20
ATOM     20  C   UNL     1       5.188  -3.226   1.468  0.00  0.00    -0.053 A 
ATOM     21  C   UNL     1       3.877  -2.817   1.632  0.00  0.00    +0.006 A 
ATOM     22  C   UNL     1       3.251  -2.967   2.855  0.00  0.00    +0.050 A 
ATOM     23  C   UNL     1       3.937  -3.527   3.921  0.00  0.00    +0.166 A 
ATOM     24  C   UNL     1       5.257  -3.939   3.756  0.00  0.00    +0.166 A 
ATOM     25  C   UNL     1       5.876  -3.791   2.525  0.00  0.00    +0.052 A 
ATOM     26  O   UNL     1       5.706  -4.451   4.939  0.00  0.00    -0.453 OA
ATOM     27  C   UNL     1       4.784  -3.976   5.938  0.00  0.00    +0.466 C 
ATOM     28  O   UNL     1       3.559  -3.781   5.207  0.00  0.00    -0.453 OA
ENDBRANCH  19  20
BRANCH  19  29
ATOM     29  N   UNL     1       4.849  -2.994  -0.927  0.00  0.00    +0.387 N 
ATOM     30  C   UNL     1       4.140  -4.277  -1.006  0.00  0.00    -0.078 C 
ATOM     31  C   UNL     1       3.026  -4.186  -2.051  0.00  0.00    -0.019 C 
ATOM     32  C   UNL     1       3.640  -3.856  -3.415  0.00  0.00    -0.004 C 
ATOM     33  C   UNL     1       4.439  -2.555  -3.303  0.00  0.00    -0.019 C 
ATOM     34  C   UNL     1       5.500  -2.706  -2.211  0.00  0.00    -0.078 C 
ATOM     35  H   UNL     1       4.190  -2.260  -0.714  0.00  0.00    -0.080 HD
ENDBRANCH  19  29
ENDBRANCH   2  19
TORSDOF 5
