REMARK  Name = ZINC30829723
REMARK  9 active torsions:
REMARK  status: ('A' for Active; 'I' for Inactive)
REMARK    1  A    between atoms: C_1  and  C_2
REMARK    2  A    between atoms: C_2  and  C_3
REMARK    3  A    between atoms: C_3  and  C_4
REMARK    4  A    between atoms: C_4  and  C_5
REMARK    5  A    between atoms: N_14  and  C_15
REMARK    6  A    between atoms: C_15  and  N_17
REMARK    7  A    between atoms: C_18  and  C_20
REMARK    8  A    between atoms: C_22  and  N_31
REMARK    9  A    between atoms: C_25  and  N_26
REMARK                            x       y       z     vdW  Elec       q    Type
REMARK                         _______ _______ _______ _____ _____    ______ ____
ROOT
ATOM      1  N   UNL     1      -2.530   5.218  -0.228  0.00  0.00    -0.262 N 
ATOM      2  C   UNL     1      -2.516   3.870  -0.214  0.00  0.00    +0.251 C 
ATOM      3  O   UNL     1      -3.558   3.251  -0.298  0.00  0.00    -0.270 OA
ATOM      4  H   UNL     1      -1.587   5.779  -0.152  0.00  0.00    +0.157 HD
ENDROOT
BRANCH   2   5
ATOM      5  C   UNL     1      -1.237   3.148  -0.096  0.00  0.00    +0.060 A 
ATOM      6  C   UNL     1      -0.028   3.851  -0.112  0.00  0.00    +0.047 A 
ATOM      7  C   UNL     1       1.164   3.170  -0.001  0.00  0.00    +0.127 A 
ATOM      8  C   UNL     1       1.173   1.790   0.126  0.00  0.00    +0.034 A 
ATOM      9  C   UNL     1      -0.011   1.082   0.143  0.00  0.00    +0.026 A 
ATOM     10  C   UNL     1      -1.224   1.750   0.027  0.00  0.00    +0.042 A 
BRANCH  10  11
ATOM     11  N   UNL     1      -2.416   1.039   0.038  0.00  0.00    -0.329 N 
ATOM     12  C   UNL     1      -2.402  -0.041  -0.981  0.00  0.00    +0.105 C 
ATOM     13  C   UNL     1      -3.505  -1.010  -0.487  0.00  0.00    +0.020 C 
ATOM     14  C   UNL     1      -3.341  -0.965   1.050  0.00  0.00    +0.020 C 
ATOM     15  C   UNL     1      -2.618   0.363   1.339  0.00  0.00    +0.105 C 
ENDBRANCH  10  11
BRANCH   7  16
ATOM     16  N   UNL     1       2.442   3.916  -0.019  0.00  0.00    +0.056 N 
ATOM     17  O   UNL     1       3.498   3.317   0.078  0.00  0.00    -0.126 OA
ATOM     18  O   UNL     1       2.438   5.129  -0.131  0.00  0.00    -0.126 OA
ENDBRANCH   7  16
ENDBRANCH   2   5
BRANCH   1  19
ATOM     19  C   UNL     1      -3.700   5.878  -0.336  0.00  0.00    +0.163 C 
ATOM     20  S   UNL     1      -5.168   5.005  -0.455  0.00  0.00    -0.016 S 
BRANCH  19  30
ATOM     21  C   UNL     1      -9.294  10.105  -0.861  0.00  0.00    -0.046 A 
ATOM     22  C   UNL     1      -9.573   8.746  -0.871  0.00  0.00    +0.006 A 
ATOM     23  C   UNL     1      -8.577   7.810  -0.776  0.00  0.00    +0.027 A 
ATOM     24  C   UNL     1      -7.223   8.204  -0.663  0.00  0.00    +0.055 A 
ATOM     25  C   UNL     1      -6.977   9.596  -0.656  0.00  0.00    +0.039 A 
ATOM     26  C   UNL     1      -7.982  10.526  -0.752  0.00  0.00    +0.020 A 
ATOM     27  S   UNL     1      -5.209   9.667  -0.496  0.00  0.00    -0.052 S 
ATOM     28  C   UNL     1      -4.916   7.904  -0.461  0.00  0.00    +0.163 A 
ATOM     29  N   UNL     1      -6.131   7.416  -0.561  0.00  0.00    -0.335 N 
ATOM     30  N   UNL     1      -3.714   7.226  -0.350  0.00  0.00    -0.169 NA
ATOM     31  H   UNL     1      -6.240   6.322  -0.560  0.00  0.00    +0.168 HD
BRANCH  21  32
ATOM     32  C   UNL     1     -10.411  11.112  -0.966  0.00  0.00    +0.035 C 
BRANCH  32  33
ATOM     33  C   UNL     1     -10.665  11.439  -2.439  0.00  0.00    +0.004 C 
BRANCH  33  35
ATOM     34  C   UNL     1     -12.053  12.788  -4.019  0.00  0.00    +0.004 C 
ATOM     35  C   UNL     1     -11.798  12.461  -2.547  0.00  0.00    -0.003 C 
ENDBRANCH  33  35
ENDBRANCH  32  33
ENDBRANCH  21  32
ENDBRANCH  19  30
ENDBRANCH   1  19
TORSDOF 8
