REMARK  Name = ZINC54646134
REMARK  14 active torsions:
REMARK  status: ('A' for Active; 'I' for Inactive)
REMARK    1  A    between atoms: C_1  and  C_2
REMARK    2  A    between atoms: C_2  and  O_3
REMARK    3  A    between atoms: O_3  and  C_4
REMARK    4  A    between atoms: C_4  and  C_6
REMARK    5  A    between atoms: C_7  and  C_38
REMARK    6  A    between atoms: C_8  and  C_37
REMARK    7  A    between atoms: C_10  and  N_11
REMARK    8  A    between atoms: C_12  and  C_14
REMARK    9  A    between atoms: C_14  and  C_16
REMARK   10  A    between atoms: C_14  and  N_23
REMARK   11  A    between atoms: C_16  and  C_17
REMARK   12  A    between atoms: C_30  and  C_36
REMARK   13  A    between atoms: C_33  and  C_34
REMARK   14  A    between atoms: C_33  and  C_35
REMARK                            x       y       z     vdW  Elec       q    Type
REMARK                         _______ _______ _______ _____ _____    ______ ____
ROOT
ATOM      1  C   UNL     1      -2.576  -2.610  -5.413  0.00  0.00    +0.174 C 
ENDROOT
BRANCH   1   2
ATOM      2  N   UNL     1      -2.803  -2.569  -6.859  0.00  0.00    -0.229 N 
ATOM      3  C   UNL     1      -2.454  -3.635  -7.603  0.00  0.00    +0.226 C 
ATOM      4  O   UNL     1      -2.000  -4.626  -7.073  0.00  0.00    -0.275 OA
ATOM      5  C   UNL     1      -2.633  -3.588  -9.110  0.00  0.00    +0.082 C 
ATOM      6  C   UNL     1      -4.147  -3.751  -9.389  0.00  0.00    +0.014 C 
ATOM      7  C   UNL     1      -4.758  -2.344  -9.254  0.00  0.00    +0.017 C 
ATOM      8  C   UNL     1      -3.582  -1.401  -8.900  0.00  0.00    +0.051 C 
ATOM      9  C   UNL     1      -3.360  -1.469  -7.399  0.00  0.00    +0.229 C 
ATOM     10  O   UNL     1      -3.705  -0.549  -6.690  0.00  0.00    -0.275 OA
ATOM     11  C   UNL     1      -2.330  -2.122  -9.530  0.00  0.00    -0.010 C 
ATOM     12  C   UNL     1      -2.319  -1.975 -11.053  0.00  0.00    +0.012 C 
ATOM     13  C   UNL     1      -1.014  -1.633  -8.921  0.00  0.00    +0.012 C 
ATOM     14  C   UNL     1      -3.788   0.030  -9.401  0.00  0.00    +0.021 C 
ENDBRANCH   1   2
BRANCH   1  16
ATOM     15  N   UNL     1      -0.597  -2.461  -3.936  0.00  0.00    -0.278 N 
ATOM     16  C   UNL     1      -1.105  -2.790  -5.140  0.00  0.00    +0.239 C 
ATOM     17  O   UNL     1      -0.378  -3.232  -6.005  0.00  0.00    -0.273 OA
ATOM     18  H   UNL     1      -1.178  -2.108  -3.245  0.00  0.00    +0.155 HD
BRANCH  15  23
ATOM     19  C   UNL     1       1.449  -2.344  -2.516  0.00  0.00    +0.091 A 
ATOM     20  C   UNL     1       2.868  -2.621  -2.523  0.00  0.00    -0.025 A 
ATOM     21  C   UNL     1       3.363  -3.119  -3.671  0.00  0.00    -0.008 A 
ATOM     22  S   UNL     1       1.934  -3.213  -4.727  0.00  0.00    -0.078 S 
ATOM     23  C   UNL     1       0.756  -2.627  -3.686  0.00  0.00    +0.086 A 
ATOM     24  C   UNL     1       4.785  -3.503  -3.986  0.00  0.00    +0.052 C 
ATOM     25  C   UNL     1       3.739  -2.366  -1.320  0.00  0.00    +0.045 C 
BRANCH  19  26
ATOM     26  C   UNL     1       0.776  -1.800  -1.335  0.00  0.00    +0.342 C 
ATOM     27  O   UNL     1       0.312  -2.552  -0.499  0.00  0.00    -0.245 OA
BRANCH  26  28
ATOM     28  O   UNL     1       0.671  -0.465  -1.174  0.00  0.00    -0.461 OA
BRANCH  28  30
ATOM     29  C   UNL     1      -0.019   1.526   0.010  0.00  0.00    +0.048 C 
ATOM     30  C   UNL     1       0.002  -0.004   0.002  0.00  0.00    +0.229 C 
ENDBRANCH  28  30
ENDBRANCH  26  28
ENDBRANCH  19  26
ENDBRANCH  15  23
ENDBRANCH   1  16
BRANCH   1  31
ATOM     31  C   UNL     1      -3.354  -3.780  -4.807  0.00  0.00    +0.067 C 
BRANCH  31  32
ATOM     32  C   UNL     1      -4.832  -3.539  -4.971  0.00  0.00    -0.045 A 
ATOM     33  C   UNL     1      -5.535  -2.860  -3.994  0.00  0.00    +0.004 A 
ATOM     34  C   UNL     1      -6.891  -2.639  -4.144  0.00  0.00    +0.000 A 
ATOM     35  C   UNL     1      -7.545  -3.096  -5.273  0.00  0.00    +0.000 A 
ATOM     36  C   UNL     1      -6.842  -3.775  -6.252  0.00  0.00    +0.000 A 
ATOM     37  C   UNL     1      -5.485  -3.992  -6.103  0.00  0.00    +0.004 A 
ENDBRANCH  31  32
ENDBRANCH   1  31
TORSDOF 8
