REMARK  Name = ZINC08960798
REMARK  7 active torsions:
REMARK  status: ('A' for Active; 'I' for Inactive)
REMARK    1  A    between atoms: C_1  and  C_2
REMARK    2  A    between atoms: C_2  and  O_3
REMARK    3  A    between atoms: O_3  and  C_4
REMARK    4  A    between atoms: C_11  and  C_13
REMARK    5  A    between atoms: N_15  and  C_16
REMARK    6  A    between atoms: C_17  and  C_27
REMARK    7  A    between atoms: C_22  and  C_26
REMARK                            x       y       z     vdW  Elec       q    Type
REMARK                         _______ _______ _______ _____ _____    ______ ____
ROOT
ATOM      1  C   UNL     1      -0.878  -5.913  -0.021  0.00  0.00    +0.082 A 
ATOM      2  C   UNL     1      -0.290  -7.167  -0.038  0.00  0.00    +0.039 A 
ATOM      3  C   UNL     1      -1.161  -8.328  -0.030  0.00  0.00    -0.026 A 
ATOM      4  C   UNL     1      -2.491  -8.077  -0.016  0.00  0.00    -0.004 A 
ATOM      5  S   UNL     1      -2.618  -6.309  -0.006  0.00  0.00    -0.077 S 
ATOM      6  C   UNL     1      -3.603  -9.079  -0.010  0.00  0.00    +0.046 C 
ATOM      7  C   UNL     1      -3.017 -10.451   0.353  0.00  0.00    -0.009 C 
ATOM      8  C   UNL     1      -1.766 -10.692  -0.498  0.00  0.00    +0.008 C 
ATOM      9  C   UNL     1      -0.641  -9.762  -0.043  0.00  0.00    +0.037 C 
ATOM     10  C   UNL     1      -4.050 -11.543   0.067  0.00  0.00    +0.008 C 
ENDROOT
BRANCH   2  11
ATOM     11  C   UNL     1       1.175  -7.318  -0.061  0.00  0.00    +0.112 A 
ATOM     12  N   UNL     1       1.892  -8.424  -0.075  0.00  0.00    -0.239 NA
ATOM     13  C   UNL     1       3.240  -8.411  -0.100  0.00  0.00    +0.079 A 
ATOM     14  C   UNL     1       4.123  -9.516  -0.121  0.00  0.00    +0.029 A 
ATOM     15  C   UNL     1       5.480  -9.327  -0.139  0.00  0.00    +0.002 A 
ATOM     16  C   UNL     1       6.036  -8.056  -0.138  0.00  0.00    +0.001 A 
ATOM     17  C   UNL     1       5.202  -6.952  -0.117  0.00  0.00    +0.017 A 
ATOM     18  C   UNL     1       3.842  -7.131  -0.099  0.00  0.00    +0.040 A 
ATOM     19  S   UNL     1       2.433  -6.049  -0.070  0.00  0.00    -0.067 S 
ENDBRANCH   2  11
BRANCH   1  22
ATOM     20  C   UNL     1      -1.022  -3.547  -0.007  0.00  0.00    +0.284 C 
ATOM     21  O   UNL     1      -2.236  -3.632   0.005  0.00  0.00    -0.266 OA
ATOM     22  N   UNL     1      -0.269  -4.665  -0.020  0.00  0.00    -0.273 N 
ATOM     23  H   UNL     1       0.698  -4.597  -0.029  0.00  0.00    +0.156 HD
BRANCH  20  31
ATOM     24  C   UNL     1       2.416   0.036  -0.021  0.00  0.00    +0.163 A 
ATOM     25  C   UNL     1       2.374   1.418  -0.014  0.00  0.00    +0.049 A 
ATOM     26  C   UNL     1       1.159   2.089   0.002  0.00  0.00    +0.004 A 
ATOM     27  C   UNL     1      -0.017   1.394   0.010  0.00  0.00    +0.012 A 
ATOM     28  C   UNL     1       0.002  -0.004   0.002  0.00  0.00    +0.025 A 
ATOM     29  C   UNL     1       1.228  -0.693  -0.013  0.00  0.00    +0.177 A 
ATOM     30  O   UNL     1       0.954  -2.013  -0.018  0.00  0.00    -0.447 OA
ATOM     31  C   UNL     1      -0.378  -2.227  -0.006  0.00  0.00    +0.191 A 
ATOM     32  C   UNL     1      -1.033  -1.037   0.006  0.00  0.00    +0.063 A 
BRANCH  24  33
ATOM     33  O   UNL     1       3.613  -0.610  -0.036  0.00  0.00    -0.489 OA
BRANCH  33  35
ATOM     34  C   UNL     1       6.028  -0.694  -0.059  0.00  0.00    +0.048 C 
ATOM     35  C   UNL     1       4.788   0.203  -0.043  0.00  0.00    +0.226 C 
ENDBRANCH  33  35
ENDBRANCH  24  33
ENDBRANCH  20  31
ENDBRANCH   1  22
TORSDOF 5
