REMARK  Name = ZINC15859119
REMARK  7 active torsions:
REMARK  status: ('A' for Active; 'I' for Inactive)
REMARK    1  A    between atoms: C_1  and  C_2
REMARK    2  A    between atoms: C_5  and  C_8
REMARK    3  A    between atoms: C_10  and  N_15
REMARK    4  A    between atoms: C_12  and  C_14
REMARK    5  A    between atoms: N_15  and  C_16
REMARK    6  A    between atoms: C_18  and  C_23
REMARK    7  A    between atoms: C_21  and  O_22
REMARK                            x       y       z     vdW  Elec       q    Type
REMARK                         _______ _______ _______ _____ _____    ______ ____
ROOT
ATOM      1  C   UNL     1       2.388   0.036   0.373  0.00  0.00    +0.076 A 
ATOM      2  C   UNL     1       1.230  -0.670   0.057  0.00  0.00    +0.072 A 
ATOM      3  C   UNL     1      -0.000  -0.063   0.306  0.00  0.00    +0.127 A 
ATOM      4  N   UNL     1      -0.023   1.159   0.831  0.00  0.00    -0.217 NA
ATOM      5  C   UNL     1       1.096   1.795   1.116  0.00  0.00    +0.129 A 
ATOM      6  N   UNL     1       2.278   1.257   0.897  0.00  0.00    -0.232 NA
ATOM      7  C   UNL     1       1.020   3.178   1.709  0.00  0.00    +0.088 C 
ENDROOT
BRANCH   1  12
ATOM      8  C   UNL     1       7.574  -2.282  -0.573  0.00  0.00    +0.044 C 
ATOM      9  C   UNL     1       6.217  -1.676  -0.325  0.00  0.00    -0.050 A 
ATOM     10  C   UNL     1       6.118  -0.408   0.220  0.00  0.00    +0.004 A 
ATOM     11  C   UNL     1       4.878   0.152   0.448  0.00  0.00    +0.010 A 
ATOM     12  C   UNL     1       3.724  -0.561   0.130  0.00  0.00    +0.001 A 
ATOM     13  C   UNL     1       3.830  -1.841  -0.413  0.00  0.00    +0.010 A 
ATOM     14  C   UNL     1       5.075  -2.389  -0.643  0.00  0.00    +0.004 A 
ENDBRANCH   1  12
BRANCH   3  15
ATOM     15  N   UNL     1      -1.183  -0.724   0.010  0.00  0.00    -0.296 N 
ATOM     16  H   UNL     1      -1.162  -1.649  -0.281  0.00  0.00    +0.154 HD
BRANCH  15  17
ATOM     17  C   UNL     1      -2.407  -0.055   0.131  0.00  0.00    +0.075 A 
ATOM     18  C   UNL     1      -2.444   1.332   0.144  0.00  0.00    +0.030 A 
ATOM     19  C   UNL     1      -3.655   1.989   0.259  0.00  0.00    -0.048 A 
ATOM     20  C   UNL     1      -4.829   1.268   0.370  0.00  0.00    +0.007 A 
ATOM     21  C   UNL     1      -4.800  -0.114   0.363  0.00  0.00    +0.047 A 
ATOM     22  C   UNL     1      -3.591  -0.781   0.244  0.00  0.00    +0.138 A 
ATOM     23  C   UNL     1      -3.693   3.496   0.268  0.00  0.00    +0.044 C 
BRANCH  22  24
ATOM     24  O   UNL     1      -3.561  -2.140   0.237  0.00  0.00    -0.505 OA
ATOM     25  H   UNL     1      -3.467  -2.536   1.115  0.00  0.00    +0.292 HD
ENDBRANCH  22  24
ENDBRANCH  15  17
ENDBRANCH   3  15
TORSDOF 4
