REMARK  Name = ZINC13123812
REMARK  13 active torsions:
REMARK  status: ('A' for Active; 'I' for Inactive)
REMARK    1  A    between atoms: C_1  and  C_2
REMARK    2  A    between atoms: C_2  and  C_3
REMARK    3  A    between atoms: N_5  and  C_6
REMARK    4  A    between atoms: C_9  and  C_14
REMARK    5  A    between atoms: C_11  and  O_12
REMARK    6  A    between atoms: O_12  and  C_13
REMARK    7  A    between atoms: C_14  and  C_16
REMARK    8  A    between atoms: C_16  and  S_17
REMARK    9  A    between atoms: S_17  and  C_18
REMARK   10  A    between atoms: C_21  and  C_30
REMARK   11  A    between atoms: N_22  and  C_23
REMARK   12  A    between atoms: C_23  and  C_24
REMARK   13  A    between atoms: C_33  and  O_36
REMARK                            x       y       z     vdW  Elec       q    Type
REMARK                         _______ _______ _______ _____ _____    ______ ____
ROOT
ATOM      1  C   UNL     1       5.001  -2.281 -10.002  0.00  0.00    +0.192 A 
ATOM      2  N   UNL     1       5.179  -0.980 -10.004  0.00  0.00    -0.122 NA
ATOM      3  N   UNL     1       5.867  -0.630 -11.032  0.00  0.00    -0.128 NA
ATOM      4  C   UNL     1       6.170  -1.687 -11.749  0.00  0.00    +0.165 A 
ATOM      5  N   UNL     1       5.630  -2.778 -11.108  0.00  0.00    -0.300 N 
ENDROOT
BRANCH   4   6
ATOM      6  C   UNL     1       6.950  -1.702 -13.005  0.00  0.00    +0.020 A 
ATOM      7  C   UNL     1       6.899  -2.815 -13.847  0.00  0.00    +0.015 A 
ATOM      8  C   UNL     1       7.627  -2.826 -15.017  0.00  0.00    +0.046 A 
ATOM      9  C   UNL     1       8.410  -1.731 -15.360  0.00  0.00    +0.117 A 
ATOM     10  C   UNL     1       8.463  -0.623 -14.525  0.00  0.00    +0.046 A 
ATOM     11  C   UNL     1       7.734  -0.602 -13.356  0.00  0.00    +0.015 A 
BRANCH   9  12
ATOM     12  O   UNL     1       9.127  -1.746 -16.514  0.00  0.00    -0.507 OA
ATOM     13  H   UNL     1       8.649  -1.394 -17.278  0.00  0.00    +0.292 HD
ENDBRANCH   9  12
ENDBRANCH   4   6
BRANCH   1  14
ATOM     14  S   UNL     1       4.122  -3.214  -8.792  0.00  0.00    -0.078 S 
BRANCH  14  15
ATOM     15  C   UNL     1       3.545  -1.965  -7.610  0.00  0.00    +0.157 C 
BRANCH  15  16
ATOM     16  C   UNL     1       2.767  -2.638  -6.509  0.00  0.00    +0.173 C 
ATOM     17  O   UNL     1       2.617  -3.841  -6.520  0.00  0.00    -0.291 OA
BRANCH  16  21
ATOM     18  C   UNL     1       1.102  -0.317  -3.370  0.00  0.00    +0.076 A 
ATOM     19  C   UNL     1       1.820   0.303  -4.388  0.00  0.00    +0.028 A 
ATOM     20  C   UNL     1       2.362  -0.447  -5.407  0.00  0.00    +0.013 A 
ATOM     21  C   UNL     1       2.190  -1.836  -5.422  0.00  0.00    +0.022 A 
ATOM     22  C   UNL     1       1.467  -2.460  -4.397  0.00  0.00    +0.059 A 
ATOM     23  C   UNL     1       0.932  -1.702  -3.375  0.00  0.00    +0.142 A 
BRANCH  18  26
ATOM     24  C   UNL     1       0.094   1.689  -2.593  0.00  0.00    +0.217 C 
ATOM     25  O   UNL     1       0.231   2.174  -3.696  0.00  0.00    -0.275 OA
ATOM     26  N   UNL     1       0.555   0.448  -2.340  0.00  0.00    -0.283 N 
ATOM     27  H   UNL     1       0.507   0.087  -1.441  0.00  0.00    +0.155 HD
BRANCH  24  29
ATOM     28  C   UNL     1      -1.015   3.839  -2.051  0.00  0.00    +0.013 C 
ATOM     29  C   UNL     1      -0.592   2.474  -1.505  0.00  0.00    +0.093 C 
ENDBRANCH  24  29
ENDBRANCH  18  26
BRANCH  23  30
ATOM     30  O   UNL     1       0.233  -2.305  -2.376  0.00  0.00    -0.493 OA
ATOM     31  C   UNL     1       0.098  -3.726  -2.445  0.00  0.00    +0.277 C 
ENDBRANCH  23  30
ENDBRANCH  16  21
ENDBRANCH  15  16
ENDBRANCH  14  15
ENDBRANCH   1  14
BRANCH   5  32
ATOM     32  C   UNL     1       5.710  -4.180 -11.527  0.00  0.00    +0.157 C 
BRANCH  32  33
ATOM     33  C   UNL     1       4.436  -4.558 -12.286  0.00  0.00    +0.138 C 
ATOM     34  C   UNL     1       4.510  -6.035 -12.730  0.00  0.00    +0.035 C 
ATOM     35  C   UNL     1       3.875  -5.986 -14.146  0.00  0.00    +0.031 C 
ATOM     36  C   UNL     1       4.351  -4.595 -14.634  0.00  0.00    +0.160 C 
ATOM     37  O   UNL     1       4.317  -3.755 -13.467  0.00  0.00    -0.375 OA
ENDBRANCH  32  33
ENDBRANCH   5  32
TORSDOF 11
