REMARK  Name = ZINC64873344
REMARK  10 active torsions:
REMARK  status: ('A' for Active; 'I' for Inactive)
REMARK    1  A    between atoms: C_1  and  C_2
REMARK    2  A    between atoms: C_2  and  C_3
REMARK    3  A    between atoms: C_3  and  C_4
REMARK    4  A    between atoms: C_7  and  O_11
REMARK    5  A    between atoms: O_11  and  C_12
REMARK    6  A    between atoms: C_12  and  C_13
REMARK    7  A    between atoms: N_15  and  CA_16
REMARK    8  A    between atoms: CA_16  and  CB_18
REMARK    9  A    between atoms: CA_16  and  C_29
REMARK   10  A    between atoms: CB_18  and  CG_19
REMARK                            x       y       z     vdW  Elec       q    Type
REMARK                         _______ _______ _______ _____ _____    ______ ____
ROOT
ATOM      1  C   UNK A   0      -0.082  -8.301   1.745  0.00  0.00    +0.251 C 
ATOM      2  O   UNK A   0       0.892  -8.749   1.178  0.00  0.00    -0.272 OA
ATOM      3  N   TRP A   1      -0.994  -9.137   2.280  0.00  0.00    -0.299 N 
ATOM      4  H   TRP A   1      -1.773  -8.779   2.734  0.00  0.00    +0.150 HD
ENDROOT
BRANCH   1   5
ATOM      5  C   UNK A   0      -0.273  -6.810   1.852  0.00  0.00    +0.324 C 
BRANCH   5   6
ATOM      6  O   UNK A   0       0.818  -6.144   1.213  0.00  0.00    -0.482 OA
BRANCH   6  10
ATOM      7  C   UNK A   0       0.762  -2.018   1.233  0.00  0.00    -0.046 A 
ATOM      8  C   UNK A   0      -0.263  -2.725   1.833  0.00  0.00    +0.007 A 
ATOM      9  C   UNK A   0      -0.247  -4.106   1.828  0.00  0.00    +0.047 A 
ATOM     10  C   UNK A   0       0.799  -4.784   1.219  0.00  0.00    +0.135 A 
ATOM     11  C   UNK A   0       1.827  -4.072   0.617  0.00  0.00    +0.060 A 
ATOM     12  C   UNK A   0       1.803  -2.690   0.621  0.00  0.00    +0.022 A 
ATOM     13 BR   UNK A   0       3.256  -4.992  -0.214  0.00  0.00    -0.047 Br
BRANCH   7  14
ATOM     14  C   UNK A   0       0.742  -0.511   1.242  0.00  0.00    +0.035 C 
BRANCH  14  16
ATOM     15  C   UNK A   0      -0.019   1.526   0.010  0.00  0.00    +0.004 C 
ATOM     16  C   UNK A   0       0.002  -0.004   0.002  0.00  0.00    +0.001 C 
ENDBRANCH  14  16
ENDBRANCH   7  14
ENDBRANCH   6  10
ENDBRANCH   5   6
ENDBRANCH   1   5
BRANCH   3  17
ATOM     17  CA  TRP A   1      -0.809 -10.586   2.177  0.00  0.00    +0.191 C 
BRANCH  17  18
ATOM     18  C   TRP A   1       0.075 -11.062   3.302  0.00  0.00    +0.376 C 
ATOM     19  O   TRP A   1       0.073 -10.472   4.369  0.00  0.00    -0.244 OA
ATOM     20  OXT TRP A   1       0.791 -12.036   3.144  0.00  0.00    -0.244 OA
ENDBRANCH  17  18
BRANCH  17  21
ATOM     21  CB  TRP A   1      -2.168 -11.282   2.267  0.00  0.00    +0.071 C 
BRANCH  21  22
ATOM     22  CG  TRP A   1      -3.008 -10.901   1.075  0.00  0.00    -0.020 A 
ATOM     23  CD1 TRP A   1      -3.912  -9.911   1.019  0.00  0.00    +0.087 A 
ATOM     24  NE1 TRP A   1      -4.476  -9.864  -0.227  0.00  0.00    -0.360 N 
ATOM     25  HE1 TRP A   1      -5.156  -9.232  -0.507  0.00  0.00    +0.165 HD
ATOM     26  CE2 TRP A   1      -3.936 -10.850  -1.023  0.00  0.00    +0.047 A 
ATOM     27  CD2 TRP A   1      -2.988 -11.538  -0.244  0.00  0.00    +0.003 A 
ATOM     28  CE3 TRP A   1      -2.269 -12.599  -0.799  0.00  0.00    +0.010 A 
ATOM     29  CZ3 TRP A   1      -2.488 -12.960  -2.098  0.00  0.00    +0.001 A 
ATOM     30  CH2 TRP A   1      -3.419 -12.281  -2.872  0.00  0.00    +0.002 A 
ATOM     31  CZ2 TRP A   1      -4.146 -11.238  -2.341  0.00  0.00    +0.026 A 
ENDBRANCH  21  22
ENDBRANCH  17  21
ENDBRANCH   3  17
TORSDOF 9
