REMARK  Name = ZINC53459820
REMARK  5 active torsions:
REMARK  status: ('A' for Active; 'I' for Inactive)
REMARK    1  A    between atoms: C_1  and  C_2
REMARK    2  A    between atoms: N_4  and  C_5
REMARK    3  A    between atoms: C_5  and  C_7
REMARK    4  A    between atoms: C_5  and  C_12
REMARK    5  A    between atoms: C_17  and  C_20
REMARK                            x       y       z     vdW  Elec       q    Type
REMARK                         _______ _______ _______ _____ _____    ______ ____
ROOT
ATOM      1  C   UNL     1      -0.368  -2.557  -2.537  0.00  0.00    +0.239 C 
ATOM      2  O   UNL     1      -0.883  -1.745  -3.276  0.00  0.00    -0.273 OA
ATOM      3  N   UNL     1      -0.249  -3.842  -2.925  0.00  0.00    -0.263 N 
ATOM      4  C   UNL     1      -0.613  -4.215  -4.213  0.00  0.00    +0.165 A 
ATOM      5  N   UNL     1      -0.578  -5.407  -4.778  0.00  0.00    -0.225 NA
ATOM      6  C   UNL     1      -0.967  -5.586  -6.032  0.00  0.00    +0.082 A 
ATOM      7  C   UNL     1      -1.412  -4.514  -6.755  0.00  0.00    +0.077 A 
ATOM      8  S   UNL     1      -1.258  -3.209  -5.542  0.00  0.00    -0.060 S 
ATOM      9  H   UNL     1       0.089  -4.506  -2.305  0.00  0.00    +0.157 HD
ENDROOT
BRANCH   6  10
ATOM     10  C   UNL     1      -0.918  -6.935  -6.646  0.00  0.00    +0.019 A 
ATOM     11  C   UNL     1      -1.322  -7.117  -7.967  0.00  0.00    +0.011 A 
ATOM     12  C   UNL     1      -1.275  -8.375  -8.534  0.00  0.00    +0.001 A 
ATOM     13  C   UNL     1      -0.829  -9.454  -7.792  0.00  0.00    +0.001 A 
ATOM     14  C   UNL     1      -0.427  -9.280  -6.481  0.00  0.00    +0.020 A 
ATOM     15  C   UNL     1      -0.463  -8.025  -5.905  0.00  0.00    +0.050 A 
ATOM     16 CL   UNL     1       0.049  -7.807  -4.260  0.00  0.00    -0.083 Cl
ENDBRANCH   6  10
BRANCH   1  17
ATOM     17  C   UNL     1       0.140  -2.128  -1.184  0.00  0.00    +0.162 C 
BRANCH  17  21
ATOM     18  C   UNL     1      -1.278   0.762   0.886  0.00  0.00    +0.109 C 
ATOM     19  C   UNL     1      -0.715  -0.579   0.491  0.00  0.00    +0.211 C 
ATOM     20  O   UNL     1      -0.468  -1.407   1.342  0.00  0.00    -0.276 OA
ATOM     21  N   UNL     1      -0.487  -0.859  -0.807  0.00  0.00    -0.304 N 
ATOM     22  H   UNL     1      -0.737  -0.219  -1.492  0.00  0.00    +0.149 HD
ENDBRANCH  17  21
BRANCH  17  23
ATOM     23  C   UNL     1       1.658  -1.950  -1.242  0.00  0.00    +0.018 C 
ATOM     24  C   UNL     1       2.198  -1.561   0.150  0.00  0.00    +0.006 C 
ATOM     25  C   UNL     1       3.333  -0.551  -0.152  0.00  0.00    +0.000 C 
ATOM     26  C   UNL     1       2.763   0.257  -1.344  0.00  0.00    +0.000 C 
ATOM     27  C   UNL     1       2.018  -0.794  -2.192  0.00  0.00    +0.006 C 
ENDBRANCH  17  23
ENDBRANCH   1  17
TORSDOF 4
