REMARK  Name = ZINC38620927
REMARK  7 active torsions:
REMARK  status: ('A' for Active; 'I' for Inactive)
REMARK    1  A    between atoms: C_5  and  N_7
REMARK    2  A    between atoms: N_10  and  C_13
REMARK    3  A    between atoms: C_13  and  C_15
REMARK    4  A    between atoms: C_13  and  C_28
REMARK    5  A    between atoms: C_15  and  N_16
REMARK    6  A    between atoms: N_16  and  S_17
REMARK    7  A    between atoms: S_17  and  C_20
REMARK                            x       y       z     vdW  Elec       q    Type
REMARK                         _______ _______ _______ _____ _____    ______ ____
ROOT
ATOM      1  C   UNL     1      -0.659  -5.824  -0.034  0.00  0.00    +0.102 C 
ENDROOT
BRANCH   1   2
ATOM      2  C   UNL     1      -2.069  -5.296  -0.094  0.00  0.00    -0.025 A 
ATOM      3  C   UNL     1      -2.714  -5.189  -1.313  0.00  0.00    +0.009 A 
ATOM      4  C   UNL     1      -4.008  -4.706  -1.373  0.00  0.00    +0.050 A 
ATOM      5  C   UNL     1      -4.662  -4.327  -0.212  0.00  0.00    +0.166 A 
ATOM      6  C   UNL     1      -4.013  -4.435   1.015  0.00  0.00    +0.167 A 
ATOM      7  C   UNL     1      -2.718  -4.925   1.069  0.00  0.00    +0.054 A 
ATOM      8  O   UNL     1      -4.859  -4.004   1.996  0.00  0.00    -0.453 OA
ATOM      9  C   UNL     1      -5.881  -3.250   1.317  0.00  0.00    +0.466 C 
ATOM     10  O   UNL     1      -5.915  -3.829  -0.001  0.00  0.00    -0.453 OA
ENDBRANCH   1   2
BRANCH   1  14
ATOM     11  N   UNL     1       1.153  -2.512  -1.869  0.00  0.00    -0.325 N 
ATOM     12  C   UNL     1       1.355  -2.667  -0.420  0.00  0.00    +0.120 C 
ATOM     13  C   UNL     1       0.262  -3.590   0.128  0.00  0.00    +0.104 C 
ATOM     14  N   UNL     1       0.256  -4.845  -0.635  0.00  0.00    -0.291 NA
ATOM     15  C   UNL     1      -0.079  -4.609  -2.046  0.00  0.00    +0.104 C 
ATOM     16  C   UNL     1       0.994  -3.727  -2.683  0.00  0.00    +0.120 C 
BRANCH  11  21
ATOM     17  C   UNL     1      -0.146   0.677  -3.155  0.00  0.00    +0.002 A 
ATOM     18  C   UNL     1       1.015   1.266  -3.619  0.00  0.00    +0.003 A 
ATOM     19  C   UNL     1       2.224   0.604  -3.504  0.00  0.00    +0.040 A 
ATOM     20  C   UNL     1       2.274  -0.650  -2.924  0.00  0.00    +0.144 A 
ATOM     21  C   UNL     1       1.107  -1.244  -2.456  0.00  0.00    +0.065 A 
ATOM     22  C   UNL     1      -0.104  -0.575  -2.574  0.00  0.00    +0.026 A 
ATOM     23  F   UNL     1       3.455  -1.297  -2.812  0.00  0.00    -0.204 F 
ENDBRANCH  11  21
ENDBRANCH   1  14
BRANCH   1  24
ATOM     24  C   UNL     1      -0.574  -7.142  -0.804  0.00  0.00    +0.129 C 
BRANCH  24  25
ATOM     25  N   UNL     1       0.819  -7.595  -0.847  0.00  0.00    -0.188 NA
ATOM     26  H   UNL     1       1.535  -6.981  -0.621  0.00  0.00    +0.148 HD
BRANCH  25  27
ATOM     27  S   UNL     1       1.170  -9.153  -1.281  0.00  0.00    +0.064 S 
ATOM     28  O   UNL     1       2.586  -9.273  -1.253  0.00  0.00    -0.153 OA
ATOM     29  O   UNL     1       0.319  -9.991  -0.511  0.00  0.00    -0.153 OA
BRANCH  27  30
ATOM     30  C   UNL     1       0.681  -9.349  -2.963  0.00  0.00    +0.175 A 
ATOM     31  C   UNL     1      -0.603  -9.766  -3.267  0.00  0.00    +0.152 A 
ATOM     32  C   UNL     1      -0.986  -9.919  -4.588  0.00  0.00    +0.040 A 
ATOM     33  C   UNL     1      -0.087  -9.656  -5.604  0.00  0.00    +0.006 A 
ATOM     34  C   UNL     1       1.196  -9.240  -5.302  0.00  0.00    +0.040 A 
ATOM     35  C   UNL     1       1.580  -9.080  -3.981  0.00  0.00    +0.152 A 
ATOM     36  F   UNL     1       2.832  -8.668  -3.686  0.00  0.00    -0.203 F 
ATOM     37  F   UNL     1      -1.483 -10.023  -2.274  0.00  0.00    -0.203 F 
ENDBRANCH  27  30
ENDBRANCH  25  27
ENDBRANCH  24  25
ENDBRANCH   1  24
TORSDOF 7
