REMARK  Name = ZINC01180664
REMARK  5 active torsions:
REMARK  status: ('A' for Active; 'I' for Inactive)
REMARK    1  A    between atoms: C_10  and  C_12
REMARK    2  A    between atoms: N_14  and  C_15
REMARK    3  A    between atoms: C_15  and  N_17
REMARK    4  A    between atoms: N_17  and  C_18
REMARK    5  A    between atoms: C_20  and  N_25
REMARK                            x       y       z     vdW  Elec       q    Type
REMARK                         _______ _______ _______ _____ _____    ______ ____
ROOT
ATOM      1  C   UNL     1       1.298  -1.916  -0.635  0.00  0.00    +0.250 C 
ATOM      2  O   UNL     1       0.274  -2.563  -0.731  0.00  0.00    -0.270 OA
ATOM      3  N   UNL     1       1.238  -0.591  -0.397  0.00  0.00    -0.264 N 
ATOM      4  H   UNL     1       2.056  -0.074  -0.321  0.00  0.00    +0.157 HD
ENDROOT
BRANCH   1  14
ATOM      5  C   UNL     1       5.015  -2.511  -0.686  0.00  0.00    +0.001 A 
ATOM      6  C   UNL     1       5.117  -3.820  -1.046  0.00  0.00    +0.009 A 
ATOM      7  C   UNL     1       3.966  -4.587  -1.294  0.00  0.00    -0.003 A 
ATOM      8  C   UNL     1       2.689  -3.987  -1.167  0.00  0.00    -0.005 A 
ATOM      9  C   UNL     1       1.540  -4.747  -1.414  0.00  0.00    +0.009 A 
ATOM     10  C   UNL     1       1.662  -6.056  -1.774  0.00  0.00    +0.002 A 
ATOM     11  C   UNL     1       2.915  -6.650  -1.901  0.00  0.00    +0.016 A 
ATOM     12  C   UNL     1       4.055  -5.940  -1.667  0.00  0.00    +0.026 A 
ATOM     13 BR   UNL     1       5.745  -6.769  -1.844  0.00  0.00    -0.050 Br
ATOM     14  C   UNL     1       2.606  -2.580  -0.779  0.00  0.00    +0.045 A 
ATOM     15  C   UNL     1       3.785  -1.881  -0.554  0.00  0.00    +0.014 A 
ENDBRANCH   1  14
BRANCH   3  16
ATOM     16  C   UNL     1       0.043   0.017  -0.266  0.00  0.00    +0.141 C 
ATOM     17  S   UNL     1      -1.400  -0.894  -0.401  0.00  0.00    -0.018 S 
BRANCH  16  18
ATOM     18  N   UNL     1      -0.017   1.342  -0.028  0.00  0.00    -0.294 N 
ATOM     19  H   UNL     1       0.799   1.847   0.115  0.00  0.00    +0.154 HD
BRANCH  18  20
ATOM     20  C   UNL     1      -1.257   1.992   0.007  0.00  0.00    +0.070 A 
ATOM     21  C   UNL     1      -2.310   1.444   0.727  0.00  0.00    +0.059 A 
ATOM     22  C   UNL     1      -3.530   2.089   0.763  0.00  0.00    +0.128 A 
ATOM     23  C   UNL     1      -3.709   3.276   0.075  0.00  0.00    +0.035 A 
ATOM     24  C   UNL     1      -2.665   3.823  -0.647  0.00  0.00    +0.042 A 
ATOM     25  C   UNL     1      -1.438   3.185  -0.684  0.00  0.00    +0.145 A 
ATOM     26  F   UNL     1      -0.418   3.720  -1.390  0.00  0.00    -0.204 F 
BRANCH  22  27
ATOM     27  N   UNL     1      -4.652   1.507   1.535  0.00  0.00    +0.056 N 
ATOM     28  O   UNL     1      -5.730   2.073   1.563  0.00  0.00    -0.126 OA
ATOM     29  O   UNL     1      -4.496   0.462   2.141  0.00  0.00    -0.126 OA
ENDBRANCH  22  27
ENDBRANCH  18  20
ENDBRANCH  16  18
ENDBRANCH   3  16
TORSDOF 5
