REMARK  Name = ZINC26095179
REMARK  10 active torsions:
REMARK  status: ('A' for Active; 'I' for Inactive)
REMARK    1  A    between atoms: C_1  and  C_2
REMARK    2  A    between atoms: C_4  and  C_24
REMARK    3  A    between atoms: C_5  and  C_23
REMARK    4  A    between atoms: C_6  and  O_8
REMARK    5  A    between atoms: O_8  and  C_9
REMARK    6  A    between atoms: C_9  and  C_11
REMARK    7  A    between atoms: C_17  and  C_19
REMARK    8  A    between atoms: C_19  and  C_20
REMARK    9  A    between atoms: C_19  and  C_21
REMARK   10  A    between atoms: C_19  and  C_22
REMARK                            x       y       z     vdW  Elec       q    Type
REMARK                         _______ _______ _______ _____ _____    ______ ____
ROOT
ATOM      1  C   UNL     1       4.668  -0.030  -0.210  0.00  0.00    +0.316 C 
ATOM      2  O   UNL     1       4.574   1.174  -0.233  0.00  0.00    -0.250 OA
ENDROOT
BRANCH   1   3
ATOM      3  C   UNL     1       6.021  -0.683  -0.328  0.00  0.00    +0.101 C 
ATOM      4  C   UNL     1       6.293  -1.523   0.923  0.00  0.00    +0.033 C 
ATOM      5  C   UNL     1       7.654  -2.212   0.785  0.00  0.00    +0.108 C 
ATOM      6  N   UNL     1       8.675  -1.192   0.509  0.00  0.00    -0.301 N 
ATOM      7  C   UNL     1       8.468  -0.272  -0.617  0.00  0.00    +0.108 C 
ATOM      8  C   UNL     1       7.098   0.396  -0.463  0.00  0.00    +0.033 C 
ATOM      9  C   UNL     1       9.780  -1.102   1.276  0.00  0.00    +0.221 C 
ATOM     10  O   UNL     1      10.568  -0.197   1.099  0.00  0.00    -0.275 OA
BRANCH   9  11
ATOM     11  C   UNL     1      10.035  -2.125   2.352  0.00  0.00    +0.039 C 
ATOM     12  C   UNL     1      11.431  -1.908   2.941  0.00  0.00    +0.020 C 
ATOM     13  C   UNL     1       8.987  -1.976   3.457  0.00  0.00    +0.020 C 
ATOM     14  C   UNL     1       9.948  -3.530   1.752  0.00  0.00    +0.020 C 
ENDBRANCH   9  11
ENDBRANCH   1   3
BRANCH   1  15
ATOM     15  O   UNL     1       3.566  -0.787  -0.081  0.00  0.00    -0.425 OA
BRANCH  15  21
ATOM     16  C   UNL     1      -0.200   1.084   2.397  0.00  0.00    +0.044 C 
ATOM     17  C   UNL     1       0.506   0.787   1.098  0.00  0.00    -0.047 A 
ATOM     18  C   UNL     1      -0.065   1.171  -0.101  0.00  0.00    +0.007 A 
ATOM     19  C   UNL     1       0.580   0.900  -1.294  0.00  0.00    -0.044 A 
ATOM     20  C   UNL     1       1.796   0.244  -1.290  0.00  0.00    -0.005 A 
ATOM     21  C   UNL     1       2.370  -0.142  -0.088  0.00  0.00    +0.135 A 
ATOM     22  C   UNL     1       1.721   0.131   1.108  0.00  0.00    +0.050 A 
ATOM     23  C   UNL     1       2.498  -0.050  -2.590  0.00  0.00    +0.048 C 
ATOM     24  C   UNL     1      -0.044   1.321  -2.600  0.00  0.00    +0.044 C 
ENDBRANCH  15  21
ENDBRANCH   1  15
TORSDOF 4
