REMARK  Name = ZINC66690934
REMARK  3 active torsions:
REMARK  status: ('A' for Active; 'I' for Inactive)
REMARK    1  A    between atoms: C_5  and  C_7
REMARK    2  A    between atoms: C_14  and  C_16
REMARK    3  A    between atoms: C_17  and  C_18
REMARK                            x       y       z     vdW  Elec       q    Type
REMARK                         _______ _______ _______ _____ _____    ______ ____
ROOT
ATOM      1  C   UNL     1       1.229  -2.182  -0.016  0.00  0.00    +0.168 C 
ATOM      2  C   UNL     1       1.369  -2.704   1.418  0.00  0.00    +0.144 C 
ATOM      3  N   UNL     1       1.202  -4.166   1.398  0.00  0.00    -0.293 N 
ATOM      4  C   UNL     1       0.025  -4.718   0.708  0.00  0.00    +0.136 C 
ATOM      5  C   UNL     1      -0.050  -4.097  -0.692  0.00  0.00    +0.179 C 
ATOM      6  O   UNL     1       0.011  -2.673  -0.580  0.00  0.00    -0.369 OA
ATOM      7  C   UNL     1       2.100  -4.976   1.993  0.00  0.00    +0.240 C 
ATOM      8  O   UNL     1       3.116  -4.508   2.475  0.00  0.00    -0.271 OA
ENDROOT
BRANCH   1  13
ATOM      9  C   UNL     1      -0.023   1.380   0.022  0.00  0.00    +0.001 A 
ATOM     10  C   UNL     1       1.162   2.091   0.021  0.00  0.00    +0.003 A 
ATOM     11  C   UNL     1       2.371   1.421   0.007  0.00  0.00    +0.039 A 
ATOM     12  C   UNL     1       2.394   0.036  -0.004  0.00  0.00    +0.129 A 
ATOM     13  C   UNL     1       1.206  -0.675  -0.003  0.00  0.00    +0.018 A 
ATOM     14  C   UNL     1      -0.002  -0.002   0.010  0.00  0.00    +0.009 A 
ATOM     15  F   UNL     1       3.574  -0.621  -0.018  0.00  0.00    -0.205 F 
ENDBRANCH   1  13
BRANCH   7  16
ATOM     16  C   UNL     1       1.863  -6.363   2.058  0.00  0.00    +0.069 C 
ATOM     17  C   UNL     1       2.719  -7.169   2.747  0.00  0.00    +0.034 C 
BRANCH  17  18
ATOM     18  C   UNL     1       2.482  -8.555   2.812  0.00  0.00    +0.085 A 
ATOM     19  C   UNL     1       1.290  -9.174   3.152  0.00  0.00    +0.156 A 
ATOM     20  N   UNL     1       1.481 -10.488   3.095  0.00  0.00    -0.209 NA
ATOM     21  C   UNL     1       2.716 -10.738   2.740  0.00  0.00    +0.179 A 
ATOM     22  N   UNL     1       3.409  -9.577   2.538  0.00  0.00    -0.292 N 
ATOM     23  C   UNL     1       4.724  -9.691   2.153  0.00  0.00    +0.101 A 
ATOM     24  C   UNL     1       5.285 -10.889   1.985  0.00  0.00    +0.067 A 
ATOM     25  S   UNL     1       3.934 -11.986   2.389  0.00  0.00    -0.058 S 
ATOM     26 CL   UNL     1      -0.190  -8.374   3.578  0.00  0.00    -0.060 Cl
ENDBRANCH  17  18
ENDBRANCH   7  16
TORSDOF 3
