REMARK  Name = ZINC14151973
REMARK  5 active torsions:
REMARK  status: ('A' for Active; 'I' for Inactive)
REMARK    1  A    between atoms: C_3  and  C_9
REMARK    2  A    between atoms: C_10  and  C_11
REMARK    3  A    between atoms: C_10  and  C_13
REMARK    4  A    between atoms: N_15  and  C_16
REMARK    5  A    between atoms: C_17  and  C_25
REMARK                            x       y       z     vdW  Elec       q    Type
REMARK                         _______ _______ _______ _____ _____    ______ ____
ROOT
ATOM      1  C   UNL     1       2.447   1.241  -0.097  0.00  0.00    +0.259 C 
ATOM      2  O   UNL     1       2.560   0.054   0.144  0.00  0.00    -0.269 OA
ATOM      3  N   UNL     1       3.546   1.998  -0.285  0.00  0.00    -0.274 N 
ATOM      4  H   UNL     1       3.455   2.945  -0.478  0.00  0.00    +0.156 HD
ENDROOT
BRANCH   3   5
ATOM      5  C   UNL     1       4.805   1.425  -0.203  0.00  0.00    +0.090 A 
ATOM      6  C   UNL     1       6.041   2.032  -0.370  0.00  0.00    +0.084 A 
ATOM      7  C   UNL     1       7.223   1.201  -0.227  0.00  0.00    -0.018 A 
ATOM      8  C   UNL     1       6.982  -0.100   0.048  0.00  0.00    -0.004 A 
ATOM      9  S   UNL     1       5.217  -0.226   0.124  0.00  0.00    -0.077 S 
ATOM     10  C   UNL     1       7.995  -1.186   0.241  0.00  0.00    +0.043 C 
ATOM     11  C   UNL     1       9.347  -0.685  -0.287  0.00  0.00    +0.005 C 
ATOM     12  C   UNL     1       9.607   0.717   0.272  0.00  0.00    +0.005 C 
ATOM     13  C   UNL     1       8.649   1.720  -0.373  0.00  0.00    +0.037 C 
BRANCH   6  14
ATOM     14  C   UNL     1       6.148   3.429  -0.669  0.00  0.00    +0.102 C 
ATOM     15  N   UNL     1       6.233   4.537  -0.906  0.00  0.00    -0.191 NA
ENDBRANCH   6  14
ENDBRANCH   3   5
BRANCH   1  17
ATOM     16  C   UNL     1      -0.013   1.076   0.008  0.00  0.00    +0.033 C 
ATOM     17  C   UNL     1       1.110   1.850  -0.184  0.00  0.00    +0.114 C 
BRANCH  16  20
ATOM     18  C   UNL     1      -2.730   3.574   0.647  0.00  0.00    +0.020 A 
ATOM     19  C   UNL     1      -1.483   2.990   0.600  0.00  0.00    +0.011 A 
ATOM     20  C   UNL     1      -1.335   1.704   0.062  0.00  0.00    -0.005 A 
ATOM     21  C   UNL     1      -2.460   1.025  -0.428  0.00  0.00    +0.050 A 
ATOM     22  C   UNL     1      -3.702   1.622  -0.368  0.00  0.00    +0.040 A 
ATOM     23  C   UNL     1      -3.837   2.894   0.166  0.00  0.00    +0.042 A 
ATOM     24 CL   UNL     1      -5.404   3.639   0.231  0.00  0.00    -0.083 Cl
ATOM     25 CL   UNL     1      -2.291  -0.566  -1.103  0.00  0.00    -0.083 Cl
ENDBRANCH  16  20
BRANCH  17  26
ATOM     26  C   UNL     1       0.977   3.247  -0.468  0.00  0.00    +0.104 C 
ATOM     27  N   UNL     1       0.871   4.355  -0.694  0.00  0.00    -0.191 NA
ENDBRANCH  17  26
ENDBRANCH   1  17
TORSDOF 5
