REMARK  Name = ZINC02636838
REMARK  4 active torsions:
REMARK  status: ('A' for Active; 'I' for Inactive)
REMARK    1  A    between atoms: C_6  and  S_7
REMARK    2  A    between atoms: S_7  and  N_10
REMARK    3  A    between atoms: C_16  and  C_18
REMARK    4  A    between atoms: C_18  and  N_19
REMARK                            x       y       z     vdW  Elec       q    Type
REMARK                         _______ _______ _______ _____ _____    ______ ____
ROOT
ATOM      1  N   UNL     1      -1.948  -1.147  -1.567  0.00  0.00    -0.174 NA
ATOM      2  C   UNL     1      -2.787  -0.167  -2.270  0.00  0.00    +0.128 C 
ATOM      3  C   UNL     1      -2.062   0.273  -3.547  0.00  0.00    +0.125 C 
ATOM      4  N   UNL     1      -1.616  -0.926  -4.271  0.00  0.00    -0.298 N 
ATOM      5  C   UNL     1      -0.777  -1.907  -3.568  0.00  0.00    +0.125 C 
ATOM      6  C   UNL     1      -1.498  -2.344  -2.292  0.00  0.00    +0.128 C 
ATOM      7  C   UNL     1      -1.971  -1.123  -5.556  0.00  0.00    +0.234 C 
ATOM      8  O   UNL     1      -2.664  -0.306  -6.125  0.00  0.00    -0.274 OA
ENDROOT
BRANCH   1   9
ATOM      9  S   UNL     1      -1.512  -0.905   0.012  0.00  0.00    +0.061 S 
ATOM     10  O   UNL     1      -1.218  -2.186   0.553  0.00  0.00    -0.153 OA
ATOM     11  O   UNL     1      -2.492  -0.046   0.577  0.00  0.00    -0.153 OA
BRANCH   9  17
ATOM     12  C   UNL     1      -0.017   1.378   0.010  0.00  0.00    +0.030 A 
ATOM     13  C   UNL     1       1.171   2.086   0.002  0.00  0.00    +0.022 A 
ATOM     14  C   UNL     1       2.378   1.410  -0.013  0.00  0.00    +0.041 A 
ATOM     15  C   UNL     1       2.396   0.027  -0.021  0.00  0.00    +0.022 A 
ATOM     16  C   UNL     1       1.208  -0.679  -0.013  0.00  0.00    +0.030 A 
ATOM     17  C   UNL     1       0.002  -0.004   0.002  0.00  0.00    +0.106 A 
ATOM     18 CL   UNL     1       3.870   2.298  -0.023  0.00  0.00    -0.084 Cl
ENDBRANCH   9  17
ENDBRANCH   1   9
BRANCH   7  19
ATOM     19  C   UNL     1      -1.507  -2.357  -6.285  0.00  0.00    +0.213 C 
BRANCH  19  20
ATOM     20  N   UNL     1      -2.022  -2.337  -7.657  0.00  0.00    -0.215 N 
ATOM     21  C   UNL     1      -3.205  -2.864  -8.028  0.00  0.00    +0.247 C 
ATOM     22  O   UNL     1      -4.011  -3.425  -7.317  0.00  0.00    -0.273 OA
ATOM     23  C   UNL     1      -3.321  -2.610  -9.522  0.00  0.00    +0.113 C 
ATOM     24  C   UNL     1      -4.488  -1.621  -9.743  0.00  0.00    +0.035 C 
ATOM     25  C   UNL     1      -4.280  -0.912 -11.053  0.00  0.00    +0.003 C 
ATOM     26  C   UNL     1      -5.016  -1.595 -12.222  0.00  0.00    +0.000 C 
ATOM     27  C   UNL     1      -4.906  -3.131 -12.181  0.00  0.00    +0.000 C 
ATOM     28  C   UNL     1      -3.524  -3.595 -11.806  0.00  0.00    +0.003 C 
ATOM     29  C   UNL     1      -3.489  -3.840 -10.286  0.00  0.00    +0.035 C 
ATOM     30  N   UNL     1      -2.063  -1.906  -9.844  0.00  0.00    -0.285 N 
ATOM     31  C   UNL     1      -1.379  -1.788  -8.693  0.00  0.00    +0.310 C 
ATOM     32  O   UNL     1      -0.295  -1.246  -8.604  0.00  0.00    -0.252 OA
ATOM     33  H   UNL     1      -1.786  -1.587 -10.717  0.00  0.00    +0.151 HD
ENDBRANCH  19  20
ENDBRANCH   7  19
TORSDOF 4
