REMARK  Name = ZINC09003973
REMARK  8 active torsions:
REMARK  status: ('A' for Active; 'I' for Inactive)
REMARK    1  A    between atoms: C_1  and  C_2
REMARK    2  A    between atoms: C_9  and  N_28
REMARK    3  A    between atoms: C_10  and  C_13
REMARK    4  A    between atoms: C_14  and  C_15
REMARK    5  A    between atoms: C_14  and  C_17
REMARK    6  A    between atoms: N_19  and  C_20
REMARK    7  A    between atoms: C_30  and  C_37
REMARK    8  A    between atoms: C_33  and  C_36
REMARK                            x       y       z     vdW  Elec       q    Type
REMARK                         _______ _______ _______ _____ _____    ______ ____
ROOT
ATOM      1  C   UNL     1       0.845   1.414   0.040  0.00  0.00    +0.047 C 
ATOM      2  C   UNL     1       0.541  -0.062   0.009  0.00  0.00    -0.007 A 
ATOM      3  C   UNL     1       0.532  -0.736  -1.177  0.00  0.00    +0.008 A 
ATOM      4  C   UNL     1       0.248  -2.107  -1.190  0.00  0.00    +0.019 A 
ATOM      5  C   UNL     1      -0.015  -2.756  -0.033  0.00  0.00    +0.096 A 
ATOM      6  N   UNL     1      -0.009  -2.091   1.157  0.00  0.00    -0.267 N 
ATOM      7  C   UNL     1       0.270  -0.754   1.202  0.00  0.00    +0.145 A 
ATOM      8  N   UNL     1       0.286  -0.086   2.357  0.00  0.00    -0.213 NA
ATOM      9  C   UNL     1       0.040  -0.684   3.511  0.00  0.00    +0.136 A 
ATOM     10  C   UNL     1      -0.251  -2.073   3.530  0.00  0.00    +0.081 A 
ATOM     11  C   UNL     1      -0.277  -2.770   2.293  0.00  0.00    +0.267 A 
ATOM     12  O   UNL     1      -0.522  -3.963   2.260  0.00  0.00    -0.267 OA
ENDROOT
BRANCH   9  13
ATOM     13  N   UNL     1       0.065   0.034   4.684  0.00  0.00    -0.310 N 
ATOM     14  C   UNL     1       0.639  -0.539   5.912  0.00  0.00    +0.138 C 
ATOM     15  C   UNL     1       1.637   0.468   6.495  0.00  0.00    +0.133 C 
ATOM     16  O   UNL     1       0.999   1.740   6.627  0.00  0.00    -0.371 OA
ATOM     17  C   UNL     1       0.571   2.312   5.388  0.00  0.00    +0.133 C 
ATOM     18  C   UNL     1      -0.476   1.401   4.747  0.00  0.00    +0.138 C 
ATOM     19  C   UNL     1      -0.036   3.692   5.645  0.00  0.00    +0.039 C 
ATOM     20  C   UNL     1       2.106  -0.015   7.869  0.00  0.00    +0.039 C 
ENDBRANCH   9  13
BRANCH  10  21
ATOM     21  C   UNL     1      -0.517  -2.738   4.739  0.00  0.00    +0.040 C 
ATOM     22  C   UNL     1       0.349  -3.723   5.194  0.00  0.00    +0.114 C 
BRANCH  22  23
ATOM     23  C   UNL     1       0.006  -4.508   6.385  0.00  0.00    +0.255 C 
ATOM     24  O   UNL     1      -1.037  -4.295   6.974  0.00  0.00    -0.269 OA
ATOM     25  N   UNL     1       0.847  -5.464   6.827  0.00  0.00    -0.306 N 
ATOM     26  H   UNL     1       1.679  -5.633   6.358  0.00  0.00    +0.149 HD
BRANCH  25  27
ATOM     27  C   UNL     1       0.505  -6.247   8.017  0.00  0.00    +0.096 C 
ATOM     28  C   UNL     1       0.973  -5.505   9.280  0.00  0.00    +0.046 C 
ATOM     29  C   UNL     1       0.910  -6.452  10.502  0.00  0.00    +0.168 C 
ATOM     30  S   UNL     1       1.152  -8.109   9.742  0.00  0.00    -0.029 S 
ATOM     31  O   UNL     1      -0.015  -8.891   9.957  0.00  0.00    -0.174 OA
ATOM     32  O   UNL     1       2.418  -8.619  10.138  0.00  0.00    -0.174 OA
ATOM     33  C   UNL     1       1.230  -7.622   7.967  0.00  0.00    +0.188 C 
ENDBRANCH  25  27
ENDBRANCH  22  23
BRANCH  22  34
ATOM     34  C   UNL     1       1.577  -3.974   4.501  0.00  0.00    +0.104 C 
ATOM     35  N   UNL     1       2.551  -4.172   3.951  0.00  0.00    -0.191 NA
ENDBRANCH  22  34
ENDBRANCH  10  21
TORSDOF 5
