REMARK  Name = ZINC14465017
REMARK  7 active torsions:
REMARK  status: ('A' for Active; 'I' for Inactive)
REMARK    1  A    between atoms: C_1  and  C_2
REMARK    2  A    between atoms: C_2  and  N_3
REMARK    3  A    between atoms: N_3  and  C_4
REMARK    4  A    between atoms: N_3  and  S_6
REMARK    5  A    between atoms: C_4  and  C_5
REMARK    6  A    between atoms: S_6  and  C_9
REMARK    7  A    between atoms: C_22  and  C_25
REMARK                            x       y       z     vdW  Elec       q    Type
REMARK                         _______ _______ _______ _____ _____    ______ ____
ROOT
ATOM      1  C   UNL     1      -0.014  -2.780   0.016  0.00  0.00    +0.106 A 
ATOM      2  C   UNL     1      -1.207  -2.080   0.001  0.00  0.00    +0.030 A 
ATOM      3  C   UNL     1      -1.200  -0.701  -0.005  0.00  0.00    +0.025 A 
ATOM      4  C   UNL     1       0.002  -0.004   0.002  0.00  0.00    +0.031 A 
ATOM      5  C   UNL     1       1.205  -0.719   0.004  0.00  0.00    -0.018 A 
ATOM      6  C   UNL     1       1.188  -2.097   0.018  0.00  0.00    +0.034 A 
ATOM      7  C   UNL     1       2.462   0.059  -0.019  0.00  0.00    +0.049 C 
ATOM      8  C   UNL     1       3.726  -0.468   0.555  0.00  0.00    -0.023 C 
ATOM      9  C   UNL     1       4.444   0.553   1.008  0.00  0.00    -0.030 C 
ATOM     10  C   UNL     1       3.682   1.863   0.796  0.00  0.00    +0.033 C 
ATOM     11  C   UNL     1       2.235   1.362   0.804  0.00  0.00    +0.029 C 
ATOM     12  C   UNL     1       1.238   2.179   0.002  0.00  0.00    +0.105 C 
ATOM     13  N   UNL     1      -0.017   1.396   0.010  0.00  0.00    -0.336 N 
ATOM     14  H   UNL     1      -0.868   1.861   0.016  0.00  0.00    +0.147 HD
ENDROOT
BRANCH  12  15
ATOM     15  C   UNL     1       1.018   3.520   0.654  0.00  0.00    -0.027 A 
ATOM     16  C   UNL     1       0.227   3.618   1.784  0.00  0.00    +0.007 A 
ATOM     17  C   UNL     1       0.030   4.846   2.386  0.00  0.00    +0.020 A 
ATOM     18  C   UNL     1       0.616   5.980   1.851  0.00  0.00    +0.041 A 
ATOM     19  C   UNL     1       1.404   5.882   0.718  0.00  0.00    +0.020 A 
ATOM     20  C   UNL     1       1.604   4.652   0.120  0.00  0.00    +0.007 A 
ATOM     21 CL   UNL     1       0.364   7.524   2.603  0.00  0.00    -0.084 Cl
ENDBRANCH  12  15
BRANCH   1  22
ATOM     22  S   UNL     1      -0.027  -4.542   0.032  0.00  0.00    +0.061 S 
ATOM     23  O   UNL     1      -1.271  -4.945  -0.523  0.00  0.00    -0.153 OA
ATOM     24  O   UNL     1       1.220  -4.962  -0.506  0.00  0.00    -0.153 OA
BRANCH  22  25
ATOM     25  N   UNL     1      -0.041  -5.017   1.619  0.00  0.00    -0.177 NA
BRANCH  25  27
ATOM     26  C   UNL     1      -1.704  -6.696   2.245  0.00  0.00    +0.022 C 
ATOM     27  C   UNL     1      -1.316  -5.218   2.312  0.00  0.00    +0.106 C 
ENDBRANCH  25  27
BRANCH  25  28
ATOM     28  C   UNL     1       1.222  -5.236   2.329  0.00  0.00    +0.106 C 
ATOM     29  C   UNL     1       1.604  -3.966   3.092  0.00  0.00    +0.022 C 
ENDBRANCH  25  28
ENDBRANCH  22  25
ENDBRANCH   1  22
TORSDOF 5
