REMARK  Name = ZINC05578821
REMARK  8 active torsions:
REMARK  status: ('A' for Active; 'I' for Inactive)
REMARK    1  A    between atoms: C_1  and  C_2
REMARK    2  A    between atoms: C_2  and  C_3
REMARK    3  A    between atoms: C_3  and  N_4
REMARK    4  A    between atoms: N_4  and  C_5
REMARK    5  A    between atoms: C_6  and  N_21
REMARK    6  A    between atoms: N_7  and  C_14
REMARK    7  A    between atoms: C_14  and  C_15
REMARK    8  A    between atoms: C_22  and  C_24
REMARK                            x       y       z     vdW  Elec       q    Type
REMARK                         _______ _______ _______ _____ _____    ______ ____
ROOT
ATOM      1  C   UNL     1      -3.787   3.356  -3.333  0.00  0.00    +0.140 A 
ATOM      2  C   UNL     1      -4.089   4.699  -3.237  0.00  0.00    +0.128 A 
ATOM      3  N   UNL     1      -3.265   5.523  -2.506  0.00  0.00    -0.276 N 
ATOM      4  C   UNL     1      -2.174   5.026  -1.895  0.00  0.00    +0.331 A 
ATOM      5  O   UNL     1      -1.456   5.771  -1.258  0.00  0.00    -0.246 OA
ATOM      6  N   UNL     1      -1.866   3.719  -1.973  0.00  0.00    -0.273 N 
ATOM      7  H   UNL     1      -1.054   3.374  -1.504  0.00  0.00    +0.173 HD
ATOM      8  C   UNL     1      -2.640   2.870  -2.677  0.00  0.00    +0.277 A 
ATOM      9  O   UNL     1      -2.350   1.687  -2.745  0.00  0.00    -0.266 OA
ENDROOT
BRANCH   1  10
ATOM     10  N   UNL     1      -4.612   2.486  -4.075  0.00  0.00    -0.264 N 
ATOM     11  C   UNL     1      -5.323   1.528  -3.444  0.00  0.00    +0.223 C 
ATOM     12  O   UNL     1      -5.330   1.477  -2.232  0.00  0.00    -0.275 OA
BRANCH  11  13
ATOM     13  C   UNL     1      -6.109   0.522  -4.244  0.00  0.00    +0.076 C 
ATOM     14  C   UNL     1      -7.405   1.167  -4.778  0.00  0.00    +0.013 C 
ATOM     15  C   UNL     1      -8.459   0.035  -4.684  0.00  0.00    +0.001 C 
ATOM     16  C   UNL     1      -8.081  -0.674  -3.360  0.00  0.00    +0.001 C 
ATOM     17  C   UNL     1      -6.539  -0.649  -3.343  0.00  0.00    +0.013 C 
ENDBRANCH  11  13
BRANCH  10  18
ATOM     18  C   UNL     1      -4.698   2.621  -5.531  0.00  0.00    +0.113 C 
BRANCH  18  20
ATOM     19  C   UNL     1      -3.630   2.004  -7.704  0.00  0.00    +0.005 C 
ATOM     20  C   UNL     1      -3.541   1.862  -6.183  0.00  0.00    +0.016 C 
ENDBRANCH  18  20
ENDBRANCH  10  18
ENDBRANCH   1  10
BRANCH   2  21
ATOM     21  N   UNL     1      -5.201   5.208  -3.865  0.00  0.00    -0.343 N 
ATOM     22  H   UNL     1      -5.426   6.146  -3.769  0.00  0.00    +0.144 HD
ATOM     23  H   UNL     1      -5.761   4.628  -4.404  0.00  0.00    +0.144 HD
ENDBRANCH   2  21
BRANCH   3  24
ATOM     24  C   UNL     1      -3.574   6.951  -2.396  0.00  0.00    +0.163 C 
BRANCH  24  25
ATOM     25  C   UNL     1      -4.455   7.183  -1.196  0.00  0.00    -0.028 A 
ATOM     26  C   UNL     1      -5.830   7.127  -1.327  0.00  0.00    +0.005 A 
ATOM     27  C   UNL     1      -6.638   7.345  -0.227  0.00  0.00    +0.000 A 
ATOM     28  C   UNL     1      -6.071   7.609   1.006  0.00  0.00    +0.000 A 
ATOM     29  C   UNL     1      -4.696   7.661   1.138  0.00  0.00    +0.000 A 
ATOM     30  C   UNL     1      -3.888   7.448   0.037  0.00  0.00    +0.005 A 
ENDBRANCH  24  25
ENDBRANCH   3  24
TORSDOF 7
