REMARK  Name = ZINC18263215
REMARK  9 active torsions:
REMARK  status: ('A' for Active; 'I' for Inactive)
REMARK    1  A    between atoms: C_1  and  C_2
REMARK    2  A    between atoms: C_2  and  C_3
REMARK    3  A    between atoms: C_3  and  C_4
REMARK    4  A    between atoms: C_4  and  C_5
REMARK    5  A    between atoms: C_5  and  N_6
REMARK    6  A    between atoms: C_19  and  S_20
REMARK    7  A    between atoms: S_20  and  C_21
REMARK    8  A    between atoms: C_21  and  C_22
REMARK    9  A    between atoms: C_30  and  N_32
REMARK                            x       y       z     vdW  Elec       q    Type
REMARK                         _______ _______ _______ _____ _____    ______ ____
ROOT
ATOM      1  N   UNL     1      -1.078   2.201   0.019  0.00  0.00    -0.277 N 
ATOM      2  C   UNL     1      -0.869   3.533   0.030  0.00  0.00    +0.263 A 
ATOM      3  O   UNL     1      -1.807   4.307   0.043  0.00  0.00    -0.267 OA
ATOM      4  C   UNL     1       0.517   4.035   0.020  0.00  0.00    +0.064 A 
ATOM      5  C   UNL     1       0.792   5.402   0.025  0.00  0.00    +0.015 A 
ATOM      6  C   UNL     1       2.102   5.833   0.016  0.00  0.00    +0.001 A 
ATOM      7  C   UNL     1       3.141   4.916   0.000  0.00  0.00    +0.002 A 
ATOM      8  C   UNL     1       2.882   3.560  -0.005  0.00  0.00    +0.027 A 
ATOM      9  C   UNL     1       1.571   3.108   0.004  0.00  0.00    +0.064 A 
ATOM     10  N   UNL     1       1.281   1.746  -0.001  0.00  0.00    -0.256 N 
ATOM     11  C   UNL     1      -0.016   1.310   0.009  0.00  0.00    +0.240 A 
ATOM     12  N   UNL     1       0.002  -0.004   0.002  0.00  0.00    -0.109 NA
ATOM     13  N   UNL     1       1.338  -0.422  -0.013  0.00  0.00    -0.120 NA
ATOM     14  C   UNL     1       2.098   0.647  -0.015  0.00  0.00    +0.198 A 
ENDROOT
BRANCH   1  15
ATOM     15  C   UNL     1      -2.450   1.687   0.022  0.00  0.00    +0.128 C 
BRANCH  15  16
ATOM     16  C   UNL     1      -2.921   1.499   1.466  0.00  0.00    +0.022 C 
BRANCH  16  17
ATOM     17  C   UNL     1      -4.354   0.962   1.469  0.00  0.00    +0.001 C 
BRANCH  17  19
ATOM     18  C   UNL     1      -6.258   0.238   2.916  0.00  0.00    +0.004 C 
ATOM     19  C   UNL     1      -4.825   0.775   2.912  0.00  0.00    -0.003 C 
ENDBRANCH  17  19
ENDBRANCH  16  17
ENDBRANCH  15  16
ENDBRANCH   1  15
BRANCH  14  20
ATOM     20  S   UNL     1       3.859   0.665  -0.031  0.00  0.00    -0.078 S 
BRANCH  20  21
ATOM     21  C   UNL     1       4.317  -1.090  -0.044  0.00  0.00    +0.153 C 
BRANCH  21  22
ATOM     22  C   UNL     1       5.818  -1.218  -0.059  0.00  0.00    +0.142 A 
ATOM     23  N   UNL     1       6.431  -1.271  -1.218  0.00  0.00    -0.231 NA
ATOM     24  C   UNL     1       7.766  -1.379  -1.278  0.00  0.00    +0.076 A 
ATOM     25  C   UNL     1       8.454  -1.432  -2.498  0.00  0.00    +0.028 A 
ATOM     26  C   UNL     1       9.812  -1.549  -2.500  0.00  0.00    +0.002 A 
ATOM     27  C   UNL     1      10.529  -1.615  -1.309  0.00  0.00    +0.001 A 
ATOM     28  C   UNL     1       9.891  -1.565  -0.104  0.00  0.00    +0.013 A 
ATOM     29  C   UNL     1       8.497  -1.446  -0.067  0.00  0.00    +0.040 A 
ATOM     30  C   UNL     1       7.779  -1.390   1.153  0.00  0.00    +0.127 A 
ATOM     31  N   UNL     1       6.459  -1.277   1.097  0.00  0.00    -0.216 NA
BRANCH  30  32
ATOM     32  N   UNL     1       8.434  -1.450   2.364  0.00  0.00    -0.343 N 
ATOM     33  H   UNL     1       7.929  -1.410   3.191  0.00  0.00    +0.144 HD
ATOM     34  H   UNL     1       9.400  -1.533   2.389  0.00  0.00    +0.144 HD
ENDBRANCH  30  32
ENDBRANCH  21  22
ENDBRANCH  20  21
ENDBRANCH  14  20
TORSDOF 8
