REMARK  Name = ZINC19569173
REMARK  7 active torsions:
REMARK  status: ('A' for Active; 'I' for Inactive)
REMARK    1  A    between atoms: C_1  and  O_2
REMARK    2  A    between atoms: O_2  and  C_3
REMARK    3  A    between atoms: C_8  and  C_9
REMARK    4  A    between atoms: C_9  and  N_14
REMARK    5  A    between atoms: N_14  and  C_15
REMARK    6  A    between atoms: C_15  and  C_16
REMARK    7  A    between atoms: C_17  and  C_22
REMARK                            x       y       z     vdW  Elec       q    Type
REMARK                         _______ _______ _______ _____ _____    ______ ____
ROOT
ATOM      1  N   UNL     1      -1.022  -4.373  -0.214  0.00  0.00    +0.389 N 
ATOM      2  H   UNL     1      -0.101  -4.716   0.015  0.00  0.00    -0.084 HD
ATOM      3  H   UNL     1      -1.677  -4.671   0.492  0.00  0.00    -0.084 HD
ENDROOT
BRANCH   1   4
ATOM      4  C   UNL     1      -0.997  -2.906  -0.272  0.00  0.00    -0.038 C 
ATOM      5  C   UNL     1       0.138  -2.431  -1.204  0.00  0.00    -0.008 C 
ATOM      6  C   UNL     1       0.686  -1.157  -0.515  0.00  0.00    -0.001 C 
ATOM      7  C   UNL     1       0.616  -1.523   0.988  0.00  0.00    -0.001 C 
ATOM      8  C   UNL     1      -0.693  -2.328   1.121  0.00  0.00    -0.008 C 
BRANCH   4  14
ATOM      9  C   UNL     1      -3.496  -2.760  -0.130  0.00  0.00    +0.122 A 
ATOM     10  C   UNL     1      -4.715  -2.276  -0.585  0.00  0.00    +0.046 A 
ATOM     11  C   UNL     1      -4.756  -1.429  -1.675  0.00  0.00    +0.004 A 
ATOM     12  C   UNL     1      -3.585  -1.063  -2.313  0.00  0.00    +0.000 A 
ATOM     13  C   UNL     1      -2.370  -1.544  -1.862  0.00  0.00    +0.006 A 
ATOM     14  C   UNL     1      -2.322  -2.387  -0.768  0.00  0.00    -0.017 A 
BRANCH   9  16
ATOM     15  C   UNL     1      -4.701  -3.934   1.550  0.00  0.00    +0.277 C 
ATOM     16  O   UNL     1      -3.453  -3.593   0.943  0.00  0.00    -0.495 OA
ENDBRANCH   9  16
ENDBRANCH   4  14
ENDBRANCH   1   4
BRANCH   1  17
ATOM     17  C   UNL     1      -1.432  -4.908  -1.520  0.00  0.00    -0.021 C 
BRANCH  17  18
ATOM     18  C   UNL     1      -0.264  -4.863  -2.471  0.00  0.00    +0.074 A 
ATOM     19  C   UNL     1       0.715  -5.855  -2.660  0.00  0.00    +0.114 A 
ATOM     20  N   UNL     1       1.530  -5.378  -3.586  0.00  0.00    -0.155 NA
ATOM     21  N   UNL     1       1.112  -4.215  -3.941  0.00  0.00    -0.196 N 
ATOM     22  N   UNL     1       0.047  -3.892  -3.297  0.00  0.00    -0.161 NA
ATOM     23  H   UNL     1       1.541  -3.658  -4.608  0.00  0.00    +0.213 HD
BRANCH  19  24
ATOM     24  C   UNL     1       0.813  -7.164  -1.966  0.00  0.00    +0.004 A 
ATOM     25  C   UNL     1       0.601  -7.244  -0.592  0.00  0.00    +0.010 A 
ATOM     26  C   UNL     1       0.693  -8.463   0.048  0.00  0.00    +0.001 A 
ATOM     27  C   UNL     1       0.995  -9.604  -0.672  0.00  0.00    +0.000 A 
ATOM     28  C   UNL     1       1.207  -9.530  -2.037  0.00  0.00    +0.001 A 
ATOM     29  C   UNL     1       1.112  -8.317  -2.688  0.00  0.00    +0.010 A 
ENDBRANCH  19  24
ENDBRANCH  17  18
ENDBRANCH   1  17
TORSDOF 6
