REMARK  Name = ZINC60377102
REMARK  8 active torsions:
REMARK  status: ('A' for Active; 'I' for Inactive)
REMARK    1  A    between atoms: C_1  and  C_2
REMARK    2  A    between atoms: C_5  and  N_8
REMARK    3  A    between atoms: N_8  and  S_9
REMARK    4  A    between atoms: S_9  and  C_12
REMARK    5  A    between atoms: C_12  and  C_13
REMARK    6  A    between atoms: N_15  and  C_16
REMARK    7  A    between atoms: C_20  and  C_27
REMARK    8  A    between atoms: C_20  and  C_28
REMARK                            x       y       z     vdW  Elec       q    Type
REMARK                         _______ _______ _______ _____ _____    ______ ____
ROOT
ATOM      1  C   UNL     1       0.379  -4.060   5.576  0.00  0.00    +0.236 C 
ATOM      2  O   UNL     1      -0.636  -4.529   6.045  0.00  0.00    -0.274 OA
ATOM      3  N   UNL     1       1.569  -4.308   6.160  0.00  0.00    -0.307 N 
ATOM      4  H   UNL     1       2.380  -3.932   5.785  0.00  0.00    +0.149 HD
ENDROOT
BRANCH   3   5
ATOM      5  C   UNL     1       1.635  -5.144   7.361  0.00  0.00    +0.104 C 
ATOM      6  C   UNL     1       2.880  -4.773   8.164  0.00  0.00    +0.028 C 
ATOM      7  C   UNL     1       3.050  -5.797   9.293  0.00  0.00    +0.013 C 
ATOM      8  C   UNL     1       3.455  -7.133   8.673  0.00  0.00    -0.009 C 
ATOM      9  C   UNL     1       2.511  -7.508   7.560  0.00  0.00    -0.037 A 
ATOM     10  C   UNL     1       1.679  -6.593   6.955  0.00  0.00    -0.024 A 
ATOM     11  C   UNL     1       0.839  -7.004   5.929  0.00  0.00    +0.006 A 
ATOM     12  C   UNL     1       0.829  -8.320   5.514  0.00  0.00    +0.000 A 
ATOM     13  C   UNL     1       1.662  -9.238   6.124  0.00  0.00    +0.000 A 
ATOM     14  C   UNL     1       2.498  -8.832   7.142  0.00  0.00    +0.004 A 
ATOM     15  C   UNL     1       3.421  -8.220   9.750  0.00  0.00    +0.016 C 
ATOM     16  C   UNL     1       4.875  -7.022   8.115  0.00  0.00    +0.016 C 
ENDBRANCH   3   5
BRANCH   1  17
ATOM     17  C   UNL     1       0.311  -3.200   4.341  0.00  0.00    +0.280 C 
BRANCH  17  18
ATOM     18  S   UNL     1      -1.415  -3.056   3.799  0.00  0.00    +0.038 S 
ATOM     19  O   UNL     1      -2.163  -2.305   4.745  0.00  0.00    -0.158 OA
ATOM     20  O   UNL     1      -1.888  -4.312   3.333  0.00  0.00    -0.158 OA
BRANCH  18  21
ATOM     21  N   UNL     1      -1.358  -2.098   2.449  0.00  0.00    -0.191 NA
ATOM     22  H   UNL     1      -1.779  -1.224   2.457  0.00  0.00    +0.148 HD
BRANCH  21  27
ATOM     23  C   UNL     1      -0.019   1.526   0.010  0.00  0.00    +0.007 C 
ATOM     24  C   UNL     1       0.002  -0.004   0.002  0.00  0.00    -0.014 C 
ATOM     25  C   UNL     1      -1.433  -0.534   0.013  0.00  0.00    +0.005 C 
ATOM     26  C   UNL     1      -1.413  -2.063   0.004  0.00  0.00    +0.020 C 
ATOM     27  C   UNL     1      -0.673  -2.570   1.244  0.00  0.00    +0.076 C 
ATOM     28  C   UNL     1       0.763  -2.041   1.233  0.00  0.00    +0.020 C 
ATOM     29  C   UNL     1       0.742  -0.511   1.242  0.00  0.00    +0.005 C 
ENDBRANCH  21  27
ENDBRANCH  18  21
ENDBRANCH  17  18
ENDBRANCH   1  17
TORSDOF 5
