REMARK  Name = ZINC39972280
REMARK  11 active torsions:
REMARK  status: ('A' for Active; 'I' for Inactive)
REMARK    1  A    between atoms: C_1  and  C_2
REMARK    2  A    between atoms: C_3  and  C_9
REMARK    3  A    between atoms: C_4  and  C_8
REMARK    4  A    between atoms: N_5  and  C_7
REMARK    5  A    between atoms: C_9  and  N_10
REMARK    6  A    between atoms: N_13  and  C_16
REMARK    7  A    between atoms: C_16  and  C_17
REMARK    8  A    between atoms: N_19  and  C_20
REMARK    9  A    between atoms: C_21  and  C_31
REMARK   10  A    between atoms: C_31  and  O_33
REMARK   11  A    between atoms: O_33  and  C_34
REMARK                            x       y       z     vdW  Elec       q    Type
REMARK                         _______ _______ _______ _____ _____    ______ ____
ROOT
ATOM      1  C   UNL     1       4.815  -0.166  -6.852  0.00  0.00    +0.232 C 
ATOM      2  O   UNL     1       3.746  -0.022  -7.407  0.00  0.00    -0.274 OA
ATOM      3  N   UNL     1       5.960   0.019  -7.537  0.00  0.00    -0.278 N 
ATOM      4  H   UNL     1       6.815  -0.096  -7.093  0.00  0.00    +0.155 HD
ENDROOT
BRANCH   3   5
ATOM      5  C   UNL     1       5.917   0.372  -8.877  0.00  0.00    +0.086 A 
ATOM      6  C   UNL     1       6.977   0.596  -9.733  0.00  0.00    +0.091 A 
ATOM      7  C   UNL     1       6.676   0.967 -11.121  0.00  0.00    -0.021 A 
ATOM      8  C   UNL     1       5.356   1.064 -11.360  0.00  0.00    -0.004 A 
ATOM      9  S   UNL     1       4.565   0.621  -9.837  0.00  0.00    -0.077 S 
ATOM     10  C   UNL     1       4.668   1.509 -12.620  0.00  0.00    +0.043 C 
ATOM     11  C   UNL     1       4.743   3.046 -12.660  0.00  0.00    +0.005 C 
ATOM     12  C   UNL     1       6.211   3.459 -12.508  0.00  0.00    +0.000 C 
ATOM     13  C   UNL     1       6.927   2.871 -13.706  0.00  0.00    +0.000 C 
ATOM     14  C   UNL     1       7.328   1.417 -13.527  0.00  0.00    +0.005 C 
ATOM     15  C   UNL     1       7.822   1.128 -12.115  0.00  0.00    +0.037 C 
BRANCH   6  16
ATOM     16  C   UNL     1       8.360   0.467  -9.270  0.00  0.00    +0.342 C 
ATOM     17  O   UNL     1       8.931  -0.604  -9.348  0.00  0.00    -0.245 OA
BRANCH  16  18
ATOM     18  O   UNL     1       9.002   1.536  -8.756  0.00  0.00    -0.464 OA
ATOM     19  C   UNL     1      10.349   1.339  -8.324  0.00  0.00    +0.280 C 
ENDBRANCH  16  18
ENDBRANCH   6  16
ENDBRANCH   3   5
BRANCH   1  20
ATOM     20  C   UNL     1       4.862  -0.550  -5.395  0.00  0.00    +0.180 C 
BRANCH  20  24
ATOM     21  N   UNL     1       1.374  -0.169  -3.038  0.00  0.00    +0.384 N 
ATOM     22  C   UNL     1       2.049  -1.473  -3.066  0.00  0.00    -0.063 C 
ATOM     23  C   UNL     1       3.493  -1.290  -3.540  0.00  0.00    +0.066 C 
ATOM     24  N   UNL     1       3.493  -0.690  -4.881  0.00  0.00    -0.298 NA
ATOM     25  C   UNL     1       2.798   0.605  -4.873  0.00  0.00    +0.066 C 
ATOM     26  C   UNL     1       1.361   0.407  -4.389  0.00  0.00    -0.063 C 
ATOM     27  H   UNL     1       1.867   0.451  -2.413  0.00  0.00    -0.081 HD
BRANCH  21  28
ATOM     28  C   UNL     1      -0.006  -0.343  -2.566  0.00  0.00    -0.039 C 
BRANCH  28  31
ATOM     29  C   UNL     1      -0.018   1.503   0.010  0.00  0.00    +0.068 C 
ATOM     30  C   UNL     1       0.002  -0.004   0.002  0.00  0.00    +0.062 A 
ATOM     31  C   UNL     1       0.008  -0.818  -1.135  0.00  0.00    -0.021 A 
ATOM     32  C   UNL     1       0.028  -2.107  -0.725  0.00  0.00    +0.037 A 
ATOM     33  N   UNL     1       0.034  -2.109   0.625  0.00  0.00    -0.271 N 
ATOM     34  N   UNL     1       0.023  -0.777   1.058  0.00  0.00    -0.176 NA
ATOM     35  C   UNL     1       0.055  -3.295   1.485  0.00  0.00    +0.172 C 
ATOM     36  C   UNL     1       0.040  -3.323  -1.615  0.00  0.00    +0.065 C 
ENDBRANCH  28  31
ENDBRANCH  21  28
ENDBRANCH  20  24
ENDBRANCH   1  20
TORSDOF 7
