REMARK  Name = ZINC14729863
REMARK  15 active torsions:
REMARK  status: ('A' for Active; 'I' for Inactive)
REMARK    1  A    between atoms: C_1  and  C_2
REMARK    2  A    between atoms: C_4  and  C_36
REMARK    3  A    between atoms: C_9  and  N_27
REMARK    4  A    between atoms: N_10  and  C_11
REMARK    5  A    between atoms: C_11  and  C_13
REMARK    6  A    between atoms: C_14  and  C_15
REMARK    7  A    between atoms: C_17  and  O_25
REMARK    8  A    between atoms: C_18  and  O_23
REMARK    9  A    between atoms: C_19  and  O_21
REMARK   10  A    between atoms: O_21  and  C_22
REMARK   11  A    between atoms: O_23  and  C_24
REMARK   12  A    between atoms: O_25  and  C_26
REMARK   13  A    between atoms: N_27  and  C_28
REMARK   14  A    between atoms: C_28  and  C_29
REMARK   15  A    between atoms: C_29  and  C_30
REMARK                            x       y       z     vdW  Elec       q    Type
REMARK                         _______ _______ _______ _____ _____    ______ ____
ROOT
ATOM      1  C   UNL     1       1.345  -4.724   0.933  0.00  0.00    +0.066 C 
ATOM      2  C   UNL     1      -0.091  -4.431   1.286  0.00  0.00    +0.044 A 
ATOM      3  C   UNL     1      -1.123  -4.995   0.552  0.00  0.00    +0.046 A 
ATOM      4  C   UNL     1      -2.429  -4.699   0.910  0.00  0.00    +0.044 A 
ATOM      5  N   UNL     1      -2.650  -3.893   1.936  0.00  0.00    -0.217 NA
ATOM      6  C   UNL     1      -1.641  -3.371   2.616  0.00  0.00    +0.231 A 
ATOM      7  N   UNL     1      -0.382  -3.636   2.303  0.00  0.00    -0.217 NA
ATOM      8  N   UNL     1      -1.909  -2.528   3.687  0.00  0.00    -0.295 N 
ATOM      9  C   UNL     1      -0.886  -1.868   4.311  0.00  0.00    +0.218 C 
ATOM     10  N   UNL     1      -0.716  -1.995   5.616  0.00  0.00    -0.142 NA
ATOM     11  C   UNL     1      -3.583  -5.288   0.141  0.00  0.00    +0.066 C 
ATOM     12  H   UNL     1      -2.822  -2.408   3.992  0.00  0.00    +0.172 HD
ENDROOT
BRANCH  10  13
ATOM     13  C   UNL     1      -1.384  -2.946   6.291  0.00  0.00    +0.263 C 
ATOM     14  O   UNL     1      -2.118  -3.716   5.694  0.00  0.00    -0.269 OA
BRANCH  13  15
ATOM     15  C   UNL     1      -1.230  -3.058   7.745  0.00  0.00    +0.070 C 
ATOM     16  C   UNL     1      -1.900  -4.012   8.422  0.00  0.00    +0.013 C 
BRANCH  16  17
ATOM     17  C   UNL     1      -1.746  -4.124   9.880  0.00  0.00    -0.018 A 
ATOM     18  C   UNL     1      -0.909  -3.238  10.567  0.00  0.00    +0.057 A 
ATOM     19  C   UNL     1      -0.766  -3.347  11.938  0.00  0.00    +0.166 A 
ATOM     20  C   UNL     1      -1.455  -4.336  12.635  0.00  0.00    +0.204 A 
ATOM     21  C   UNL     1      -2.289  -5.219  11.954  0.00  0.00    +0.166 A 
ATOM     22  C   UNL     1      -2.441  -5.113  10.585  0.00  0.00    +0.057 A 
BRANCH  21  23
ATOM     23  O   UNL     1      -2.960  -6.184  12.639  0.00  0.00    -0.491 OA
ATOM     24  C   UNL     1      -3.798  -7.056  11.878  0.00  0.00    +0.277 C 
ENDBRANCH  21  23
BRANCH  20  25
ATOM     25  O   UNL     1      -1.312  -4.440  13.983  0.00  0.00    -0.488 OA
ATOM     26  C   UNL     1      -2.223  -3.692  14.791  0.00  0.00    +0.277 C 
ENDBRANCH  20  25
BRANCH  19  27
ATOM     27  O   UNL     1       0.047  -2.486  12.606  0.00  0.00    -0.491 OA
ATOM     28  C   UNL     1       0.724  -1.496  11.828  0.00  0.00    +0.277 C 
ENDBRANCH  19  27
ENDBRANCH  16  17
ENDBRANCH  13  15
ENDBRANCH  10  13
BRANCH   9  29
ATOM     29  N   UNL     1      -0.042  -1.077   3.587  0.00  0.00    -0.252 NA
BRANCH  29  30
ATOM     30  C   UNL     1      -0.521  -0.413   2.372  0.00  0.00    +0.151 C 
BRANCH  30  31
ATOM     31  C   UNL     1       0.261   0.884   2.157  0.00  0.00    +0.078 C 
BRANCH  31  32
ATOM     32  C   UNL     1      -0.172   1.523   0.863  0.00  0.00    +0.035 A 
ATOM     33  C   UNL     1       0.496   1.474  -0.306  0.00  0.00    +0.105 A 
ATOM     34  N   UNL     1      -0.245   2.180  -1.215  0.00  0.00    -0.352 N 
ATOM     35  H   UNL     1      -0.024   2.326  -2.148  0.00  0.00    +0.166 HD
ATOM     36  C   UNL     1      -1.340   2.636  -0.570  0.00  0.00    +0.171 A 
ATOM     37  N   UNL     1      -1.292   2.235   0.671  0.00  0.00    -0.350 N 
ATOM     38  H   UNL     1      -1.960   2.424   1.349  0.00  0.00    +0.166 HD
ENDBRANCH  31  32
ENDBRANCH  30  31
ENDBRANCH  29  30
ENDBRANCH   9  29
TORSDOF 10
