REMARK  Name = ZINC30827686
REMARK  7 active torsions:
REMARK  status: ('A' for Active; 'I' for Inactive)
REMARK    1  A    between atoms: C_1  and  C_2
REMARK    2  A    between atoms: C_2  and  O_3
REMARK    3  A    between atoms: O_3  and  C_4
REMARK    4  A    between atoms: C_4  and  C_6
REMARK    5  A    between atoms: N_15  and  C_16
REMARK    6  A    between atoms: C_16  and  N_18
REMARK    7  A    between atoms: C_19  and  C_21
REMARK                            x       y       z     vdW  Elec       q    Type
REMARK                         _______ _______ _______ _____ _____    ______ ____
ROOT
ATOM      1  C   UNL     1       3.165  12.569   0.036  0.00  0.00    +0.060 A 
ATOM      2  C   UNL     1       1.838  12.114   0.047  0.00  0.00    +0.017 A 
ATOM      3  C   UNL     1       1.545  10.790   0.044  0.00  0.00    +0.027 A 
ATOM      4  C   UNL     1       2.571   9.813   0.028  0.00  0.00    +0.055 A 
ATOM      5  C   UNL     1       3.903  10.299   0.018  0.00  0.00    +0.039 A 
ATOM      6  C   UNL     1       4.204  11.632   0.021  0.00  0.00    +0.032 A 
ATOM      7  S   UNL     1       4.852   8.796   0.009  0.00  0.00    -0.052 S 
ATOM      8  C   UNL     1       3.470   7.662   0.009  0.00  0.00    +0.163 A 
ATOM      9  N   UNL     1       2.439   8.478   0.023  0.00  0.00    -0.335 N 
ATOM     10  N   UNL     1       3.482   6.279   0.002  0.00  0.00    -0.169 NA
ATOM     11  H   UNL     1       1.437   8.025   0.030  0.00  0.00    +0.168 HD
ENDROOT
BRANCH   1  12
ATOM     12  C   UNL     1       3.459  14.013   0.041  0.00  0.00    +0.339 C 
ATOM     13  O   UNL     1       4.612  14.398   0.032  0.00  0.00    -0.245 OA
BRANCH  12  14
ATOM     14  O   UNL     1       2.451  14.907   0.056  0.00  0.00    -0.461 OA
BRANCH  14  16
ATOM     15  C   UNL     1       1.547  17.168   0.076  0.00  0.00    +0.048 C 
ATOM     16  C   UNL     1       2.815  16.312   0.059  0.00  0.00    +0.229 C 
ENDBRANCH  14  16
ENDBRANCH  12  14
ENDBRANCH   1  12
BRANCH  10  17
ATOM     17  C   UNL     1       2.321   5.595   0.009  0.00  0.00    +0.163 C 
ATOM     18  S   UNL     1       0.831   6.438   0.027  0.00  0.00    -0.016 S 
BRANCH  17  19
ATOM     19  N   UNL     1       2.333   4.248   0.002  0.00  0.00    -0.262 N 
ATOM     20  C   UNL     1       1.172   3.563   0.009  0.00  0.00    +0.250 C 
ATOM     21  O   UNL     1       0.114   4.162   0.022  0.00  0.00    -0.270 OA
ATOM     22  H   UNL     1       3.290   3.706  -0.010  0.00  0.00    +0.157 HD
BRANCH  20  23
ATOM     23  C   UNL     1       1.185   2.086   0.002  0.00  0.00    +0.037 A 
ATOM     24  C   UNL     1      -0.017   1.375   0.010  0.00  0.00    +0.014 A 
ATOM     25  C   UNL     1       0.002  -0.004   0.002  0.00  0.00    +0.021 A 
ATOM     26  C   UNL     1       1.209  -0.683  -0.013  0.00  0.00    +0.041 A 
ATOM     27  C   UNL     1       2.404   0.017  -0.020  0.00  0.00    +0.021 A 
ATOM     28  C   UNL     1       2.399   1.396  -0.012  0.00  0.00    +0.014 A 
ATOM     29 CL   UNL     1       1.225  -2.419  -0.023  0.00  0.00    -0.084 Cl
ENDBRANCH  20  23
ENDBRANCH  17  19
ENDBRANCH  10  17
TORSDOF 6
