REMARK  Name = ZINC40149232
REMARK  11 active torsions:
REMARK  status: ('A' for Active; 'I' for Inactive)
REMARK    1  A    between atoms: C_1  and  C_2
REMARK    2  A    between atoms: C_2  and  C_3
REMARK    3  A    between atoms: C_2  and  C_4
REMARK    4  A    between atoms: C_2  and  O_5
REMARK    5  A    between atoms: O_5  and  C_6
REMARK    6  A    between atoms: C_12  and  C_15
REMARK    7  A    between atoms: N_17  and  C_18
REMARK    8  A    between atoms: N_23  and  C_25
REMARK    9  A    between atoms: C_25  and  N_26
REMARK   10  A    between atoms: C_30  and  S_32
REMARK   11  A    between atoms: S_32  and  C_33
REMARK                            x       y       z     vdW  Elec       q    Type
REMARK                         _______ _______ _______ _____ _____    ______ ____
ROOT
ATOM      1  C   UNL     1       5.639   0.868  -4.257  0.00  0.00    +0.218 C 
ATOM      2  O   UNL     1       6.196   0.366  -5.210  0.00  0.00    -0.275 OA
ATOM      3  N   UNL     1       6.318   1.694  -3.437  0.00  0.00    -0.314 N 
ATOM      4  H   UNL     1       5.872   2.095  -2.675  0.00  0.00    +0.149 HD
ENDROOT
BRANCH   1  11
ATOM      5  C   UNL     1       1.952  -0.085  -1.337  0.00  0.00    +0.403 C 
ATOM      6  O   UNL     1       2.488   0.619  -0.503  0.00  0.00    -0.226 OA
ATOM      7  N   UNL     1       2.641  -0.485  -2.424  0.00  0.00    -0.267 N 
ATOM      8  C   UNL     1       2.005  -1.331  -3.443  0.00  0.00    +0.111 C 
ATOM      9  C   UNL     1       2.172  -0.664  -4.812  0.00  0.00    +0.020 C 
ATOM     10  C   UNL     1       3.656  -0.387  -5.062  0.00  0.00    +0.016 C 
ATOM     11  C   UNL     1       4.186   0.570  -3.991  0.00  0.00    +0.092 C 
ATOM     12  C   UNL     1       4.040  -0.078  -2.616  0.00  0.00    +0.123 C 
BRANCH   5  13
ATOM     13  O   UNL     1       0.671  -0.465  -1.174  0.00  0.00    -0.445 OA
BRANCH  13  15
ATOM     14  C   UNL     1      -0.019   1.526   0.010  0.00  0.00    +0.055 C 
ATOM     15  C   UNL     1       0.002  -0.004   0.002  0.00  0.00    +0.107 C 
ATOM     16  C   UNL     1       0.742  -0.511   1.242  0.00  0.00    +0.055 C 
ATOM     17  C   UNL     1      -1.433  -0.534   0.013  0.00  0.00    +0.055 C 
ENDBRANCH  13  15
ENDBRANCH   5  13
ENDBRANCH   1  11
BRANCH   3  18
ATOM     18  C   UNL     1       7.731   1.984  -3.695  0.00  0.00    +0.056 C 
ATOM     19  C   UNL     1       7.840   3.135  -4.700  0.00  0.00    +0.018 C 
ATOM     20  C   UNL     1       9.318   3.482  -4.904  0.00  0.00    -0.017 C 
ATOM     21  C   UNL     1       9.946   3.830  -3.552  0.00  0.00    -0.076 C 
ATOM     22  N   UNL     1       9.832   2.681  -2.646  0.00  0.00    +0.394 N 
ATOM     23  C   UNL     1       8.418   2.386  -2.389  0.00  0.00    -0.054 C 
ATOM     24  H   UNL     1      10.271   1.876  -3.068  0.00  0.00    -0.079 HD
BRANCH  22  25
ATOM     25  C   UNL     1      10.505   2.992  -1.377  0.00  0.00    +0.071 C 
BRANCH  25  26
ATOM     26  N   UNL     1      11.941   3.159  -1.613  0.00  0.00    -0.266 N 
ATOM     27  C   UNL     1      12.819   2.192  -1.251  0.00  0.00    +0.142 A 
ATOM     28  S   UNL     1      12.525   0.680  -0.502  0.00  0.00    -0.023 S 
ATOM     29  S   UNL     1      14.367   2.921  -1.766  0.00  0.00    -0.035 S 
ATOM     30  C   UNL     1      13.709   4.447  -2.417  0.00  0.00    +0.157 A 
ATOM     31  N   UNL     1      12.425   4.299  -2.213  0.00  0.00    -0.158 NA
BRANCH  30  32
ATOM     32  S   UNL     1      14.566   5.800  -3.152  0.00  0.00    -0.100 S 
ATOM     33  C   UNL     1      13.251   6.979  -3.567  0.00  0.00    +0.092 C 
ENDBRANCH  30  32
ENDBRANCH  25  26
ENDBRANCH  22  25
ENDBRANCH   3  18
TORSDOF 7
