REMARK  Name = ZINC38591464
REMARK  8 active torsions:
REMARK  status: ('A' for Active; 'I' for Inactive)
REMARK    1  A    between atoms: C_1  and  O_2
REMARK    2  A    between atoms: O_2  and  C_3
REMARK    3  A    between atoms: C_3  and  C_5
REMARK    4  A    between atoms: C_7  and  N_15
REMARK    5  A    between atoms: C_16  and  C_18
REMARK    6  A    between atoms: C_18  and  N_19
REMARK    7  A    between atoms: C_22  and  C_25
REMARK    8  A    between atoms: C_25  and  C_26
REMARK                            x       y       z     vdW  Elec       q    Type
REMARK                         _______ _______ _______ _____ _____    ______ ____
ROOT
ATOM      1  N   UNL     1       1.730  -2.509   1.014  0.00  0.00    -0.288 N 
ATOM      2  C   UNL     1       2.806  -2.927   1.710  0.00  0.00    +0.200 C 
ATOM      3  O   UNL     1       3.781  -3.348   1.125  0.00  0.00    -0.278 OA
ATOM      4  H   UNL     1       0.985  -2.094   1.475  0.00  0.00    +0.155 HD
ENDROOT
BRANCH   1   6
ATOM      5  C   UNL     1       2.666  -3.443  -1.196  0.00  0.00    +0.234 C 
ATOM      6  C   UNL     1       1.690  -2.668  -0.339  0.00  0.00    +0.053 C 
ATOM      7  C   UNL     1       0.748  -2.154  -1.213  0.00  0.00    +0.018 A 
ATOM      8  C   UNL     1      -0.402  -1.353  -1.015  0.00  0.00    +0.011 A 
ATOM      9  C   UNL     1      -1.159  -0.990  -2.080  0.00  0.00    +0.001 A 
ATOM     10  C   UNL     1      -0.835  -1.387  -3.380  0.00  0.00    +0.002 A 
ATOM     11  C   UNL     1       0.250  -2.155  -3.644  0.00  0.00    +0.026 A 
ATOM     12  C   UNL     1       1.093  -2.575  -2.582  0.00  0.00    +0.045 A 
ATOM     13  N   UNL     1       2.188  -3.311  -2.576  0.00  0.00    -0.367 N 
ATOM     14  H   UNL     1       2.610  -3.701  -3.357  0.00  0.00    +0.161 HD
BRANCH   5  15
ATOM     15  C   UNL     1       2.677  -4.894  -0.788  0.00  0.00    +0.335 C 
ATOM     16  O   UNL     1       1.955  -5.684  -1.347  0.00  0.00    -0.248 OA
BRANCH  15  18
ATOM     17  C   UNL     1       3.448  -6.696   0.533  0.00  0.00    +0.280 C 
ATOM     18  O   UNL     1       3.489  -5.308   0.198  0.00  0.00    -0.466 OA
ENDBRANCH  15  18
ENDBRANCH   5  15
ENDBRANCH   1   6
BRANCH   2  19
ATOM     19  C   UNL     1       2.797  -2.872   3.216  0.00  0.00    +0.019 C 
BRANCH  19  20
ATOM     20  N   UNL     1       4.074  -3.380   3.732  0.00  0.00    +0.385 N 
ATOM     21  C   UNL     1       5.161  -2.488   3.309  0.00  0.00    -0.078 C 
ATOM     22  C   UNL     1       6.503  -3.056   3.776  0.00  0.00    -0.015 C 
ATOM     23  C   UNL     1       6.500  -3.170   5.303  0.00  0.00    -0.010 C 
ATOM     24  C   UNL     1       5.318  -4.042   5.737  0.00  0.00    -0.015 C 
ATOM     25  C   UNL     1       4.020  -3.438   5.198  0.00  0.00    -0.078 C 
ATOM     26  H   UNL     1       4.240  -4.305   3.366  0.00  0.00    -0.081 HD
BRANCH  23  27
ATOM     27  C   UNL     1       7.808  -3.811   5.771  0.00  0.00    +0.038 C 
BRANCH  27  28
ATOM     28  C   UNL     1       7.857  -3.811   7.277  0.00  0.00    -0.047 A 
ATOM     29  C   UNL     1       8.405  -2.736   7.951  0.00  0.00    +0.003 A 
ATOM     30  C   UNL     1       8.450  -2.735   9.332  0.00  0.00    +0.000 A 
ATOM     31  C   UNL     1       7.946  -3.810  10.040  0.00  0.00    +0.000 A 
ATOM     32  C   UNL     1       7.396  -4.885   9.367  0.00  0.00    +0.000 A 
ATOM     33  C   UNL     1       7.347  -4.883   7.985  0.00  0.00    +0.003 A 
ENDBRANCH  27  28
ENDBRANCH  23  27
ENDBRANCH  19  20
ENDBRANCH   2  19
TORSDOF 7
