REMARK  Name = ZINC06245073
REMARK  11 active torsions:
REMARK  status: ('A' for Active; 'I' for Inactive)
REMARK    1  A    between atoms: C_1  and  C_2
REMARK    2  A    between atoms: C_5  and  N_8
REMARK    3  A    between atoms: N_8  and  C_9
REMARK    4  A    between atoms: N_8  and  S_28
REMARK    5  A    between atoms: C_9  and  C_10
REMARK    6  A    between atoms: N_12  and  N_13
REMARK    7  A    between atoms: C_14  and  C_15
REMARK    8  A    between atoms: C_17  and  C_27
REMARK    9  A    between atoms: N_18  and  C_21
REMARK   10  A    between atoms: C_19  and  C_20
REMARK   11  A    between atoms: S_28  and  C_31
REMARK                            x       y       z     vdW  Elec       q    Type
REMARK                         _______ _______ _______ _____ _____    ______ ____
ROOT
ATOM      1  C   UNL     1      -4.623   6.666  -4.301  0.00  0.00    +0.251 C 
ATOM      2  O   UNL     1      -3.477   6.280  -4.205  0.00  0.00    -0.272 OA
ATOM      3  N   UNL     1      -5.450   6.590  -3.240  0.00  0.00    -0.206 N 
ATOM      4  H   UNL     1      -6.367   6.898  -3.316  0.00  0.00    +0.177 HD
ENDROOT
BRANCH   3   5
ATOM      5  N   UNL     1      -4.987   6.064  -2.027  0.00  0.00    -0.188 NA
ATOM      6  C   UNL     1      -5.784   5.990  -1.005  0.00  0.00    +0.140 C 
BRANCH   6   7
ATOM      7  C   UNL     1      -5.297   5.438   0.272  0.00  0.00    +0.016 A 
ATOM      8  C   UNL     1      -6.062   5.285   1.513  0.00  0.00    +0.032 A 
ATOM      9  C   UNL     1      -5.225   4.741   2.416  0.00  0.00    +0.022 A 
ATOM     10  N   UNL     1      -4.007   4.547   1.829  0.00  0.00    -0.317 N 
ATOM     11  C   UNL     1      -4.041   4.970   0.536  0.00  0.00    +0.030 A 
ATOM     12  C   UNL     1      -2.892   4.926  -0.438  0.00  0.00    +0.064 C 
ATOM     13  C   UNL     1      -5.575   4.401   3.842  0.00  0.00    +0.064 C 
BRANCH  10  14
ATOM     14  C   UNL     1      -2.886   3.998   2.466  0.00  0.00    +0.047 A 
ATOM     15  C   UNL     1      -1.750   4.772   2.662  0.00  0.00    +0.026 A 
ATOM     16  C   UNL     1      -0.644   4.226   3.285  0.00  0.00    +0.002 A 
ATOM     17  C   UNL     1      -0.668   2.912   3.713  0.00  0.00    +0.000 A 
ATOM     18  C   UNL     1      -1.798   2.139   3.519  0.00  0.00    +0.002 A 
ATOM     19  C   UNL     1      -2.907   2.679   2.897  0.00  0.00    +0.026 A 
ENDBRANCH  10  14
ENDBRANCH   6   7
ENDBRANCH   3   5
BRANCH   1  20
ATOM     20  C   UNL     1      -5.121   7.232  -5.606  0.00  0.00    +0.228 C 
BRANCH  20  21
ATOM     21  N   UNL     1      -4.039   7.206  -6.594  0.00  0.00    -0.194 N 
BRANCH  21  26
ATOM     22  C   UNL     1      -0.293  11.458  -6.807  0.00  0.00    +0.044 C 
ATOM     23  C   UNL     1      -1.289  10.328  -6.750  0.00  0.00    -0.050 A 
ATOM     24  C   UNL     1      -1.452   9.611  -5.580  0.00  0.00    +0.005 A 
ATOM     25  C   UNL     1      -2.363   8.575  -5.524  0.00  0.00    +0.025 A 
ATOM     26  C   UNL     1      -3.117   8.254  -6.646  0.00  0.00    +0.052 A 
ATOM     27  C   UNL     1      -2.947   8.973  -7.822  0.00  0.00    +0.025 A 
ATOM     28  C   UNL     1      -2.037  10.012  -7.869  0.00  0.00    +0.005 A 
ENDBRANCH  21  26
BRANCH  21  29
ATOM     29  S   UNL     1      -3.910   5.936  -7.648  0.00  0.00    +0.075 S 
ATOM     30  O   UNL     1      -2.587   5.969  -8.164  0.00  0.00    -0.150 OA
ATOM     31  O   UNL     1      -4.439   4.799  -6.980  0.00  0.00    -0.150 OA
BRANCH  29  32
ATOM     32  C   UNL     1      -4.987   6.271  -9.002  0.00  0.00    +0.109 A 
ATOM     33  C   UNL     1      -6.327   5.942  -8.917  0.00  0.00    +0.029 A 
ATOM     34  C   UNL     1      -7.173   6.210  -9.977  0.00  0.00    +0.002 A 
ATOM     35  C   UNL     1      -6.676   6.796 -11.126  0.00  0.00    +0.000 A 
ATOM     36  C   UNL     1      -5.335   7.120 -11.213  0.00  0.00    +0.002 A 
ATOM     37  C   UNL     1      -4.491   6.858 -10.151  0.00  0.00    +0.029 A 
ENDBRANCH  29  32
ENDBRANCH  21  29
ENDBRANCH  20  21
ENDBRANCH   1  20
TORSDOF 8
