REMARK  Name = ZINC49151984
REMARK  6 active torsions:
REMARK  status: ('A' for Active; 'I' for Inactive)
REMARK    1  A    between atoms: C_1  and  N_2
REMARK    2  A    between atoms: N_5  and  N_6
REMARK    3  A    between atoms: N_6  and  S_7
REMARK    4  A    between atoms: S_7  and  C_10
REMARK    5  A    between atoms: C_13  and  S_16
REMARK    6  A    between atoms: S_16  and  C_17
REMARK                            x       y       z     vdW  Elec       q    Type
REMARK                         _______ _______ _______ _____ _____    ______ ____
ROOT
ATOM      1  S   UNL     1       0.417  -3.854   1.152  0.00  0.00    +0.074 S 
ATOM      2  O   UNL     1       1.647  -4.465   0.787  0.00  0.00    -0.152 OA
ATOM      3  O   UNL     1       0.228  -3.211   2.405  0.00  0.00    -0.152 OA
ENDROOT
BRANCH   1   4
ATOM      4  C   UNL     1      -0.820  -5.103   1.036  0.00  0.00    +0.107 A 
ATOM      5  C   UNL     1      -1.989  -4.986   1.764  0.00  0.00    +0.029 A 
ATOM      6  C   UNL     1      -2.961  -5.963   1.676  0.00  0.00    +0.017 A 
ATOM      7  C   UNL     1      -2.762  -7.065   0.853  0.00  0.00    +0.016 A 
ATOM      8  C   UNL     1      -1.586  -7.179   0.121  0.00  0.00    +0.017 A 
ATOM      9  C   UNL     1      -0.621  -6.196   0.211  0.00  0.00    +0.029 A 
BRANCH   7  10
ATOM     10  S   UNL     1      -3.999  -8.315   0.737  0.00  0.00    -0.016 S 
BRANCH  10  11
ATOM     11  C   UNL     1      -3.301  -9.516  -0.430  0.00  0.00    +0.448 C 
ATOM     12  F   UNL     1      -2.095 -10.013   0.078  0.00  0.00    -0.160 F 
ATOM     13  F   UNL     1      -4.202 -10.572  -0.608  0.00  0.00    -0.160 F 
ATOM     14  F   UNL     1      -3.067  -8.891  -1.659  0.00  0.00    -0.160 F 
ENDBRANCH  10  11
ENDBRANCH   7  10
ENDBRANCH   1   4
BRANCH   1  15
ATOM     15  N   UNL     1       0.085  -2.725  -0.013  0.00  0.00    -0.107 NA
ATOM     16  H   UNL     1       0.737  -2.538  -0.707  0.00  0.00    +0.172 HD
BRANCH  15  21
ATOM     17  C   UNL     1      -0.018   1.461   0.010  0.00  0.00    +0.129 C 
ATOM     18  N   UNL     1       0.002  -0.004   0.002  0.00  0.00    -0.301 N 
ATOM     19  C   UNL     1      -1.156  -0.694   0.009  0.00  0.00    +0.314 C 
ATOM     20  O   UNL     1      -2.217  -0.100   0.023  0.00  0.00    -0.251 OA
ATOM     21  N   UNL     1      -1.137  -2.041   0.002  0.00  0.00    -0.216 N 
ATOM     22  H   UNL     1       0.849  -0.478  -0.009  0.00  0.00    +0.150 HD
ATOM     23  H   UNL     1      -1.971  -2.538   0.007  0.00  0.00    +0.172 HD
ENDBRANCH  15  21
ENDBRANCH   1  15
TORSDOF 5
