REMARK  Name = ZINC13786264
REMARK  10 active torsions:
REMARK  status: ('A' for Active; 'I' for Inactive)
REMARK    1  A    between atoms: C_1  and  O_2
REMARK    2  A    between atoms: O_2  and  C_3
REMARK    3  A    between atoms: C_6  and  C_11
REMARK    4  A    between atoms: C_8  and  O_9
REMARK    5  A    between atoms: O_9  and  C_10
REMARK    6  A    between atoms: C_19  and  O_35
REMARK    7  A    between atoms: C_22  and  C_23
REMARK    8  A    between atoms: C_22  and  N_65
REMARK    9  A    between atoms: N_25  and  C_26
REMARK   10  A    between atoms: C_29  and  N_32
REMARK                            x       y       z     vdW  Elec       q    Type
REMARK                         _______ _______ _______ _____ _____    ______ ____
ROOT
ATOM      1  C   UNL     1      -1.263  -0.844   0.085  0.00  0.00    -0.031 C 
ATOM      2  C   UNL     1      -1.877  -0.912   1.484  0.00  0.00    +0.011 C 
ATOM      3  C   UNL     1      -0.934  -1.649   2.435  0.00  0.00    +0.005 C 
ATOM      4  C   UNL     1      -1.562  -1.699   3.830  0.00  0.00    +0.000 C 
ATOM      5  C   UNL     1      -2.903  -2.433   3.765  0.00  0.00    +0.003 C 
ATOM      6  C   UNL     1      -3.843  -1.701   2.804  0.00  0.00    +0.035 C 
ATOM      7  C   UNL     1      -3.211  -1.662   1.412  0.00  0.00    +0.066 C 
ATOM      8  C   UNL     1      -4.140  -0.937   0.436  0.00  0.00    +0.016 C 
ATOM      9  C   UNL     1      -3.464  -0.861  -0.936  0.00  0.00    -0.075 C 
ATOM     10  N   UNL     1      -2.191  -0.117  -0.808  0.00  0.00    +0.390 N 
ATOM     11  H   UNL     1      -2.385   0.807  -0.406  0.00  0.00    -0.080 HD
ENDROOT
BRANCH   1  15
ATOM     12  C   UNL     1       2.442   1.286   0.256  0.00  0.00    +0.161 A 
ATOM     13  C   UNL     1       1.242   1.978   0.232  0.00  0.00    +0.049 A 
ATOM     14  C   UNL     1       0.046   1.287   0.177  0.00  0.00    +0.006 A 
ATOM     15  C   UNL     1       0.044  -0.096   0.146  0.00  0.00    -0.057 A 
ATOM     16  C   UNL     1       1.238  -0.792   0.169  0.00  0.00    +0.051 A 
ATOM     17  C   UNL     1       2.440  -0.105   0.224  0.00  0.00    +0.162 A 
BRANCH  12  19
ATOM     18  C   UNL     1       3.545   3.391   0.340  0.00  0.00    +0.277 C 
ATOM     19  O   UNL     1       3.619   1.964   0.310  0.00  0.00    -0.491 OA
ENDBRANCH  12  19
BRANCH  17  20
ATOM     20  O   UNL     1       3.615  -0.789   0.248  0.00  0.00    -0.491 OA
ATOM     21  C   UNL     1       3.536  -2.216   0.213  0.00  0.00    +0.277 C 
ENDBRANCH  17  20
ENDBRANCH   1  15
BRANCH   7  22
ATOM     22  O   UNL     1      -2.983  -2.995   0.953  0.00  0.00    -0.388 OA
ATOM     23  H   UNL     1      -3.786  -3.530   0.882  0.00  0.00    +0.210 HD
ENDBRANCH   7  22
BRANCH  10  24
ATOM     24  C   UNL     1      -1.575   0.059  -2.139  0.00  0.00    +0.020 C 
BRANCH  24  25
ATOM     25  C   UNL     1      -1.330  -1.277  -2.793  0.00  0.00    +0.201 C 
ATOM     26  O   UNL     1      -1.536  -2.300  -2.176  0.00  0.00    -0.278 OA
ATOM     27  N   UNL     1      -0.883  -1.333  -4.063  0.00  0.00    -0.287 N 
ATOM     28  H   UNL     1      -0.646  -0.517  -4.531  0.00  0.00    +0.155 HD
BRANCH  27  29
ATOM     29  C   UNL     1      -0.761  -2.570  -4.707  0.00  0.00    +0.033 A 
ATOM     30  C   UNL     1       0.248  -2.771  -5.640  0.00  0.00    +0.025 A 
ATOM     31  C   UNL     1       0.369  -3.995  -6.270  0.00  0.00    +0.034 A 
ATOM     32  C   UNL     1      -0.519  -5.014  -5.981  0.00  0.00    +0.126 A 
ATOM     33  C   UNL     1      -1.528  -4.814  -5.056  0.00  0.00    +0.034 A 
ATOM     34  C   UNL     1      -1.651  -3.595  -4.419  0.00  0.00    +0.025 A 
BRANCH  32  35
ATOM     35  N   UNL     1      -0.390  -6.322  -6.662  0.00  0.00    +0.056 N 
ATOM     36  O   UNL     1      -1.171  -7.221  -6.408  0.00  0.00    -0.126 OA
ATOM     37  O   UNL     1       0.498  -6.499  -7.476  0.00  0.00    -0.126 OA
ENDBRANCH  32  35
ENDBRANCH  27  29
ENDBRANCH  24  25
ENDBRANCH  10  24
TORSDOF 8
