REMARK  Name = ZINC39879891
REMARK  6 active torsions:
REMARK  status: ('A' for Active; 'I' for Inactive)
REMARK    1  A    between atoms: C_1  and  C_2
REMARK    2  A    between atoms: C_2  and  O_3
REMARK    3  A    between atoms: O_3  and  C_4
REMARK    4  A    between atoms: C_8  and  C_10
REMARK    5  A    between atoms: C_17  and  C_33
REMARK    6  A    between atoms: N_25  and  C_26
REMARK                            x       y       z     vdW  Elec       q    Type
REMARK                         _______ _______ _______ _____ _____    ______ ____
ROOT
ATOM      1  C   UNL     1       2.275  -4.298   3.754  0.00  0.00    +0.150 C 
ATOM      2  C   UNL     1       3.645  -4.753   3.372  0.00  0.00    +0.072 A 
ATOM      3  C   UNL     1       4.789  -4.018   2.824  0.00  0.00    +0.199 A 
ATOM      4  O   UNL     1       4.829  -2.802   2.751  0.00  0.00    -0.287 OA
ATOM      5  C   UNL     1       5.896  -4.896   2.367  0.00  0.00    +0.065 A 
ATOM      6  C   UNL     1       6.965  -4.367   1.643  0.00  0.00    +0.018 A 
ATOM      7  C   UNL     1       7.973  -5.190   1.225  0.00  0.00    -0.050 A 
ATOM      8  C   UNL     1       7.936  -6.546   1.518  0.00  0.00    +0.007 A 
ATOM      9  C   UNL     1       6.889  -7.085   2.233  0.00  0.00    +0.047 A 
ATOM     10  C   UNL     1       5.849  -6.266   2.673  0.00  0.00    +0.139 A 
ATOM     11  O   UNL     1       4.836  -6.814   3.382  0.00  0.00    -0.450 OA
ATOM     12  C   UNL     1       3.721  -6.095   3.615  0.00  0.00    +0.199 A 
ATOM     13  C   UNL     1       2.422  -6.542   4.147  0.00  0.00    +0.287 C 
ATOM     14  O   UNL     1       2.156  -7.685   4.463  0.00  0.00    -0.266 OA
ATOM     15  N   UNL     1       1.571  -5.498   4.233  0.00  0.00    -0.253 N 
ATOM     16  C   UNL     1       9.130  -4.622   0.443  0.00  0.00    +0.044 C 
ENDROOT
BRANCH  15  17
ATOM     17  C   UNL     1       0.252  -5.547   4.696  0.00  0.00    +0.038 A 
ATOM     18  C   UNL     1      -0.518  -4.392   4.726  0.00  0.00    +0.024 A 
ATOM     19  C   UNL     1      -1.820  -4.444   5.183  0.00  0.00    +0.017 A 
ATOM     20  C   UNL     1      -2.357  -5.645   5.612  0.00  0.00    +0.018 A 
ATOM     21  C   UNL     1      -1.592  -6.797   5.583  0.00  0.00    +0.017 A 
ATOM     22  C   UNL     1      -0.291  -6.753   5.121  0.00  0.00    +0.024 A 
ATOM     23 BR   UNL     1      -4.140  -5.711   6.238  0.00  0.00    -0.050 Br
ENDBRANCH  15  17
BRANCH   1  28
ATOM     24  C   UNL     1       0.802  -1.824   1.306  0.00  0.00    +0.121 A 
ATOM     25  C   UNL     1       0.260  -2.673   0.351  0.00  0.00    +0.045 A 
ATOM     26  C   UNL     1       0.372  -4.041   0.501  0.00  0.00    +0.004 A 
ATOM     27  C   UNL     1       1.024  -4.566   1.602  0.00  0.00    +0.006 A 
ATOM     28  C   UNL     1       1.565  -3.723   2.555  0.00  0.00    -0.019 A 
ATOM     29  C   UNL     1       1.460  -2.353   2.406  0.00  0.00    +0.051 A 
BRANCH  24  30
ATOM     30  O   UNL     1       0.693  -0.477   1.160  0.00  0.00    -0.492 OA
BRANCH  30  32
ATOM     31  C   UNL     1      -0.019   1.526   0.010  0.00  0.00    +0.048 C 
ATOM     32  C   UNL     1       0.002  -0.004   0.002  0.00  0.00    +0.225 C 
ENDBRANCH  30  32
ENDBRANCH  24  30
ENDBRANCH   1  28
TORSDOF 4
