REMARK  Name = ZINC64354004
REMARK  6 active torsions:
REMARK  status: ('A' for Active; 'I' for Inactive)
REMARK    1  A    between atoms: C_1  and  C_2
REMARK    2  A    between atoms: C_3  and  N_20
REMARK    3  A    between atoms: C_4  and  C_8
REMARK    4  A    between atoms: N_10  and  C_11
REMARK    5  A    between atoms: C_11  and  C_12
REMARK    6  A    between atoms: C_11  and  C_13
REMARK                            x       y       z     vdW  Elec       q    Type
REMARK                         _______ _______ _______ _____ _____    ______ ____
ROOT
ATOM      1  C   UNL     1      -0.409  -3.407  -1.601  0.00  0.00    +0.267 C 
ATOM      2  O   UNL     1      -0.353  -3.436  -2.815  0.00  0.00    -0.268 OA
ATOM      3  N   UNL     1      -0.210  -4.534  -0.890  0.00  0.00    -0.303 N 
ATOM      4  H   UNL     1      -0.254  -4.511   0.079  0.00  0.00    +0.150 HD
ENDROOT
BRANCH   1   8
ATOM      5  C   UNL     1      -1.432   1.456  -0.605  0.00  0.00    +0.067 C 
ATOM      6  C   UNL     1      -1.139  -0.017  -0.487  0.00  0.00    +0.064 A 
ATOM      7  C   UNL     1      -0.923  -0.877  -1.510  0.00  0.00    +0.178 A 
ATOM      8  C   UNL     1      -0.694  -2.135  -0.905  0.00  0.00    +0.177 A 
ATOM      9  N   UNL     1      -0.783  -1.957   0.398  0.00  0.00    -0.167 NA
ATOM     10  N   UNL     1      -1.037  -0.725   0.658  0.00  0.00    -0.279 N 
ATOM     11  H   UNL     1      -1.143  -0.357   1.549  0.00  0.00    +0.189 HD
BRANCH   7  12
ATOM     12  N   UNL     1      -0.927  -0.567  -2.957  0.00  0.00    +0.061 N 
ATOM     13  O   UNL     1       0.097  -0.232  -3.506  0.00  0.00    -0.126 OA
ATOM     14  O   UNL     1      -1.954  -0.647  -3.590  0.00  0.00    -0.126 OA
ENDBRANCH   7  12
ENDBRANCH   1   8
BRANCH   3  15
ATOM     15  C   UNL     1       0.072  -5.795  -1.580  0.00  0.00    +0.102 C 
ATOM     16  C   UNL     1       1.578  -5.917  -1.824  0.00  0.00    +0.033 C 
BRANCH  15  17
ATOM     17  C   UNL     1      -0.394  -6.949  -0.730  0.00  0.00    -0.014 A 
ATOM     18  C   UNL     1      -0.453  -6.815   0.645  0.00  0.00    +0.006 A 
ATOM     19  C   UNL     1      -0.881  -7.873   1.425  0.00  0.00    +0.000 A 
ATOM     20  C   UNL     1      -1.250  -9.065   0.831  0.00  0.00    +0.001 A 
ATOM     21  C   UNL     1      -1.192  -9.200  -0.543  0.00  0.00    +0.015 A 
ATOM     22  C   UNL     1      -0.769  -8.139  -1.325  0.00  0.00    +0.023 A 
ATOM     23 BR   UNL     1      -0.696  -8.321  -3.206  0.00  0.00    -0.050 Br
ENDBRANCH  15  17
ENDBRANCH   3  15
TORSDOF 4
