REMARK  Name = ZINC38684647
REMARK  13 active torsions:
REMARK  status: ('A' for Active; 'I' for Inactive)
REMARK    1  A    between atoms: C_1  and  C_2
REMARK    2  A    between atoms: C_2  and  C_3
REMARK    3  A    between atoms: C_2  and  C_4
REMARK    4  A    between atoms: C_4  and  C_5
REMARK    5  A    between atoms: C_5  and  O_6
REMARK    6  A    between atoms: O_6  and  C_7
REMARK    7  A    between atoms: C_11  and  C_13
REMARK    8  A    between atoms: C_18  and  O_27
REMARK    9  A    between atoms: C_22  and  N_26
REMARK   10  A    between atoms: C_23  and  C_24
REMARK   11  A    between atoms: O_27  and  C_28
REMARK   12  A    between atoms: C_28  and  C_30
REMARK   13  A    between atoms: C_31  and  C_32
REMARK                            x       y       z     vdW  Elec       q    Type
REMARK                         _______ _______ _______ _____ _____    ______ ____
ROOT
ATOM      1  C   UNL     1      -7.705  -1.037  -3.568  0.00  0.00    +0.098 C 
ATOM      2  C   UNL     1      -7.888  -1.945  -4.756  0.00  0.00    +0.008 A 
ATOM      3  C   UNL     1      -7.333  -3.212  -4.735  0.00  0.00    +0.012 A 
ATOM      4  C   UNL     1      -7.490  -4.058  -5.815  0.00  0.00    +0.047 A 
ATOM      5  C   UNL     1      -8.207  -3.637  -6.927  0.00  0.00    +0.135 A 
ATOM      6  C   UNL     1      -8.762  -2.369  -6.951  0.00  0.00    +0.093 A 
ATOM      7  C   UNL     1      -8.603  -1.519  -5.864  0.00  0.00    +0.138 A 
ATOM      8  O   UNL     1      -9.153  -0.281  -5.903  0.00  0.00    -0.441 OA
ATOM      9  C   UNL     1      -9.354   0.400  -4.762  0.00  0.00    +0.199 C 
ATOM     10  C   UNL     1      -8.697   0.090  -3.622  0.00  0.00    +0.098 C 
ENDROOT
BRANCH   1  15
ATOM     11  C   UNL     1      -4.168  -0.203  -2.534  0.00  0.00    +0.121 A 
ATOM     12  C   UNL     1      -3.742   0.565  -3.608  0.00  0.00    +0.045 A 
ATOM     13  C   UNL     1      -4.599   0.810  -4.663  0.00  0.00    +0.004 A 
ATOM     14  C   UNL     1      -5.881   0.291  -4.649  0.00  0.00    +0.005 A 
ATOM     15  C   UNL     1      -6.308  -0.474  -3.580  0.00  0.00    -0.031 A 
ATOM     16  C   UNL     1      -5.452  -0.727  -2.525  0.00  0.00    +0.050 A 
BRANCH  11  17
ATOM     17  O   UNL     1      -3.326  -0.446  -1.495  0.00  0.00    -0.492 OA
BRANCH  17  18
ATOM     18  C   UNL     1      -2.019   0.125  -1.572  0.00  0.00    +0.229 C 
BRANCH  18  19
ATOM     19  C   UNL     1      -1.222  -0.255  -0.322  0.00  0.00    +0.044 C 
BRANCH  19  21
ATOM     20  C   UNL     1       0.071   1.883  -0.368  0.00  0.00    +0.007 C 
ATOM     21  C   UNL     1       0.178   0.357  -0.404  0.00  0.00    -0.014 C 
ATOM     22  C   UNL     1       1.015  -0.124   0.783  0.00  0.00    +0.007 C 
ENDBRANCH  19  21
ENDBRANCH  18  19
ENDBRANCH  17  18
ENDBRANCH  11  17
ENDBRANCH   1  15
BRANCH   9  23
ATOM     23  N   UNL     1     -10.249   1.440  -4.755  0.00  0.00    -0.328 N 
ATOM     24  H   UNL     1     -10.727   1.674  -5.566  0.00  0.00    +0.145 HD
ATOM     25  H   UNL     1     -10.405   1.941  -3.939  0.00  0.00    +0.145 HD
ENDBRANCH   9  23
BRANCH  10  26
ATOM     26  C   UNL     1      -8.955   0.856  -2.440  0.00  0.00    +0.101 C 
ATOM     27  N   UNL     1      -9.159   1.463  -1.502  0.00  0.00    -0.191 NA
ENDBRANCH  10  26
BRANCH   5  28
ATOM     28  O   UNL     1      -8.362  -4.469  -7.991  0.00  0.00    -0.423 OA
BRANCH  28  29
ATOM     29  C   UNL     1      -9.148  -5.555  -7.837  0.00  0.00    +0.337 C 
ATOM     30  O   UNL     1      -9.774  -5.710  -6.806  0.00  0.00    -0.245 OA
BRANCH  29  31
ATOM     31  C   UNL     1      -9.246  -6.544  -8.909  0.00  0.00    +0.092 C 
ATOM     32  C   UNL     1     -10.032  -7.630  -8.755  0.00  0.00    +0.016 C 
BRANCH  32  33
ATOM     33  C   UNL     1     -10.130  -8.625  -9.833  0.00  0.00    -0.006 A 
ATOM     34  C   UNL     1      -9.407  -8.453 -11.018  0.00  0.00    +0.009 A 
ATOM     35  C   UNL     1      -9.505  -9.390 -12.024  0.00  0.00    +0.001 A 
ATOM     36  C   UNL     1     -10.316 -10.500 -11.866  0.00  0.00    +0.001 A 
ATOM     37  C   UNL     1     -11.036 -10.679 -10.698  0.00  0.00    +0.020 A 
ATOM     38  C   UNL     1     -10.945  -9.753  -9.678  0.00  0.00    +0.048 A 
ATOM     39 CL   UNL     1     -11.842  -9.984  -8.210  0.00  0.00    -0.083 Cl
ENDBRANCH  32  33
ENDBRANCH  29  31
ENDBRANCH  28  29
ENDBRANCH   5  28
TORSDOF 11
