REMARK  Name = ZINC21797952
REMARK  3 active torsions:
REMARK  status: ('A' for Active; 'I' for Inactive)
REMARK    1  A    between atoms: C_1  and  C_2
REMARK    2  A    between atoms: C_12  and  C_14
REMARK    3  A    between atoms: C_14  and  C_15
REMARK                            x       y       z     vdW  Elec       q    Type
REMARK                         _______ _______ _______ _____ _____    ______ ____
ROOT
ATOM      1  C   UNL     1      -0.019   1.526   0.010  0.00  0.00    +0.008 C 
ATOM      2  C   UNL     1       0.002  -0.004   0.002  0.00  0.00    -0.009 C 
ATOM      3  C   UNL     1      -1.433  -0.537   0.032  0.00  0.00    +0.010 C 
ATOM      4  C   UNL     1      -1.440  -2.045  -0.223  0.00  0.00    +0.056 C 
ATOM      5  C   UNL     1      -0.476  -2.712   0.753  0.00  0.00    +0.054 A 
ATOM      6  C   UNL     1       0.479  -1.977   1.380  0.00  0.00    +0.015 A 
ATOM      7  S   UNL     1       1.308  -3.187   2.376  0.00  0.00    -0.057 S 
ATOM      8  C   UNL     1       0.346  -4.553   1.896  0.00  0.00    +0.165 A 
ATOM      9  N   UNL     1      -0.501  -4.009   1.047  0.00  0.00    -0.229 NA
ATOM     10  N   UNL     1       0.445  -5.878   2.304  0.00  0.00    -0.264 N 
ATOM     11  C   UNL     1      -0.405  -6.800   1.810  0.00  0.00    +0.223 C 
ATOM     12  O   UNL     1      -1.256  -6.474   1.011  0.00  0.00    -0.275 OA
ATOM     13  C   UNL     1       0.745  -0.516   1.246  0.00  0.00    +0.047 C 
ATOM     14  H   UNL     1       1.217  -6.174   3.029  0.00  0.00    +0.157 HD
ENDROOT
BRANCH  11  15
ATOM     15  C   UNL     1      -0.298  -8.237   2.253  0.00  0.00    +0.133 C 
BRANCH  15  16
ATOM     16  C   UNL     1      -1.355  -9.056   1.559  0.00  0.00    -0.014 A 
ATOM     17  C   UNL     1      -2.567  -9.370   2.042  0.00  0.00    +0.087 A 
ATOM     18  N   UNL     1      -3.252 -10.126   1.131  0.00  0.00    -0.360 N 
ATOM     19  H   UNL     1      -4.270 -10.476   1.360  0.00  0.00    +0.165 HD
ATOM     20  C   UNL     1      -2.477 -10.323   0.009  0.00  0.00    +0.047 A 
ATOM     21  C   UNL     1      -1.257  -9.656   0.226  0.00  0.00    +0.003 A 
ATOM     22  C   UNL     1      -0.267  -9.680  -0.757  0.00  0.00    +0.010 A 
ATOM     23  C   UNL     1      -0.489 -10.348  -1.929  0.00  0.00    +0.001 A 
ATOM     24  C   UNL     1      -1.692 -11.004  -2.148  0.00  0.00    +0.002 A 
ATOM     25  C   UNL     1      -2.681 -11.000  -1.188  0.00  0.00    +0.026 A 
ENDBRANCH  15  16
ENDBRANCH  11  15
TORSDOF 2
