REMARK  Name = ZINC36583897
REMARK  18 active torsions:
REMARK  status: ('A' for Active; 'I' for Inactive)
REMARK    1  A    between atoms: C_1  and  C_2
REMARK    2  A    between atoms: C_2  and  C_3
REMARK    3  A    between atoms: C_2  and  C_4
REMARK    4  A    between atoms: C_2  and  C_5
REMARK    5  A    between atoms: C_5  and  C_6
REMARK    6  A    between atoms: C_6  and  C_7
REMARK    7  A    between atoms: C_6  and  C_8
REMARK    8  A    between atoms: C_6  and  N_9
REMARK    9  A    between atoms: C_10  and  C_12
REMARK   10  A    between atoms: C_12  and  C_14
REMARK   11  A    between atoms: C_12  and  N_21
REMARK   12  A    between atoms: C_19  and  O_20
REMARK   13  A    between atoms: N_21  and  C_32
REMARK   14  A    between atoms: C_22  and  C_24
REMARK   15  A    between atoms: C_24  and  C_25
REMARK   16  A    between atoms: C_32  and  C_33
REMARK   17  A    between atoms: C_32  and  C_34
REMARK   18  A    between atoms: C_32  and  C_35
REMARK                            x       y       z     vdW  Elec       q    Type
REMARK                         _______ _______ _______ _____ _____    ______ ____
ROOT
ATOM      1  C   UNL     1       5.249  -1.538  -4.329  0.00  0.00    +0.196 C 
ENDROOT
BRANCH   1   2
ATOM      2  C   UNL     1       4.517  -1.096  -5.570  0.00  0.00    +0.023 A 
ATOM      3  C   UNL     1       3.504  -0.161  -5.478  0.00  0.00    +0.009 A 
ATOM      4  C   UNL     1       2.831   0.245  -6.616  0.00  0.00    +0.001 A 
ATOM      5  C   UNL     1       3.171  -0.283  -7.848  0.00  0.00    +0.004 A 
ATOM      6  C   UNL     1       4.183  -1.218  -7.945  0.00  0.00    +0.046 A 
ATOM      7  C   UNL     1       4.863  -1.623  -6.805  0.00  0.00    +0.122 A 
BRANCH   7   8
ATOM      8  O   UNL     1       5.863  -2.538  -6.898  0.00  0.00    -0.506 OA
ATOM      9  H   UNL     1       5.580  -3.449  -6.738  0.00  0.00    +0.292 HD
ENDBRANCH   7   8
ENDBRANCH   1   2
BRANCH   1  11
ATOM     10  N   UNL     1       3.274  -2.068  -2.938  0.00  0.00    -0.308 N 
ATOM     11  C   UNL     1       4.375  -1.312  -3.123  0.00  0.00    +0.239 C 
ATOM     12  O   UNL     1       4.661  -0.451  -2.318  0.00  0.00    -0.273 OA
ATOM     13  H   UNL     1       3.072  -2.790  -3.553  0.00  0.00    +0.149 HD
BRANCH  10  14
ATOM     14  C   UNL     1       2.382  -1.798  -1.807  0.00  0.00    +0.030 C 
ATOM     15  C   UNL     1       2.049  -0.305  -1.765  0.00  0.00    +0.031 C 
ATOM     16  C   UNL     1       3.072  -2.204  -0.504  0.00  0.00    +0.031 C 
BRANCH  14  17
ATOM     17  C   UNL     1       1.091  -2.603  -1.973  0.00  0.00    +0.031 C 
BRANCH  17  19
ATOM     18  C   UNL     1       1.374  -3.552  -4.266  0.00  0.00    +0.010 C 
ATOM     19  C   UNL     1       0.621  -2.519  -3.426  0.00  0.00    -0.036 C 
ATOM     20  C   UNL     1       0.897  -1.117  -3.972  0.00  0.00    +0.010 C 
ATOM     21  C   UNL     1      -0.881  -2.805  -3.493  0.00  0.00    +0.010 C 
ENDBRANCH  17  19
ENDBRANCH  14  17
ENDBRANCH  10  14
ENDBRANCH   1  11
BRANCH   1  22
ATOM     22  N   UNL     1       6.484  -0.762  -4.189  0.00  0.00    -0.280 N 
ATOM     23  C   UNL     1       6.433   0.583  -4.136  0.00  0.00    +0.221 C 
ATOM     24  O   UNL     1       5.360   1.148  -4.099  0.00  0.00    -0.275 OA
BRANCH  22  25
ATOM     25  C   UNL     1       7.775  -1.450  -4.104  0.00  0.00    +0.030 C 
ATOM     26  C   UNL     1       7.559  -2.958  -4.243  0.00  0.00    +0.031 C 
ATOM     27  C   UNL     1       8.688  -0.960  -5.230  0.00  0.00    +0.031 C 
ATOM     28  C   UNL     1       8.426  -1.150  -2.753  0.00  0.00    +0.031 C 
ENDBRANCH  22  25
BRANCH  23  29
ATOM     29  C   UNL     1       7.708   1.386  -4.125  0.00  0.00    +0.131 C 
BRANCH  29  30
ATOM     30  C   UNL     1       7.377   2.853  -4.028  0.00  0.00    -0.039 A 
ATOM     31  C   UNL     1       7.186   3.596  -5.178  0.00  0.00    +0.005 A 
ATOM     32  C   UNL     1       6.882   4.941  -5.090  0.00  0.00    +0.015 A 
ATOM     33  C   UNL     1       6.769   5.545  -3.851  0.00  0.00    +0.018 A 
ATOM     34  C   UNL     1       6.961   4.801  -2.700  0.00  0.00    +0.015 A 
ATOM     35  C   UNL     1       7.260   3.455  -2.789  0.00  0.00    +0.005 A 
ATOM     36 BR   UNL     1       6.354   7.386  -3.729  0.00  0.00    -0.050 Br
ENDBRANCH  29  30
ENDBRANCH  23  29
ENDBRANCH   1  22
TORSDOF 10
