REMARK  Name = ZINC41310951
REMARK  5 active torsions:
REMARK  status: ('A' for Active; 'I' for Inactive)
REMARK    1  A    between atoms: C_9  and  C_11
REMARK    2  A    between atoms: N_13  and  C_14
REMARK    3  A    between atoms: C_15  and  C_23
REMARK    4  A    between atoms: N_25  and  C_26
REMARK    5  A    between atoms: C_26  and  C_27
REMARK                            x       y       z     vdW  Elec       q    Type
REMARK                         _______ _______ _______ _____ _____    ______ ____
ROOT
ATOM      1  C   UNL     1       7.949   2.215  -0.061  0.00  0.00    +0.085 A 
ATOM      2  C   UNL     1       8.725   3.364  -0.056  0.00  0.00    +0.069 A 
ATOM      3  C   UNL     1      10.167   3.190  -0.072  0.00  0.00    -0.023 A 
ATOM      4  C   UNL     1      10.568   1.901  -0.089  0.00  0.00    -0.004 A 
ATOM      5  S   UNL     1       9.069   0.964  -0.076  0.00  0.00    -0.077 S 
ATOM      6  C   UNL     1      11.979   1.398  -0.109  0.00  0.00    +0.043 C 
ATOM      7  C   UNL     1      12.902   2.566  -0.488  0.00  0.00    +0.005 C 
ATOM      8  C   UNL     1      12.535   3.784   0.365  0.00  0.00    +0.005 C 
ATOM      9  C   UNL     1      11.173   4.332  -0.069  0.00  0.00    +0.037 C 
ENDROOT
BRANCH   1  12
ATOM     10  C   UNL     1       5.974   0.911  -0.049  0.00  0.00    +0.284 C 
ATOM     11  O   UNL     1       6.652  -0.099  -0.061  0.00  0.00    -0.266 OA
ATOM     12  N   UNL     1       6.567   2.121  -0.049  0.00  0.00    -0.273 N 
ATOM     13  H   UNL     1       6.026   2.926  -0.040  0.00  0.00    +0.156 HD
BRANCH  10  22
ATOM     14  C   UNL     1      -0.017   1.385   0.010  0.00  0.00    +0.023 A 
ATOM     15  C   UNL     1       1.158   2.105   0.002  0.00  0.00    +0.048 A 
ATOM     16  C   UNL     1       2.378   1.440  -0.013  0.00  0.00    +0.136 A 
ATOM     17  C   UNL     1       2.392   0.032  -0.021  0.00  0.00    +0.022 A 
ATOM     18  C   UNL     1       1.191  -0.680  -0.013  0.00  0.00    +0.031 A 
ATOM     19  C   UNL     1       0.002  -0.004   0.002  0.00  0.00    +0.042 A 
ATOM     20 CL   UNL     1      -1.493  -0.887   0.012  0.00  0.00    -0.084 Cl
ATOM     21  C   UNL     1       3.803  -0.350  -0.036  0.00  0.00    +0.063 A 
ATOM     22  C   UNL     1       4.508   0.811  -0.037  0.00  0.00    +0.191 A 
ATOM     23  O   UNL     1       3.659   1.859  -0.023  0.00  0.00    -0.450 OA
ENDBRANCH  10  22
ENDBRANCH   1  12
BRANCH   2  24
ATOM     24  C   UNL     1       8.116   4.697  -0.037  0.00  0.00    +0.247 C 
ATOM     25  O   UNL     1       7.873   5.240   1.025  0.00  0.00    -0.270 OA
ATOM     26  N   UNL     1       7.825   5.322  -1.196  0.00  0.00    -0.309 N 
ATOM     27  H   UNL     1       8.018   4.889  -2.042  0.00  0.00    +0.149 HD
BRANCH  26  28
ATOM     28  C   UNL     1       7.216   6.654  -1.177  0.00  0.00    +0.136 C 
BRANCH  28  29
ATOM     29  C   UNL     1       6.991   7.132  -2.612  0.00  0.00    +0.135 C 
ATOM     30  C   UNL     1       6.379   8.556  -2.615  0.00  0.00    +0.035 C 
ATOM     31  C   UNL     1       6.832   9.068  -4.010  0.00  0.00    +0.031 C 
ATOM     32  C   UNL     1       8.210   8.393  -4.176  0.00  0.00    +0.160 C 
ATOM     33  O   UNL     1       8.246   7.260  -3.299  0.00  0.00    -0.375 OA
ENDBRANCH  28  29
ENDBRANCH  26  28
ENDBRANCH   2  24
TORSDOF 5
