REMARK  Name = ZINC08780793
REMARK  6 active torsions:
REMARK  status: ('A' for Active; 'I' for Inactive)
REMARK    1  A    between atoms: C_6  and  C_7
REMARK    2  A    between atoms: C_7  and  N_49
REMARK    3  A    between atoms: C_10  and  C_13
REMARK    4  A    between atoms: N_15  and  N_16
REMARK    5  A    between atoms: C_17  and  C_18
REMARK    6  A    between atoms: C_21  and  N_24
REMARK                            x       y       z     vdW  Elec       q    Type
REMARK                         _______ _______ _______ _____ _____    ______ ____
ROOT
ATOM      1  C   UNL     1      -9.797   1.034  -0.009  0.00  0.00    -0.078 C 
ATOM      2  C   UNL     1      -8.483   1.816   0.051  0.00  0.00    -0.006 C 
ATOM      3  C   UNL     1      -7.309   0.833   0.040  0.00  0.00    +0.073 C 
ATOM      4  C   UNL     1      -7.392  -0.035  -1.219  0.00  0.00    -0.006 C 
ATOM      5  C   UNL     1      -8.738  -0.764  -1.242  0.00  0.00    -0.078 C 
ATOM      6  N   UNL     1      -9.825   0.238  -1.255  0.00  0.00    +0.382 N 
ATOM      7  H   UNL     1      -9.689   0.867  -2.055  0.00  0.00    -0.081 HD
ENDROOT
BRANCH   3   8
ATOM      8  C   UNL     1      -6.011   1.599   0.038  0.00  0.00    +0.235 C 
ATOM      9  O   UNL     1      -6.022   2.812   0.045  0.00  0.00    -0.274 OA
ATOM     10  N   UNL     1      -4.837   0.936   0.029  0.00  0.00    -0.207 N 
ATOM     11  H   UNL     1      -4.828  -0.034   0.023  0.00  0.00    +0.177 HD
BRANCH  10  12
ATOM     12  N   UNL     1      -3.631   1.648   0.028  0.00  0.00    -0.188 NA
ATOM     13  C   UNL     1      -2.501   1.010   0.019  0.00  0.00    +0.138 C 
BRANCH  13  14
ATOM     14  C   UNL     1      -1.231   1.759   0.017  0.00  0.00    -0.005 A 
ATOM     15  C   UNL     1      -0.013   1.076   0.008  0.00  0.00    +0.012 A 
ATOM     16  C   UNL     1       1.171   1.783   0.001  0.00  0.00    +0.033 A 
ATOM     17  C   UNL     1       1.155   3.167   0.008  0.00  0.00    +0.126 A 
ATOM     18  C   UNL     1      -0.048   3.851   0.023  0.00  0.00    +0.033 A 
ATOM     19  C   UNL     1      -1.240   3.156   0.031  0.00  0.00    +0.012 A 
BRANCH  17  20
ATOM     20  N   UNL     1       2.429   3.919  -0.001  0.00  0.00    +0.056 N 
ATOM     21  O   UNL     1       3.490   3.320  -0.014  0.00  0.00    -0.126 OA
ATOM     22  O   UNL     1       2.418   5.137   0.006  0.00  0.00    -0.126 OA
ENDBRANCH  17  20
ENDBRANCH  13  14
ENDBRANCH  10  12
ENDBRANCH   3   8
BRANCH   6  23
ATOM     23  C   UNL     1     -11.132  -0.438  -1.392  0.00  0.00    -0.043 C 
BRANCH  23  29
ATOM     24  C   UNL     1     -11.719  -0.328  -3.823  0.00  0.00    +0.003 A 
ATOM     25  C   UNL     1     -11.791  -0.895  -5.081  0.00  0.00    +0.015 A 
ATOM     26  C   UNL     1     -11.369  -2.198  -5.278  0.00  0.00    +0.018 A 
ATOM     27  C   UNL     1     -10.870  -2.930  -4.216  0.00  0.00    +0.015 A 
ATOM     28  C   UNL     1     -10.794  -2.361  -2.959  0.00  0.00    +0.003 A 
ATOM     29  C   UNL     1     -11.215  -1.059  -2.763  0.00  0.00    -0.064 A 
ATOM     30 BR   UNL     1     -11.474  -2.977  -6.998  0.00  0.00    -0.050 Br
ENDBRANCH  23  29
ENDBRANCH   6  23
TORSDOF 6
