REMARK  Name = ZINC04723406
REMARK  3 active torsions:
REMARK  status: ('A' for Active; 'I' for Inactive)
REMARK    1  A    between atoms: C_1  and  C_2
REMARK    2  A    between atoms: C_5  and  N_8
REMARK    3  A    between atoms: C_15  and  C_20
REMARK                            x       y       z     vdW  Elec       q    Type
REMARK                         _______ _______ _______ _____ _____    ______ ____
ROOT
ATOM      1  N   UNL     1      -0.648  -1.519  -1.994  0.00  0.00    -0.192 N 
ATOM      2  C   UNL     1      -1.186  -0.834  -0.964  0.00  0.00    +0.249 C 
ATOM      3  O   UNL     1      -2.363  -0.715  -0.695  0.00  0.00    -0.273 OA
ATOM      4  C   UNL     1      -0.013  -0.246  -0.215  0.00  0.00    +0.176 C 
ATOM      5  C   UNL     1      -0.155   1.299  -0.126  0.00  0.00    +0.103 C 
ATOM      6  S   UNL     1       1.632   1.738   0.038  0.00  0.00    -0.131 S 
ATOM      7  C   UNL     1       2.351   0.187  -0.650  0.00  0.00    +0.167 C 
ATOM      8  N   UNL     1       1.142  -0.553  -1.083  0.00  0.00    -0.256 N 
ATOM      9  C   UNL     1       0.684  -1.393  -2.028  0.00  0.00    +0.317 C 
ATOM     10  O   UNL     1       1.399  -1.973  -2.822  0.00  0.00    -0.252 OA
ENDROOT
BRANCH   1  15
ATOM     11  C   UNL     1      -3.661  -4.561  -5.721  0.00  0.00    +0.044 C 
ATOM     12  C   UNL     1      -2.861  -3.753  -4.731  0.00  0.00    -0.050 A 
ATOM     13  C   UNL     1      -1.503  -3.576  -4.923  0.00  0.00    +0.005 A 
ATOM     14  C   UNL     1      -0.767  -2.837  -4.017  0.00  0.00    +0.024 A 
ATOM     15  C   UNL     1      -1.393  -2.270  -2.915  0.00  0.00    +0.045 A 
ATOM     16  C   UNL     1      -2.755  -2.454  -2.723  0.00  0.00    +0.024 A 
ATOM     17  C   UNL     1      -3.487  -3.190  -3.634  0.00  0.00    +0.005 A 
ENDBRANCH   1  15
BRANCH   7  18
ATOM     18  C   UNL     1       3.095  -0.577   0.415  0.00  0.00    -0.017 A 
ATOM     19  C   UNL     1       2.458  -0.918   1.593  0.00  0.00    +0.007 A 
ATOM     20  C   UNL     1       3.139  -1.623   2.568  0.00  0.00    +0.015 A 
ATOM     21  C   UNL     1       4.461  -1.978   2.368  0.00  0.00    +0.018 A 
ATOM     22  C   UNL     1       5.100  -1.631   1.191  0.00  0.00    +0.015 A 
ATOM     23  C   UNL     1       4.417  -0.931   0.215  0.00  0.00    +0.007 A 
ATOM     24 BR   UNL     1       5.396  -2.935   3.704  0.00  0.00    -0.050 Br
ENDBRANCH   7  18
TORSDOF 2
