REMARK  Name = ZINC67000610
REMARK  10 active torsions:
REMARK  status: ('A' for Active; 'I' for Inactive)
REMARK    1  A    between atoms: C_1  and  N_2
REMARK    2  A    between atoms: N_2  and  C_3
REMARK    3  A    between atoms: N_2  and  C_4
REMARK    4  A    between atoms: C_4  and  C_5
REMARK    5  A    between atoms: C_5  and  C_6
REMARK    6  A    between atoms: C_9  and  N_12
REMARK    7  A    between atoms: C_13  and  C_15
REMARK    8  A    between atoms: N_17  and  C_18
REMARK    9  A    between atoms: C_18  and  C_19
REMARK   10  A    between atoms: C_19  and  O_29
REMARK                            x       y       z     vdW  Elec       q    Type
REMARK                         _______ _______ _______ _____ _____    ______ ____
ROOT
ATOM      1  C   UNL     1      -9.728  -1.966  -0.440  0.00  0.00    +0.299 C 
ATOM      2  O   UNL     1      -9.964  -3.070  -0.884  0.00  0.00    -0.265 OA
ATOM      3  N   UNL     1     -10.720  -1.231   0.101  0.00  0.00    -0.305 N 
ATOM      4  H   UNL     1     -10.532  -0.348   0.455  0.00  0.00    +0.149 HD
ENDROOT
BRANCH   1   6
ATOM      5  N   UNL     1      -7.347  -2.154  -1.036  0.00  0.00    -0.278 N 
ATOM      6  C   UNL     1      -8.339  -1.420  -0.495  0.00  0.00    +0.303 C 
ATOM      7  O   UNL     1      -8.103  -0.315  -0.051  0.00  0.00    -0.265 OA
ATOM      8  H   UNL     1      -7.548  -3.005  -1.457  0.00  0.00    +0.155 HD
BRANCH   5  12
ATOM      9  C   UNL     1      -3.421  -0.772  -0.901  0.00  0.00    -0.049 A 
ATOM     10  C   UNL     1      -3.852  -1.522  -1.980  0.00  0.00    +0.005 A 
ATOM     11  C   UNL     1      -5.153  -1.982  -2.028  0.00  0.00    +0.023 A 
ATOM     12  C   UNL     1      -6.029  -1.691  -0.991  0.00  0.00    +0.034 A 
ATOM     13  C   UNL     1      -5.594  -0.937   0.092  0.00  0.00    +0.023 A 
ATOM     14  C   UNL     1      -4.290  -0.484   0.136  0.00  0.00    +0.005 A 
BRANCH   9  15
ATOM     15  C   UNL     1      -2.001  -0.271  -0.852  0.00  0.00    +0.016 C 
BRANCH  15  16
ATOM     16  C   UNL     1      -1.117  -1.312  -0.163  0.00  0.00    -0.075 C 
BRANCH  16  18
ATOM     17  C   UNL     1       0.338   0.370   0.737  0.00  0.00    -0.097 C 
ATOM     18  N   UNL     1       0.268  -0.825  -0.115  0.00  0.00    +0.376 N 
ATOM     19  C   UNL     1       1.138  -1.871   0.438  0.00  0.00    -0.097 C 
ATOM     20  H   UNL     1       0.575  -0.591  -1.048  0.00  0.00    -0.083 HD
ENDBRANCH  16  18
ENDBRANCH  15  16
ENDBRANCH   9  15
ENDBRANCH   5  12
ENDBRANCH   1   6
BRANCH   3  21
ATOM     21  C   UNL     1     -12.082  -1.766   0.154  0.00  0.00    +0.144 C 
BRANCH  21  22
ATOM     22  C   UNL     1     -13.021  -0.714   0.749  0.00  0.00    +0.107 C 
ATOM     23  C   UNL     1     -12.504  -0.299   2.125  0.00  0.00    +0.041 C 
ATOM     24  C   UNL     1     -13.564   0.584   2.794  0.00  0.00    +0.008 C 
ATOM     25  C   UNL     1     -14.763  -0.291   3.153  0.00  0.00    +0.035 C 
ATOM     26  C   UNL     1     -15.210  -1.093   1.959  0.00  0.00    -0.041 A 
ATOM     27  C   UNL     1     -14.408  -1.290   0.857  0.00  0.00    -0.011 A 
ATOM     28  C   UNL     1     -14.879  -2.046  -0.209  0.00  0.00    +0.007 A 
ATOM     29  C   UNL     1     -16.144  -2.597  -0.173  0.00  0.00    +0.000 A 
ATOM     30  C   UNL     1     -16.950  -2.395   0.931  0.00  0.00    +0.000 A 
ATOM     31  C   UNL     1     -16.483  -1.647   1.992  0.00  0.00    +0.004 A 
BRANCH  22  32
ATOM     32  O   UNL     1     -13.050   0.429  -0.107  0.00  0.00    -0.382 OA
ATOM     33  H   UNL     1     -13.361   0.241  -1.004  0.00  0.00    +0.211 HD
ENDBRANCH  22  32
ENDBRANCH  21  22
ENDBRANCH   3  21
TORSDOF 8
