REMARK  Name = ZINC63490424
REMARK  9 active torsions:
REMARK  status: ('A' for Active; 'I' for Inactive)
REMARK    1  A    between atoms: C_1  and  C_2
REMARK    2  A    between atoms: C_5  and  N_8
REMARK    3  A    between atoms: N_8  and  C_9
REMARK    4  A    between atoms: C_9  and  N_11
REMARK    5  A    between atoms: N_11  and  C_12
REMARK    6  A    between atoms: C_12  and  C_13
REMARK    7  A    between atoms: C_13  and  C_14
REMARK    8  A    between atoms: C_17  and  C_25
REMARK    9  A    between atoms: C_22  and  C_24
REMARK                            x       y       z     vdW  Elec       q    Type
REMARK                         _______ _______ _______ _____ _____    ______ ____
ROOT
ATOM      1  C   UNL     1       0.420  -6.928   2.382  0.00  0.00    +0.107 C 
ENDROOT
BRANCH   1   2
ATOM      2  N   UNL     1       0.294  -6.191   1.123  0.00  0.00    -0.326 N 
ATOM      3  H   UNL     1       0.296  -6.668   0.279  0.00  0.00    +0.148 HD
BRANCH   2   4
ATOM      4  C   UNL     1       0.174  -4.848   1.138  0.00  0.00    +0.135 C 
ATOM      5  S   UNL     1       0.171  -4.005   2.628  0.00  0.00    -0.019 S 
BRANCH   4   6
ATOM      6  N   UNL     1       0.058  -4.169  -0.021  0.00  0.00    -0.297 N 
ATOM      7  H   UNL     1      -0.021  -4.651  -0.859  0.00  0.00    +0.154 HD
BRANCH   6  12
ATOM      8  C   UNL     1       0.030   1.503   0.005  0.00  0.00    +0.044 C 
ATOM      9  C   UNL     1       0.037  -0.004  -0.002  0.00  0.00    -0.050 A 
ATOM     10  C   UNL     1       0.923  -0.693   0.806  0.00  0.00    +0.005 A 
ATOM     11  C   UNL     1       0.932  -2.074   0.802  0.00  0.00    +0.023 A 
ATOM     12  C   UNL     1       0.051  -2.771  -0.014  0.00  0.00    +0.033 A 
ATOM     13  C   UNL     1      -0.838  -2.075  -0.824  0.00  0.00    +0.023 A 
ATOM     14  C   UNL     1      -0.846  -0.694  -0.811  0.00  0.00    +0.005 A 
ENDBRANCH   6  12
ENDBRANCH   4   6
ENDBRANCH   2   4
ENDBRANCH   1   2
BRANCH   1  15
ATOM     15  C   UNL     1       0.540  -8.425   2.087  0.00  0.00    +0.052 C 
BRANCH  15  16
ATOM     16  C   UNL     1       0.670  -9.184   3.382  0.00  0.00    -0.037 C 
ATOM     17  C   UNL     1       0.678  -8.665   4.631  0.00  0.00    -0.001 A 
ATOM     18  C   UNL     1       0.573  -7.292   5.138  0.00  0.00    +0.013 A 
ATOM     19  C   UNL     1       0.614  -7.080   6.474  0.00  0.00    -0.050 A 
ATOM     20  C   UNL     1       0.754  -8.138   7.383  0.00  0.00    +0.005 A 
ATOM     21  C   UNL     1       0.857  -9.426   6.994  0.00  0.00    +0.026 A 
ATOM     22  C   UNL     1       0.825  -9.764   5.612  0.00  0.00    +0.043 A 
ATOM     23  N   UNL     1       0.905 -10.917   4.994  0.00  0.00    -0.378 N 
ATOM     24  C   UNL     1       0.812 -10.680   3.549  0.00  0.00    +0.103 C 
ATOM     25  C   UNL     1      -0.413 -11.393   2.973  0.00  0.00    +0.035 C 
ATOM     26  C   UNL     1       0.506  -5.671   6.997  0.00  0.00    +0.044 C 
ATOM     27  H   UNL     1       1.006 -11.782   5.420  0.00  0.00    +0.160 HD
ENDBRANCH  15  16
ENDBRANCH   1  15
TORSDOF 6
