REMARK  Name = ZINC05624080
REMARK  5 active torsions:
REMARK  status: ('A' for Active; 'I' for Inactive)
REMARK    1  A    between atoms: C_1  and  C_2
REMARK    2  A    between atoms: C_5  and  N_9
REMARK    3  A    between atoms: C_7  and  C_8
REMARK    4  A    between atoms: C_13  and  S_15
REMARK    5  A    between atoms: S_15  and  C_16
REMARK                            x       y       z     vdW  Elec       q    Type
REMARK                         _______ _______ _______ _____ _____    ______ ____
ROOT
ATOM      1  N   UNL     1      -0.011   0.966   0.007  0.00  0.00    -0.292 N 
ATOM      2  C   UNL     1       1.200   1.625  -0.173  0.00  0.00    +0.187 A 
ATOM      3  N   UNL     1       1.427   2.895  -0.445  0.00  0.00    -0.125 NA
ATOM      4  N   UNL     1       2.720   3.345  -0.585  0.00  0.00    -0.133 NA
ATOM      5  C   UNL     1       3.726   2.503  -0.447  0.00  0.00    +0.161 A 
ATOM      6  S   UNL     1       2.863   0.979  -0.093  0.00  0.00    -0.024 S 
ATOM      7  H   UNL     1      -0.021   0.036   0.284  0.00  0.00    +0.154 HD
ENDROOT
BRANCH   1  12
ATOM      8  C   UNL     1      -4.894   3.706  -0.894  0.00  0.00    +0.044 C 
ATOM      9  C   UNL     1      -3.596   2.978  -0.655  0.00  0.00    -0.047 A 
ATOM     10  C   UNL     1      -2.448   3.381  -1.312  0.00  0.00    +0.005 A 
ATOM     11  C   UNL     1      -1.257   2.716  -1.094  0.00  0.00    +0.023 A 
ATOM     12  C   UNL     1      -1.214   1.641  -0.215  0.00  0.00    +0.033 A 
ATOM     13  C   UNL     1      -2.371   1.235   0.439  0.00  0.00    +0.027 A 
ATOM     14  C   UNL     1      -3.557   1.908   0.221  0.00  0.00    -0.046 A 
ATOM     15  C   UNL     1      -4.812   1.472   0.933  0.00  0.00    +0.044 C 
ENDBRANCH   1  12
BRANCH   5  16
ATOM     16  S   UNL     1       5.458   2.802  -0.573  0.00  0.00    -0.086 S 
BRANCH  16  17
ATOM     17  C   UNL     1       5.571   4.574  -0.944  0.00  0.00    +0.119 C 
ATOM     18  C   UNL     1       7.043   5.001  -0.968  0.00  0.00    +0.022 C 
ATOM     19  C   UNL     1       7.141   6.460  -1.419  0.00  0.00    +0.002 C 
ATOM     20  C   UNL     1       6.629   6.595  -2.854  0.00  0.00    +0.008 C 
ATOM     21  C   UNL     1       5.142   6.227  -2.901  0.00  0.00    +0.075 C 
ATOM     22  C   UNL     1       4.964   4.848  -2.302  0.00  0.00    +0.147 C 
ATOM     23  O   UNL     1       4.358   3.989  -2.894  0.00  0.00    -0.296 OA
ENDBRANCH  16  17
ENDBRANCH   5  16
TORSDOF 3
