REMARK  Name = ZINC08412484
REMARK  9 active torsions:
REMARK  status: ('A' for Active; 'I' for Inactive)
REMARK    1  A    between atoms: C_1  and  C_2
REMARK    2  A    between atoms: C_5  and  C_8
REMARK    3  A    between atoms: C_13  and  C_17
REMARK    4  A    between atoms: C_13  and  C_18
REMARK    5  A    between atoms: N_19  and  C_31
REMARK    6  A    between atoms: C_20  and  N_30
REMARK    7  A    between atoms: C_21  and  C_22
REMARK    8  A    between atoms: C_22  and  C_24
REMARK    9  A    between atoms: C_34  and  N_37
REMARK                            x       y       z     vdW  Elec       q    Type
REMARK                         _______ _______ _______ _____ _____    ______ ____
ROOT
ATOM      1  C   UNL     1       4.756  -0.109   0.920  0.00  0.00    +0.091 C 
ATOM      2  C   UNL     1       4.488   1.274   0.381  0.00  0.00    +0.025 C 
ATOM      3  C   UNL     1       3.280   1.603  -0.125  0.00  0.00    +0.025 C 
ATOM      4  C   UNL     1       3.015   2.985  -0.665  0.00  0.00    +0.058 C 
ATOM      5  C   UNL     1       3.874   4.007   0.083  0.00  0.00    -0.023 C 
ATOM      6  C   UNL     1       5.346   3.616  -0.082  0.00  0.00    +0.086 C 
ATOM      7  C   UNL     1       5.537   2.210   0.418  0.00  0.00    +0.162 C 
ATOM      8  O   UNL     1       6.619   1.877   0.861  0.00  0.00    -0.292 OA
ATOM      9  C   UNL     1       3.503   4.002   1.567  0.00  0.00    +0.011 C 
ATOM     10  C   UNL     1       3.645   5.403  -0.499  0.00  0.00    +0.011 C 
ATOM     11  N   UNL     1       2.259   0.688  -0.149  0.00  0.00    -0.261 N 
ATOM     12  C   UNL     1       2.525  -0.657  -0.070  0.00  0.00    +0.100 C 
ATOM     13  C   UNL     1       3.726  -1.089   0.439  0.00  0.00    +0.048 C 
ENDROOT
BRANCH   1  18
ATOM     14  C   UNL     1       4.656   0.060   6.696  0.00  0.00    +0.044 C 
ATOM     15  C   UNL     1       4.682   0.015   5.189  0.00  0.00    -0.050 A 
ATOM     16  C   UNL     1       5.808  -0.442   4.531  0.00  0.00    +0.003 A 
ATOM     17  C   UNL     1       5.832  -0.482   3.149  0.00  0.00    +0.005 A 
ATOM     18  C   UNL     1       4.730  -0.065   2.426  0.00  0.00    -0.035 A 
ATOM     19  C   UNL     1       3.606   0.397   3.085  0.00  0.00    +0.005 A 
ATOM     20  C   UNL     1       3.580   0.432   4.467  0.00  0.00    +0.003 A 
ENDBRANCH   1  18
BRANCH  11  21
ATOM     21  C   UNL     1       0.935   1.129  -0.262  0.00  0.00    +0.040 A 
ATOM     22  C   UNL     1       0.330   1.204  -1.510  0.00  0.00    +0.026 A 
ATOM     23  C   UNL     1      -0.974   1.643  -1.618  0.00  0.00    +0.034 A 
ATOM     24  C   UNL     1      -1.682   1.998  -0.484  0.00  0.00    +0.126 A 
ATOM     25  C   UNL     1      -1.083   1.924   0.760  0.00  0.00    +0.034 A 
ATOM     26  C   UNL     1       0.223   1.491   0.875  0.00  0.00    +0.026 A 
BRANCH  24  27
ATOM     27  N   UNL     1      -3.083   2.463  -0.603  0.00  0.00    +0.056 N 
ATOM     28  O   UNL     1      -3.706   2.780   0.394  0.00  0.00    -0.126 OA
ATOM     29  O   UNL     1      -3.612   2.528  -1.698  0.00  0.00    -0.126 OA
ENDBRANCH  24  27
ENDBRANCH  11  21
BRANCH  12  30
ATOM     30  N   UNL     1       1.594  -1.567  -0.497  0.00  0.00    -0.346 N 
ATOM     31  H   UNL     1       0.791  -1.263  -0.949  0.00  0.00    +0.143 HD
ATOM     32  H   UNL     1       1.737  -2.514  -0.346  0.00  0.00    +0.143 HD
ENDBRANCH  12  30
BRANCH  13  33
ATOM     33  C   UNL     1       3.994  -2.463   0.508  0.00  0.00    +0.193 C 
ATOM     34  O   UNL     1       3.309  -3.183   1.215  0.00  0.00    -0.287 OA
BRANCH  33  35
ATOM     35  C   UNL     1       5.109  -3.041  -0.278  0.00  0.00    +0.022 A 
ATOM     36  C   UNL     1       5.833  -2.239  -1.160  0.00  0.00    +0.012 A 
ATOM     37  C   UNL     1       6.874  -2.782  -1.884  0.00  0.00    +0.001 A 
ATOM     38  C   UNL     1       7.193  -4.121  -1.746  0.00  0.00    +0.000 A 
ATOM     39  C   UNL     1       6.474  -4.923  -0.877  0.00  0.00    +0.001 A 
ATOM     40  C   UNL     1       5.435  -4.391  -0.142  0.00  0.00    +0.012 A 
ENDBRANCH  33  35
ENDBRANCH  13  33
TORSDOF 6
