REMARK  Name = ZINC14013896
REMARK  11 active torsions:
REMARK  status: ('A' for Active; 'I' for Inactive)
REMARK    1  A    between atoms: C_1  and  C_2
REMARK    2  A    between atoms: C_2  and  C_3
REMARK    3  A    between atoms: C_3  and  C_5
REMARK    4  A    between atoms: C_3  and  O_22
REMARK    5  A    between atoms: N_7  and  N_8
REMARK    6  A    between atoms: C_9  and  C_11
REMARK    7  A    between atoms: C_11  and  O_12
REMARK    8  A    between atoms: O_12  and  C_13
REMARK    9  A    between atoms: C_14  and  C_21
REMARK   10  A    between atoms: O_22  and  C_23
REMARK   11  A    between atoms: C_26  and  C_29
REMARK                            x       y       z     vdW  Elec       q    Type
REMARK                         _______ _______ _______ _____ _____    ______ ____
ROOT
ATOM      1  C   UNL     1       0.076  11.206  -3.000  0.00  0.00    +0.270 C 
ATOM      2  O   UNL     1       0.172  10.777  -4.131  0.00  0.00    -0.270 OA
ATOM      3  N   UNL     1       0.174  10.366  -1.950  0.00  0.00    -0.231 N 
ATOM      4  H   UNL     1       0.097  10.709  -1.046  0.00  0.00    +0.173 HD
ENDROOT
BRANCH   3   5
ATOM      5  N   UNL     1       0.388   8.999  -2.165  0.00  0.00    -0.231 N 
ATOM      6  C   UNL     1       0.487   8.159  -1.115  0.00  0.00    +0.267 C 
ATOM      7  O   UNL     1       0.391   8.588   0.015  0.00  0.00    -0.271 OA
ATOM      8  H   UNL     1       0.465   8.656  -3.069  0.00  0.00    +0.173 HD
BRANCH   6   9
ATOM      9  C   UNL     1       0.717   6.688  -1.346  0.00  0.00    +0.326 C 
BRANCH   9  10
ATOM     10  O   UNL     1       0.785   6.013  -0.088  0.00  0.00    -0.481 OA
BRANCH  10  11
ATOM     11  C   UNL     1       0.990   4.670  -0.119  0.00  0.00    +0.138 A 
ATOM     12  C   UNL     1      -0.092   3.803  -0.167  0.00  0.00    -0.007 A 
ATOM     13  C   UNL     1       0.119   2.438  -0.203  0.00  0.00    +0.022 A 
ATOM     14  C   UNL     1       1.407   1.935  -0.180  0.00  0.00    +0.019 A 
ATOM     15  C   UNL     1       2.488   2.797  -0.132  0.00  0.00    +0.034 A 
ATOM     16  C   UNL     1       2.282   4.163  -0.102  0.00  0.00    +0.061 A 
ATOM     17 BR   UNL     1       3.760   5.342  -0.037  0.00  0.00    -0.046 Br
ATOM     18 BR   UNL     1       1.692   0.066  -0.222  0.00  0.00    -0.050 Br
ATOM     19  C   UNL     1      -1.496   4.350  -0.185  0.00  0.00    +0.047 C 
ENDBRANCH  10  11
ENDBRANCH   9  10
ENDBRANCH   6   9
ENDBRANCH   3   5
BRANCH   1  20
ATOM     20  C   UNL     1      -0.154  12.677  -2.769  0.00  0.00    +0.260 C 
BRANCH  20  22
ATOM     21  C   UNL     1      -1.642  14.356  -1.669  0.00  0.00    +0.008 C 
ATOM     22  C   UNL     1      -1.469  12.875  -2.013  0.00  0.00    +0.051 C 
ENDBRANCH  20  22
BRANCH  20  23
ATOM     23  O   UNL     1      -0.222  13.352  -4.027  0.00  0.00    -0.480 OA
BRANCH  23  24
ATOM     24  C   UNL     1       0.271  14.617  -4.076  0.00  0.00    +0.122 A 
ATOM     25  C   UNL     1       0.193  15.349  -5.252  0.00  0.00    +0.046 A 
ATOM     26  C   UNL     1       0.689  16.637  -5.298  0.00  0.00    +0.007 A 
ATOM     27  C   UNL     1       1.276  17.193  -4.176  0.00  0.00    -0.050 A 
ATOM     28  C   UNL     1       1.361  16.464  -3.004  0.00  0.00    +0.007 A 
ATOM     29  C   UNL     1       0.860  15.177  -2.952  0.00  0.00    +0.046 A 
ATOM     30  C   UNL     1       1.823  18.596  -4.230  0.00  0.00    +0.044 C 
ENDBRANCH  23  24
ENDBRANCH  20  23
ENDBRANCH   1  20
TORSDOF 8
