REMARK  Name = ZINC36073613
REMARK  12 active torsions:
REMARK  status: ('A' for Active; 'I' for Inactive)
REMARK    1  A    between atoms: C_1  and  C_2
REMARK    2  A    between atoms: C_6  and  C_7
REMARK    3  A    between atoms: C_7  and  N_8
REMARK    4  A    between atoms: N_8  and  C_9
REMARK    5  A    between atoms: N_8  and  C_21
REMARK    6  A    between atoms: C_9  and  C_10
REMARK    7  A    between atoms: C_10  and  C_11
REMARK    8  A    between atoms: C_21  and  C_22
REMARK    9  A    between atoms: C_24  and  C_27
REMARK   10  A    between atoms: N_29  and  C_30
REMARK   11  A    between atoms: N_29  and  C_31
REMARK   12  A    between atoms: C_31  and  C_32
REMARK                            x       y       z     vdW  Elec       q    Type
REMARK                         _______ _______ _______ _____ _____    ______ ____
ROOT
ATOM      1  N   UNL     1      -2.410   1.560   4.208  0.00  0.00    +0.389 N 
ATOM      2  H   UNL     1      -2.746   1.892   3.316  0.00  0.00    -0.081 HD
ENDROOT
BRANCH   1   3
ATOM      3  C   UNL     1      -1.119   0.884   4.025  0.00  0.00    -0.035 C 
BRANCH   3   9
ATOM      4  C   UNL     1      -1.163  -1.842   5.439  0.00  0.00    +0.044 C 
ATOM      5  C   UNL     1      -0.516  -0.620   6.038  0.00  0.00    -0.042 A 
ATOM      6  C   UNL     1       0.100  -0.686   7.274  0.00  0.00    +0.011 A 
ATOM      7  C   UNL     1       0.672   0.432   7.785  0.00  0.00    +0.045 A 
ATOM      8  S   UNL     1       0.346   1.631   6.503  0.00  0.00    -0.103 S 
ATOM      9  C   UNL     1      -0.526   0.560   5.371  0.00  0.00    -0.024 A 
ENDBRANCH   3   9
ENDBRANCH   1   3
BRANCH   1  10
ATOM     10  C   UNL     1      -3.381   0.616   4.776  0.00  0.00    -0.073 C 
BRANCH  10  11
ATOM     11  C   UNL     1      -3.728  -0.449   3.733  0.00  0.00    +0.019 C 
BRANCH  11  12
ATOM     12  C   UNL     1      -4.773  -1.379   4.293  0.00  0.00    -0.024 A 
ATOM     13  C   UNL     1      -4.551  -2.556   4.899  0.00  0.00    +0.087 A 
ATOM     14  N   UNL     1      -5.741  -3.119   5.274  0.00  0.00    -0.360 N 
ATOM     15  H   UNL     1      -5.836  -3.970   5.729  0.00  0.00    +0.165 HD
ATOM     16  C   UNL     1      -6.783  -2.297   4.909  0.00  0.00    +0.047 A 
ATOM     17  C   UNL     1      -6.222  -1.168   4.284  0.00  0.00    +0.003 A 
ATOM     18  C   UNL     1      -7.052  -0.150   3.810  0.00  0.00    +0.010 A 
ATOM     19  C   UNL     1      -8.406  -0.254   3.959  0.00  0.00    +0.001 A 
ATOM     20  C   UNL     1      -8.964  -1.363   4.578  0.00  0.00    +0.002 A 
ATOM     21  C   UNL     1      -8.165  -2.384   5.045  0.00  0.00    +0.026 A 
ENDBRANCH  11  12
ENDBRANCH  10  11
ENDBRANCH   1  10
BRANCH   1  22
ATOM     22  C   UNL     1      -2.242   2.698   5.122  0.00  0.00    +0.019 C 
BRANCH  22  23
ATOM     23  C   UNL     1      -1.341   3.725   4.485  0.00  0.00    +0.179 A 
ATOM     24  N   UNL     1      -1.736   4.713   3.739  0.00  0.00    -0.210 NA
ATOM     25  C   UNL     1      -0.643   5.423   3.349  0.00  0.00    +0.164 A 
ATOM     26  C   UNL     1       0.445   4.816   3.897  0.00  0.00    +0.230 A 
ATOM     27  O   UNL     1      -0.007   3.767   4.603  0.00  0.00    -0.449 OA
BRANCH  25  28
ATOM     28  C   UNL     1      -0.638   6.623   2.494  0.00  0.00    +0.268 C 
ATOM     29  O   UNL     1       0.417   7.123   2.154  0.00  0.00    -0.268 OA
ATOM     30  N   UNL     1      -1.803   7.167   2.089  0.00  0.00    -0.295 N 
ATOM     31  C   UNL     1      -3.074   6.602   2.547  0.00  0.00    +0.132 C 
BRANCH  30  32
ATOM     32  C   UNL     1      -1.797   8.324   1.190  0.00  0.00    +0.142 C 
BRANCH  32  33
ATOM     33  C   UNL     1      -1.812   7.849  -0.240  0.00  0.00    -0.030 A 
ATOM     34  C   UNL     1      -0.622   7.613  -0.903  0.00  0.00    +0.005 A 
ATOM     35  C   UNL     1      -0.636   7.177  -2.215  0.00  0.00    +0.000 A 
ATOM     36  C   UNL     1      -1.840   6.976  -2.864  0.00  0.00    +0.000 A 
ATOM     37  C   UNL     1      -3.030   7.211  -2.201  0.00  0.00    +0.000 A 
ATOM     38  C   UNL     1      -3.017   7.643  -0.888  0.00  0.00    +0.005 A 
ENDBRANCH  32  33
ENDBRANCH  30  32
ENDBRANCH  25  28
ENDBRANCH  22  23
ENDBRANCH   1  22
TORSDOF 10
