REMARK  Name = ZINC04922732
REMARK  5 active torsions:
REMARK  status: ('A' for Active; 'I' for Inactive)
REMARK    1  A    between atoms: C_1  and  C_2
REMARK    2  A    between atoms: C_2  and  C_3
REMARK    3  A    between atoms: C_8  and  N_9
REMARK    4  A    between atoms: C_15  and  C_23
REMARK    5  A    between atoms: C_17  and  C_21
REMARK                            x       y       z     vdW  Elec       q    Type
REMARK                         _______ _______ _______ _____ _____    ______ ____
ROOT
ATOM      1  N   UNL     1      -1.307  -0.339   2.506  0.00  0.00    -0.304 N 
ATOM      2  C   UNL     1      -2.287  -1.373   2.240  0.00  0.00    +0.222 C 
ATOM      3  N   UNL     1      -3.379  -0.995   1.357  0.00  0.00    -0.248 N 
ATOM      4  C   UNL     1      -3.986  -1.983   0.651  0.00  0.00    +0.222 C 
ATOM      5  O   UNL     1      -3.552  -3.114   0.709  0.00  0.00    -0.275 OA
ATOM      6  C   UNL     1      -5.191  -1.692  -0.201  0.00  0.00    +0.110 C 
ATOM      7  C   UNL     1      -6.024  -0.590   0.462  0.00  0.00    +0.073 C 
ATOM      8  C   UNL     1      -5.104   0.558   0.800  0.00  0.00    +0.065 C 
ATOM      9  C   UNL     1      -3.831   0.300   1.203  0.00  0.00    +0.087 C 
ATOM     10  S   UNL     1      -2.717   1.649   1.471  0.00  0.00    -0.090 S 
ATOM     11  C   UNL     1      -1.708   1.029   2.863  0.00  0.00    +0.182 C 
ENDROOT
BRANCH   7  12
ATOM     12  C   UNL     1      -6.660  -1.121   1.721  0.00  0.00    -0.004 A 
ATOM     13  C   UNL     1      -5.867  -1.593   2.750  0.00  0.00    +0.007 A 
ATOM     14  C   UNL     1      -6.450  -2.079   3.905  0.00  0.00    +0.000 A 
ATOM     15  C   UNL     1      -7.827  -2.095   4.032  0.00  0.00    +0.003 A 
ATOM     16  C   UNL     1      -8.621  -1.623   3.005  0.00  0.00    +0.038 A 
ATOM     17  C   UNL     1      -8.038  -1.131   1.850  0.00  0.00    +0.127 A 
ATOM     18  F   UNL     1      -8.814  -0.665   0.847  0.00  0.00    -0.205 F 
ENDBRANCH   7  12
BRANCH   1  24
ATOM     19  C   UNL     1       0.731  -0.503   1.223  0.00  0.00    -0.027 A 
ATOM     20  C   UNL     1       2.076  -0.808   1.149  0.00  0.00    +0.005 A 
ATOM     21  C   UNL     1       2.745  -1.267   2.268  0.00  0.00    +0.000 A 
ATOM     22  C   UNL     1       2.071  -1.421   3.466  0.00  0.00    +0.002 A 
ATOM     23  C   UNL     1       0.727  -1.118   3.547  0.00  0.00    +0.023 A 
ATOM     24  C   UNL     1       0.052  -0.652   2.425  0.00  0.00    +0.035 A 
BRANCH  19  26
ATOM     25  C   UNL     1      -0.019   1.526   0.010  0.00  0.00    +0.009 C 
ATOM     26  C   UNL     1       0.002  -0.004   0.002  0.00  0.00    +0.033 C 
ENDBRANCH  19  26
ENDBRANCH   1  24
BRANCH   8  27
ATOM     27  C   UNL     1      -5.568   1.909   0.698  0.00  0.00    +0.098 C 
ATOM     28  N   UNL     1      -5.936   2.981   0.618  0.00  0.00    -0.191 NA
ENDBRANCH   8  27
TORSDOF 4
