REMARK  Name = ZINC01841584
REMARK  10 active torsions:
REMARK  status: ('A' for Active; 'I' for Inactive)
REMARK    1  A    between atoms: C_2  and  C_3
REMARK    2  A    between atoms: C_2  and  N_11
REMARK    3  A    between atoms: C_4  and  C_5
REMARK    4  A    between atoms: N_11  and  N_12
REMARK    5  A    between atoms: C_13  and  C_15
REMARK    6  A    between atoms: C_15  and  S_16
REMARK    7  A    between atoms: S_16  and  C_17
REMARK    8  A    between atoms: C_20  and  C_28
REMARK    9  A    between atoms: N_21  and  C_22
REMARK   10  A    between atoms: C_32  and  N_34
REMARK                            x       y       z     vdW  Elec       q    Type
REMARK                         _______ _______ _______ _____ _____    ______ ____
ROOT
ATOM      1  C   UNL     1      -0.732   7.402   0.007  0.00  0.00    +0.197 A 
ATOM      2  N   UNL     1       0.568   7.339  -0.172  0.00  0.00    -0.122 NA
ATOM      3  N   UNL     1       0.971   6.123  -0.068  0.00  0.00    -0.128 NA
ATOM      4  C   UNL     1      -0.046   5.332   0.183  0.00  0.00    +0.169 A 
ATOM      5  N   UNL     1      -1.171   6.126   0.234  0.00  0.00    -0.270 N 
ENDROOT
BRANCH   5   6
ATOM      6  C   UNL     1      -2.490   5.713   0.471  0.00  0.00    +0.051 A 
ATOM      7  C   UNL     1      -3.157   4.942  -0.471  0.00  0.00    +0.026 A 
ATOM      8  C   UNL     1      -4.454   4.532  -0.233  0.00  0.00    +0.002 A 
ATOM      9  C   UNL     1      -5.092   4.898   0.938  0.00  0.00    +0.000 A 
ATOM     10  C   UNL     1      -4.432   5.670   1.876  0.00  0.00    +0.002 A 
ATOM     11  C   UNL     1      -3.133   6.079   1.646  0.00  0.00    +0.026 A 
ENDBRANCH   5   6
BRANCH   4  12
ATOM     12  C   UNL     1       0.005   3.867   0.369  0.00  0.00    +0.022 A 
ATOM     13  C   UNL     1      -1.056   3.201   0.985  0.00  0.00    +0.012 A 
ATOM     14  C   UNL     1      -1.004   1.833   1.151  0.00  0.00    +0.003 A 
ATOM     15  C   UNL     1       0.101   1.122   0.719  0.00  0.00    +0.033 A 
ATOM     16  C   UNL     1       1.157   1.775   0.108  0.00  0.00    +0.127 A 
ATOM     17  C   UNL     1       1.115   3.143  -0.070  0.00  0.00    +0.044 A 
BRANCH  16  18
ATOM     18  N   UNL     1       2.333   1.006  -0.356  0.00  0.00    +0.056 N 
ATOM     19  O   UNL     1       2.371  -0.201  -0.200  0.00  0.00    -0.126 OA
ATOM     20  O   UNL     1       3.263   1.580  -0.894  0.00  0.00    -0.126 OA
ENDBRANCH  16  18
ENDBRANCH   4  12
BRANCH   1  21
ATOM     21  S   UNL     1      -1.726   8.856  -0.044  0.00  0.00    -0.076 S 
BRANCH  21  22
ATOM     22  C   UNL     1      -0.453  10.094  -0.392  0.00  0.00    +0.174 C 
BRANCH  22  24
ATOM     23  N   UNL     1      -0.329  12.541  -0.735  0.00  0.00    -0.236 N 
ATOM     24  C   UNL     1      -1.089  11.457  -0.481  0.00  0.00    +0.239 C 
ATOM     25  O   UNL     1      -2.286  11.579  -0.325  0.00  0.00    -0.273 OA
ATOM     26  H   UNL     1       0.628  12.443  -0.859  0.00  0.00    +0.173 HD
BRANCH  23  27
ATOM     27  N   UNL     1      -0.921  13.808  -0.818  0.00  0.00    -0.265 N 
ATOM     28  H   UNL     1      -1.878  13.906  -0.693  0.00  0.00    +0.170 HD
BRANCH  27  30
ATOM     29  C   UNL     1       1.189  14.796  -1.253  0.00  0.00    +0.034 C 
ATOM     30  C   UNL     1      -0.132  14.931  -1.081  0.00  0.00    +0.037 C 
BRANCH  30  31
ATOM     31  C   UNL     1      -0.753  16.261  -1.168  0.00  0.00    +0.024 C 
ATOM     32  C   UNL     1      -2.079  16.396  -0.995  0.00  0.00    +0.010 C 
BRANCH  32  33
ATOM     33  C   UNL     1      -2.702  17.729  -1.083  0.00  0.00    -0.025 A 
ATOM     34  C   UNL     1      -1.915  18.855  -1.339  0.00  0.00    +0.008 A 
ATOM     35  C   UNL     1      -2.506  20.099  -1.425  0.00  0.00    +0.001 A 
ATOM     36  C   UNL     1      -3.871  20.234  -1.246  0.00  0.00    +0.000 A 
ATOM     37  C   UNL     1      -4.655  19.124  -0.986  0.00  0.00    +0.001 A 
ATOM     38  C   UNL     1      -4.080  17.873  -0.903  0.00  0.00    +0.008 A 
ENDBRANCH  32  33
ENDBRANCH  30  31
ENDBRANCH  27  30
ENDBRANCH  23  27
ENDBRANCH  22  24
ENDBRANCH  21  22
ENDBRANCH   1  21
TORSDOF 10
