REMARK  Name = ZINC63521119
REMARK  7 active torsions:
REMARK  status: ('A' for Active; 'I' for Inactive)
REMARK    1  A    between atoms: C_1  and  C_2
REMARK    2  A    between atoms: C_6  and  C_25
REMARK    3  A    between atoms: N_8  and  C_10
REMARK    4  A    between atoms: C_10  and  C_11
REMARK    5  A    between atoms: N_13  and  C_14
REMARK    6  A    between atoms: C_14  and  C_15
REMARK    7  A    between atoms: C_15  and  C_16
REMARK                            x       y       z     vdW  Elec       q    Type
REMARK                         _______ _______ _______ _____ _____    ______ ____
ROOT
ATOM      1  C   UNL     1       1.916  -2.572   2.939  0.00  0.00    +0.229 C 
ATOM      2  O   UNL     1       0.767  -2.360   3.267  0.00  0.00    -0.274 OA
ATOM      3  N   UNL     1       2.806  -3.012   3.850  0.00  0.00    -0.314 N 
ATOM      4  H   UNL     1       3.724  -3.182   3.588  0.00  0.00    +0.149 HD
ENDROOT
BRANCH   1   5
ATOM      5  C   UNL     1       2.347  -2.345   1.513  0.00  0.00    +0.198 C 
BRANCH   5  10
ATOM      6  C   UNL     1      -0.019   1.526   0.010  0.00  0.00    +0.026 C 
ATOM      7  C   UNL     1       0.002  -0.004   0.002  0.00  0.00    +0.082 C 
ATOM      8  C   UNL     1       0.768  -0.531  -1.233  0.00  0.00    +0.093 C 
ATOM      9  C   UNL     1       1.556  -1.748  -0.707  0.00  0.00    +0.085 C 
ATOM     10  N   UNL     1       1.201  -1.869   0.725  0.00  0.00    -0.230 NA
ATOM     11  N   UNL     1       0.790  -0.523   1.151  0.00  0.00    -0.249 NA
ATOM     12  C   UNL     1       1.143  -3.012  -1.464  0.00  0.00    +0.027 C 
ATOM     13 BR   UNL     1       1.997   0.843  -1.916  0.00  0.00    -0.085 Br
ATOM     14  H   UNL     1       0.227  -0.562   1.987  0.00  0.00    +0.141 HD
ENDBRANCH   5  10
ENDBRANCH   1   5
BRANCH   3  15
ATOM     15  C   UNL     1       2.387  -3.233   5.236  0.00  0.00    +0.108 C 
BRANCH  15  16
ATOM     16  C   UNL     1       3.580  -3.728   6.057  0.00  0.00    +0.065 C 
BRANCH  16  17
ATOM     17  C   UNL     1       3.142  -3.959   7.505  0.00  0.00    +0.175 C 
ATOM     18  N   UNL     1       2.215  -5.095   7.575  0.00  0.00    -0.363 N 
ATOM     19  C   UNL     1       2.759  -5.997   8.339  0.00  0.00    +0.060 A 
ATOM     20  C   UNL     1       2.321  -7.329   8.781  0.00  0.00    +0.027 A 
ATOM     21  C   UNL     1       3.116  -8.055   9.593  0.00  0.00    +0.002 A 
ATOM     22  C   UNL     1       4.364  -7.591  10.045  0.00  0.00    +0.002 A 
ATOM     23  C   UNL     1       4.860  -6.386   9.699  0.00  0.00    +0.027 A 
ATOM     24  C   UNL     1       4.081  -5.507   8.817  0.00  0.00    +0.060 A 
ATOM     25  N   UNL     1       4.302  -4.320   8.330  0.00  0.00    -0.363 N 
ATOM     26  H   UNL     1       1.353  -5.161   7.134  0.00  0.00    +0.162 HD
ATOM     27  H   UNL     1       5.089  -3.774   8.484  0.00  0.00    +0.162 HD
ENDBRANCH  16  17
ENDBRANCH  15  16
ENDBRANCH   3  15
TORSDOF 5
