REMARK  Name = ZINC06280156
REMARK  7 active torsions:
REMARK  status: ('A' for Active; 'I' for Inactive)
REMARK    1  A    between atoms: C_1  and  C_2
REMARK    2  A    between atoms: C_3  and  C_25
REMARK    3  A    between atoms: N_7  and  N_8
REMARK    4  A    between atoms: C_9  and  C_10
REMARK    5  A    between atoms: C_15  and  O_16
REMARK    6  A    between atoms: O_16  and  C_17
REMARK    7  A    between atoms: C_17  and  C_18
REMARK                            x       y       z     vdW  Elec       q    Type
REMARK                         _______ _______ _______ _____ _____    ______ ____
ROOT
ATOM      1  C   UNL     1       3.723   1.807  -0.215  0.00  0.00    +0.036 A 
ATOM      2  C   UNL     1       4.926   1.097  -0.220  0.00  0.00    +0.013 A 
ATOM      3  C   UNL     1       6.112   1.755  -0.467  0.00  0.00    +0.001 A 
ATOM      4  C   UNL     1       6.116   3.118  -0.710  0.00  0.00    +0.004 A 
ATOM      5  C   UNL     1       4.932   3.832  -0.708  0.00  0.00    +0.046 A 
ATOM      6  C   UNL     1       3.732   3.185  -0.467  0.00  0.00    +0.130 A 
ENDROOT
BRANCH   1   8
ATOM      7  N   UNL     1       2.433  -0.184   0.166  0.00  0.00    -0.188 NA
ATOM      8  C   UNL     1       2.452   1.109   0.048  0.00  0.00    +0.142 C 
BRANCH   7  15
ATOM      9  C   UNL     1       3.146  -5.358   0.340  0.00  0.00    +0.066 C 
ATOM     10  C   UNL     1       1.987  -4.394   0.352  0.00  0.00    +0.050 A 
ATOM     11  C   UNL     1       0.710  -4.847   0.391  0.00  0.00    +0.011 A 
ATOM     12  S   UNL     1      -0.190  -3.303   0.387  0.00  0.00    -0.056 S 
ATOM     13  C   UNL     1       1.183  -2.241   0.335  0.00  0.00    +0.178 A 
ATOM     14  N   UNL     1       2.192  -3.092   0.320  0.00  0.00    -0.229 NA
ATOM     15  N   UNL     1       1.212  -0.857   0.309  0.00  0.00    -0.215 N 
ATOM     16  C   UNL     1       0.192  -6.261   0.428  0.00  0.00    +0.053 C 
ATOM     17  H   UNL     1       0.388  -0.352   0.395  0.00  0.00    +0.176 HD
ENDBRANCH   7  15
ENDBRANCH   1   8
BRANCH   6  18
ATOM     18  O   UNL     1       2.567   3.885  -0.470  0.00  0.00    -0.487 OA
BRANCH  18  19
ATOM     19  C   UNL     1       2.647   5.276  -0.788  0.00  0.00    +0.264 C 
BRANCH  19  20
ATOM     20  C   UNL     1       1.268   5.882  -0.740  0.00  0.00    -0.010 A 
ATOM     21  C   UNL     1       0.448   5.822  -1.851  0.00  0.00    +0.008 A 
ATOM     22  C   UNL     1      -0.819   6.373  -1.806  0.00  0.00    +0.020 A 
ATOM     23  C   UNL     1      -1.262   6.995  -0.652  0.00  0.00    +0.041 A 
ATOM     24  C   UNL     1      -0.438   7.060   0.458  0.00  0.00    +0.020 A 
ATOM     25  C   UNL     1       0.827   6.503   0.413  0.00  0.00    +0.008 A 
ATOM     26 CL   UNL     1      -2.850   7.693  -0.597  0.00  0.00    -0.084 Cl
ENDBRANCH  19  20
ENDBRANCH  18  19
ENDBRANCH   6  18
TORSDOF 5
