REMARK  Name = ZINC01373674
REMARK  12 active torsions:
REMARK  status: ('A' for Active; 'I' for Inactive)
REMARK    1  A    between atoms: C_1  and  C_2
REMARK    2  A    between atoms: C_5  and  C_8
REMARK    3  A    between atoms: C_8  and  N_9
REMARK    4  A    between atoms: N_9  and  C_10
REMARK    5  A    between atoms: N_9  and  C_27
REMARK    6  A    between atoms: C_10  and  C_11
REMARK    7  A    between atoms: C_15  and  O_25
REMARK    8  A    between atoms: C_16  and  O_23
REMARK    9  A    between atoms: O_23  and  C_24
REMARK   10  A    between atoms: O_25  and  C_26
REMARK   11  A    between atoms: C_27  and  C_28
REMARK   12  A    between atoms: N_32  and  C_33
REMARK                            x       y       z     vdW  Elec       q    Type
REMARK                         _______ _______ _______ _____ _____    ______ ____
ROOT
ATOM      1  N   UNL     1       1.434  -4.734  -0.101  0.00  0.00    -0.287 NA
ENDROOT
BRANCH   1   2
ATOM      2  C   UNL     1       0.045  -4.284   0.060  0.00  0.00    +0.120 C 
BRANCH   2   7
ATOM      3  C   UNL     1      -0.032   1.398   1.112  0.00  0.00    +0.044 C 
ATOM      4  C   UNL     1      -0.012  -0.084   0.838  0.00  0.00    -0.050 A 
ATOM      5  C   UNL     1       0.055  -0.545  -0.464  0.00  0.00    +0.003 A 
ATOM      6  C   UNL     1       0.073  -1.904  -0.715  0.00  0.00    +0.005 A 
ATOM      7  C   UNL     1       0.026  -2.802   0.335  0.00  0.00    -0.033 A 
ATOM      8  C   UNL     1      -0.040  -2.341   1.636  0.00  0.00    +0.005 A 
ATOM      9  C   UNL     1      -0.054  -0.982   1.888  0.00  0.00    +0.003 A 
ENDBRANCH   2   7
ENDBRANCH   1   2
BRANCH   1  10
ATOM     10  C   UNL     1       1.487  -6.152  -0.481  0.00  0.00    +0.125 C 
BRANCH  10  11
ATOM     11  C   UNL     1       0.891  -6.327  -1.854  0.00  0.00    +0.031 A 
ATOM     12  C   UNL     1       1.700  -6.344  -2.944  0.00  0.00    +0.020 A 
ATOM     13  C   UNL     1       1.091  -6.516  -4.263  0.00  0.00    +0.003 A 
ATOM     14  C   UNL     1       1.877  -6.542  -5.423  0.00  0.00    +0.059 A 
ATOM     15  C   UNL     1       1.275  -6.706  -6.650  0.00  0.00    +0.162 A 
ATOM     16  C   UNL     1      -0.114  -6.846  -6.741  0.00  0.00    +0.163 A 
ATOM     17  C   UNL     1      -0.898  -6.822  -5.603  0.00  0.00    +0.075 A 
ATOM     18  C   UNL     1      -0.307  -6.657  -4.357  0.00  0.00    +0.053 A 
ATOM     19  N   UNL     1      -1.072  -6.631  -3.209  0.00  0.00    -0.322 N 
ATOM     20  H   UNL     1      -2.035  -6.729  -3.274  0.00  0.00    +0.169 HD
ATOM     21  C   UNL     1      -0.502  -6.478  -2.001  0.00  0.00    +0.254 A 
ATOM     22  O   UNL     1      -1.209  -6.465  -1.008  0.00  0.00    -0.268 OA
BRANCH  16  23
ATOM     23  O   UNL     1      -0.697  -7.006  -7.957  0.00  0.00    -0.491 OA
ATOM     24  C   UNL     1      -2.119  -7.144  -7.983  0.00  0.00    +0.277 C 
ENDBRANCH  16  23
BRANCH  15  25
ATOM     25  O   UNL     1       2.033  -6.731  -7.779  0.00  0.00    -0.491 OA
ATOM     26  C   UNL     1       3.445  -6.581  -7.615  0.00  0.00    +0.277 C 
ENDBRANCH  15  25
ENDBRANCH  10  11
ENDBRANCH   1  10
BRANCH   1  27
ATOM     27  C   UNL     1       2.213  -4.487   1.120  0.00  0.00    +0.163 C 
BRANCH  27  28
ATOM     28  C   UNL     1       3.681  -4.639   0.818  0.00  0.00    +0.166 A 
ATOM     29  N   UNL     1       4.407  -5.718   0.987  0.00  0.00    -0.112 NA
ATOM     30  N   UNL     1       5.611  -5.450   0.614  0.00  0.00    -0.023 NA
ATOM     31  N   UNL     1       5.672  -4.228   0.212  0.00  0.00    -0.044 NA
ATOM     32  N   UNL     1       4.501  -3.696   0.317  0.00  0.00    -0.225 N 
BRANCH  32  33
ATOM     33  C   UNL     1       4.134  -2.324  -0.038  0.00  0.00    +0.111 C 
ATOM     34  C   UNL     1       4.313  -2.121  -1.544  0.00  0.00    +0.027 C 
ATOM     35  C   UNL     1       3.929  -0.687  -1.915  0.00  0.00    +0.002 C 
ATOM     36  C   UNL     1       4.828   0.293  -1.159  0.00  0.00    +0.000 C 
ATOM     37  C   UNL     1       4.649   0.091   0.347  0.00  0.00    +0.002 C 
ATOM     38  C   UNL     1       5.032  -1.343   0.718  0.00  0.00    +0.027 C 
ENDBRANCH  32  33
ENDBRANCH  27  28
ENDBRANCH   1  27
TORSDOF 9
