REMARK  Name = ZINC39015719
REMARK  12 active torsions:
REMARK  status: ('A' for Active; 'I' for Inactive)
REMARK    1  A    between atoms: C_1  and  C_2
REMARK    2  A    between atoms: C_2  and  O_3
REMARK    3  A    between atoms: O_3  and  C_4
REMARK    4  A    between atoms: C_9  and  C_28
REMARK    5  A    between atoms: C_11  and  N_14
REMARK    6  A    between atoms: C_15  and  C_17
REMARK    7  A    between atoms: C_17  and  N_18
REMARK    8  A    between atoms: C_20  and  C_27
REMARK    9  A    between atoms: C_23  and  C_26
REMARK   10  A    between atoms: C_28  and  O_30
REMARK   11  A    between atoms: O_30  and  C_31
REMARK   12  A    between atoms: C_31  and  C_32
REMARK                            x       y       z     vdW  Elec       q    Type
REMARK                         _______ _______ _______ _____ _____    ______ ____
ROOT
ATOM      1  C   UNL     1      -0.205  -3.120   0.133  0.00  0.00    +0.121 A 
ATOM      2  C   UNL     1      -0.696  -4.374  -0.256  0.00  0.00    +0.047 A 
ATOM      3  C   UNL     1      -0.281  -5.519   0.336  0.00  0.00    +0.029 A 
ATOM      4  C   UNL     1       0.677  -5.469   1.381  0.00  0.00    +0.045 A 
ATOM      5  N   UNL     1       1.231  -6.423   2.103  0.00  0.00    -0.367 N 
ATOM      6  C   UNL     1       2.167  -5.819   3.057  0.00  0.00    +0.234 C 
ATOM      7  C   UNL     1       2.107  -4.328   2.813  0.00  0.00    +0.053 C 
ATOM      8  C   UNL     1       1.193  -4.151   1.789  0.00  0.00    +0.021 A 
ATOM      9  C   UNL     1       0.718  -2.994   1.123  0.00  0.00    +0.057 A 
ATOM     10  H   UNL     1       1.049  -7.371   2.017  0.00  0.00    +0.161 HD
ENDROOT
BRANCH   7  11
ATOM     11  N   UNL     1       2.809  -3.358   3.466  0.00  0.00    -0.288 N 
ATOM     12  C   UNL     1       3.567  -3.678   4.534  0.00  0.00    +0.200 C 
ATOM     13  O   UNL     1       3.694  -4.839   4.861  0.00  0.00    -0.278 OA
ATOM     14  H   UNL     1       2.762  -2.438   3.163  0.00  0.00    +0.155 HD
BRANCH  12  15
ATOM     15  C   UNL     1       4.257  -2.594   5.320  0.00  0.00    +0.019 C 
BRANCH  15  16
ATOM     16  N   UNL     1       5.015  -3.197   6.425  0.00  0.00    +0.386 N 
ATOM     17  C   UNL     1       4.085  -3.837   7.363  0.00  0.00    -0.075 C 
ATOM     18  C   UNL     1       4.873  -4.536   8.472  0.00  0.00    -0.031 C 
ATOM     19  C   UNL     1       5.721  -3.501   9.218  0.00  0.00    +0.003 C 
ATOM     20  C   UNL     1       6.635  -2.788   8.217  0.00  0.00    -0.031 C 
ATOM     21  C   UNL     1       5.781  -2.154   7.117  0.00  0.00    -0.075 C 
ATOM     22  C   UNL     1       7.432  -1.699   8.939  0.00  0.00    +0.005 C 
ATOM     23  C   UNL     1       5.786  -5.599   7.858  0.00  0.00    +0.005 C 
ATOM     24  H   UNL     1       5.649  -3.890   6.057  0.00  0.00    -0.081 HD
ENDBRANCH  15  16
ENDBRANCH  12  15
ENDBRANCH   7  11
BRANCH   6  25
ATOM     25  C   UNL     1       3.563  -6.331   2.810  0.00  0.00    +0.336 C 
ATOM     26  O   UNL     1       3.994  -6.389   1.683  0.00  0.00    -0.248 OA
BRANCH  25  27
ATOM     27  O   UNL     1       4.326  -6.723   3.842  0.00  0.00    -0.463 OA
BRANCH  27  28
ATOM     28  C   UNL     1       5.639  -7.198   3.534  0.00  0.00    +0.229 C 
ATOM     29  C   UNL     1       6.353  -7.596   4.827  0.00  0.00    +0.048 C 
ENDBRANCH  27  28
ENDBRANCH  25  27
ENDBRANCH   6  25
BRANCH   1  30
ATOM     30  O   UNL     1      -0.659  -2.004  -0.497  0.00  0.00    -0.492 OA
BRANCH  30  32
ATOM     31  C   UNL     1      -2.017  -0.833  -2.118  0.00  0.00    +0.048 C 
ATOM     32  C   UNL     1      -1.629  -2.191  -1.530  0.00  0.00    +0.225 C 
ENDBRANCH  30  32
ENDBRANCH   1  30
TORSDOF 8
