REMARK  Name = ZINC35664577
REMARK  17 active torsions:
REMARK  status: ('A' for Active; 'I' for Inactive)
REMARK    1  A    between atoms: C_1  and  C_2
REMARK    2  A    between atoms: C_2  and  C_3
REMARK    3  A    between atoms: C_3  and  N_4
REMARK    4  A    between atoms: N_10  and  C_15
REMARK    5  A    between atoms: C_12  and  C_14
REMARK    6  A    between atoms: C_15  and  C_16
REMARK    7  A    between atoms: C_17  and  C_36
REMARK    8  A    between atoms: C_18  and  C_26
REMARK    9  A    between atoms: N_23  and  C_24
REMARK   10  A    between atoms: C_24  and  C_25
REMARK   11  A    between atoms: C_30  and  O_34
REMARK   12  A    between atoms: C_31  and  O_32
REMARK   13  A    between atoms: O_32  and  C_33
REMARK   14  A    between atoms: O_34  and  C_35
REMARK   15  A    between atoms: C_36  and  O_38
REMARK   16  A    between atoms: O_38  and  C_39
REMARK   17  A    between atoms: C_39  and  C_40
REMARK                            x       y       z     vdW  Elec       q    Type
REMARK                         _______ _______ _______ _____ _____    ______ ____
ROOT
ATOM      1  C   UNL     1      -1.301  -8.957  -1.659  0.00  0.00    +0.041 C 
ATOM      2  C   UNL     1      -1.270 -10.303  -1.557  0.00  0.00    +0.080 C 
ATOM      3  C   UNL     1       0.043 -10.951  -1.168  0.00  0.00    +0.147 C 
ATOM      4  N   UNL     1       1.186 -10.053  -0.931  0.00  0.00    -0.288 N 
ATOM      5  C   UNL     1       0.999  -8.726  -1.072  0.00  0.00    +0.307 C 
ATOM      6  O   UNL     1       1.936  -7.976  -0.878  0.00  0.00    -0.252 OA
ATOM      7  N   UNL     1      -0.184  -8.206  -1.424  0.00  0.00    -0.258 N 
ATOM      8  H   UNL     1       2.052 -10.408  -0.678  0.00  0.00    +0.151 HD
ENDROOT
BRANCH   3   9
ATOM      9  C   UNL     1      -0.188 -11.750   0.089  0.00  0.00    +0.023 A 
ATOM     10  C   UNL     1      -0.277 -11.107   1.310  0.00  0.00    +0.009 A 
ATOM     11  C   UNL     1      -0.489 -11.836   2.465  0.00  0.00    +0.004 A 
ATOM     12  C   UNL     1      -0.612 -13.213   2.404  0.00  0.00    +0.049 A 
ATOM     13  C   UNL     1      -0.523 -13.863   1.184  0.00  0.00    +0.162 A 
ATOM     14  C   UNL     1      -0.316 -13.127   0.021  0.00  0.00    +0.167 A 
BRANCH  14  15
ATOM     15  O   UNL     1      -0.234 -13.760  -1.180  0.00  0.00    -0.491 OA
ATOM     16  C   UNL     1       1.063 -14.187  -1.601  0.00  0.00    +0.277 C 
ENDBRANCH  14  15
BRANCH  13  17
ATOM     17  O   UNL     1      -0.643 -15.216   1.123  0.00  0.00    -0.491 OA
ATOM     18  C   UNL     1      -0.860 -15.905   2.356  0.00  0.00    +0.277 C 
ENDBRANCH  13  17
ENDBRANCH   3   9
BRANCH   7  19
ATOM     19  C   UNL     1      -0.288  -6.751  -1.558  0.00  0.00    +0.111 C 
ATOM     20  C   UNL     1      -0.622  -6.136  -0.198  0.00  0.00    +0.025 C 
ENDBRANCH   7  19
BRANCH   2  21
ATOM     21  C   UNL     1      -2.425 -11.082  -1.805  0.00  0.00    +0.339 C 
ATOM     22  O   UNL     1      -3.433 -10.554  -2.236  0.00  0.00    -0.245 OA
BRANCH  21  23
ATOM     23  O   UNL     1      -2.408 -12.409  -1.564  0.00  0.00    -0.462 OA
BRANCH  23  24
ATOM     24  C   UNL     1      -3.609 -13.134  -1.838  0.00  0.00    +0.229 C 
ATOM     25  C   UNL     1      -3.399 -14.612  -1.506  0.00  0.00    +0.048 C 
ENDBRANCH  23  24
ENDBRANCH  21  23
ENDBRANCH   2  21
BRANCH   1  26
ATOM     26  C   UNL     1      -2.587  -8.271  -2.044  0.00  0.00    +0.136 C 
BRANCH  26  33
ATOM     27  N   UNL     1      -4.359  -9.153  -7.837  0.00  0.00    -0.299 N 
ATOM     28  C   UNL     1      -4.272  -7.973  -7.193  0.00  0.00    +0.303 C 
ATOM     29  O   UNL     1      -4.929  -7.023  -7.573  0.00  0.00    -0.253 OA
ATOM     30  N   UNL     1      -3.457  -7.845  -6.127  0.00  0.00    -0.280 N 
ATOM     31  C   UNL     1      -2.531  -8.924  -5.751  0.00  0.00    +0.125 C 
ATOM     32  C   UNL     1      -2.724  -9.232  -4.262  0.00  0.00    +0.104 C 
ATOM     33  N   UNL     1      -2.581  -7.993  -3.486  0.00  0.00    -0.294 NA
ATOM     34  C   UNL     1      -3.623  -7.021  -3.839  0.00  0.00    +0.107 C 
ATOM     35  C   UNL     1      -3.464  -6.619  -5.314  0.00  0.00    +0.088 C 
ATOM     36  C   UNL     1      -4.635  -5.729  -5.736  0.00  0.00    +0.029 C 
ATOM     37  H   UNL     1      -3.779  -9.888  -7.583  0.00  0.00    +0.150 HD
BRANCH  27  38
ATOM     38  C   UNL     1      -5.330  -9.327  -8.919  0.00  0.00    +0.105 C 
BRANCH  38  40
ATOM     39  C   UNL     1      -6.239 -10.930 -10.607  0.00  0.00    +0.005 C 
ATOM     40  C   UNL     1      -5.224 -10.748  -9.476  0.00  0.00    +0.015 C 
ENDBRANCH  38  40
ENDBRANCH  27  38
ENDBRANCH  26  33
ENDBRANCH   1  26
TORSDOF 11
