REMARK  Name = ZINC09666523
REMARK  6 active torsions:
REMARK  status: ('A' for Active; 'I' for Inactive)
REMARK    1  A    between atoms: C_1  and  C_2
REMARK    2  A    between atoms: C_9  and  N_13
REMARK    3  A    between atoms: C_10  and  C_11
REMARK    4  A    between atoms: C_14  and  C_16
REMARK    5  A    between atoms: C_16  and  N_54
REMARK    6  A    between atoms: N_19  and  C_22
REMARK                            x       y       z     vdW  Elec       q    Type
REMARK                         _______ _______ _______ _____ _____    ______ ____
ROOT
ATOM      1  N   UNL     1       1.446   3.473   0.007  0.00  0.00    -0.281 N 
ATOM      2  C   UNL     1       2.712   3.933  -0.003  0.00  0.00    +0.201 C 
ATOM      3  O   UNL     1       3.641   3.152  -0.016  0.00  0.00    -0.278 OA
ATOM      4  H   UNL     1       0.703   4.098   0.017  0.00  0.00    +0.155 HD
ENDROOT
BRANCH   1  12
ATOM      5  C   UNL     1       0.500  -4.293  -0.119  0.00  0.00    +0.008 C 
ATOM      6  C   UNL     1       0.290  -2.802  -0.394  0.00  0.00    -0.009 C 
ATOM      7  C   UNL     1      -0.872  -2.282   0.457  0.00  0.00    +0.008 C 
ATOM      8  C   UNL     1      -1.252  -0.869   0.011  0.00  0.00    +0.037 C 
ATOM      9  C   UNL     1       0.002  -0.004   0.002  0.00  0.00    -0.018 A 
ATOM     10  C   UNL     1       1.233  -0.563  -0.013  0.00  0.00    -0.004 A 
ATOM     11  S   UNL     1       2.352   0.809  -0.016  0.00  0.00    -0.077 S 
ATOM     12  C   UNL     1       1.203   2.107   0.002  0.00  0.00    +0.090 A 
ATOM     13  C   UNL     1      -0.018   1.448   0.010  0.00  0.00    +0.084 A 
ATOM     14  C   UNL     1       1.561  -2.023  -0.025  0.00  0.00    +0.046 C 
BRANCH  13  15
ATOM     15  C   UNL     1      -1.252   2.174   0.020  0.00  0.00    +0.102 C 
ATOM     16  N   UNL     1      -2.232   2.749   0.028  0.00  0.00    -0.191 NA
ENDBRANCH  13  15
ENDBRANCH   1  12
BRANCH   2  17
ATOM     17  C   UNL     1       2.976   5.417   0.002  0.00  0.00    +0.019 C 
BRANCH  17  23
ATOM     18  C   UNL     1       5.047   5.190   1.237  0.00  0.00    -0.059 C 
ATOM     19  C   UNL     1       6.563   5.385   1.152  0.00  0.00    +0.086 C 
ATOM     20  N   UNL     1       6.859   6.805   0.918  0.00  0.00    -0.333 N 
ATOM     21  C   UNL     1       6.237   7.271  -0.329  0.00  0.00    +0.086 C 
ATOM     22  C   UNL     1       4.722   7.077  -0.244  0.00  0.00    -0.059 C 
ATOM     23  N   UNL     1       4.437   5.642  -0.031  0.00  0.00    +0.387 N 
ATOM     24  H   UNL     1       4.840   5.103  -0.806  0.00  0.00    -0.081 HD
BRANCH  20  25
ATOM     25  C   UNL     1       8.237   7.033   0.906  0.00  0.00    +0.031 A 
ATOM     26  C   UNL     1       8.835   7.626  -0.199  0.00  0.00    +0.023 A 
ATOM     27  C   UNL     1      10.197   7.856  -0.206  0.00  0.00    +0.003 A 
ATOM     28  C   UNL     1      10.967   7.486   0.881  0.00  0.00    +0.020 A 
ATOM     29  C   UNL     1      10.377   6.890   1.982  0.00  0.00    +0.043 A 
ATOM     30  C   UNL     1       9.013   6.663   1.997  0.00  0.00    +0.043 A 
ATOM     31 CL   UNL     1      11.348   6.428   3.344  0.00  0.00    -0.083 Cl
ENDBRANCH  20  25
ENDBRANCH  17  23
ENDBRANCH   2  17
TORSDOF 5
