REMARK  Name = ZINC66748403
REMARK  15 active torsions:
REMARK  status: ('A' for Active; 'I' for Inactive)
REMARK    1  A    between atoms: C_1  and  C_2
REMARK    2  A    between atoms: C_2  and  C_4
REMARK    3  A    between atoms: C_2  and  N_15
REMARK    4  A    between atoms: C_8  and  S_10
REMARK    5  A    between atoms: S_10  and  N_13
REMARK    6  A    between atoms: N_13  and  C_14
REMARK    7  A    between atoms: C_16  and  C_18
REMARK    8  A    between atoms: C_18  and  C_19
REMARK    9  A    between atoms: C_18  and  C_20
REMARK   10  A    between atoms: C_18  and  N_21
REMARK   11  A    between atoms: C_22  and  O_24
REMARK   12  A    between atoms: O_24  and  C_25
REMARK   13  A    between atoms: C_25  and  C_26
REMARK   14  A    between atoms: C_25  and  C_27
REMARK   15  A    between atoms: C_25  and  C_28
REMARK                            x       y       z     vdW  Elec       q    Type
REMARK                         _______ _______ _______ _____ _____    ______ ____
ROOT
ATOM      1  N   UNL     1       0.711  -0.489   1.189  0.00  0.00    -0.307 N 
ATOM      2  C   UNL     1       2.054  -0.600   1.174  0.00  0.00    +0.237 C 
ATOM      3  O   UNL     1       2.676  -0.297   0.177  0.00  0.00    -0.273 OA
ATOM      4  H   UNL     1       0.213  -0.731   1.986  0.00  0.00    +0.149 HD
ENDROOT
BRANCH   2   5
ATOM      5  C   UNL     1       2.783  -1.099   2.395  0.00  0.00    +0.108 C 
ATOM      6  C   UNL     1       2.803  -2.629   2.386  0.00  0.00    +0.041 C 
ATOM      7  C   UNL     1       4.218  -0.569   2.384  0.00  0.00    +0.041 C 
BRANCH   5   8
ATOM      8  N   UNL     1       2.097  -0.627   3.600  0.00  0.00    -0.268 N 
ATOM      9  C   UNL     1       2.573  -0.952   4.818  0.00  0.00    +0.402 C 
ATOM     10  O   UNL     1       3.572  -1.638   4.916  0.00  0.00    -0.226 OA
ATOM     11  H   UNL     1       1.300  -0.079   3.521  0.00  0.00    +0.153 HD
BRANCH   9  12
ATOM     12  O   UNL     1       1.943  -0.518   5.926  0.00  0.00    -0.445 OA
BRANCH  12  13
ATOM     13  C   UNL     1       2.503  -0.902   7.183  0.00  0.00    +0.107 C 
ATOM     14  C   UNL     1       3.934  -0.368   7.288  0.00  0.00    +0.055 C 
ATOM     15  C   UNL     1       1.657  -0.319   8.317  0.00  0.00    +0.055 C 
ATOM     16  C   UNL     1       2.519  -2.428   7.290  0.00  0.00    +0.055 C 
ENDBRANCH  12  13
ENDBRANCH   9  12
ENDBRANCH   5   8
ENDBRANCH   2   5
BRANCH   1  18
ATOM     17  C   UNL     1      -0.019   1.526   0.010  0.00  0.00    +0.033 C 
ATOM     18  C   UNL     1       0.002  -0.004   0.002  0.00  0.00    +0.100 C 
BRANCH  18  19
ATOM     19  C   UNL     1      -1.412  -0.526   0.013  0.00  0.00    -0.026 A 
ATOM     20  C   UNL     1      -2.123  -0.571   1.198  0.00  0.00    +0.005 A 
ATOM     21  C   UNL     1      -3.420  -1.049   1.207  0.00  0.00    +0.002 A 
ATOM     22  C   UNL     1      -4.006  -1.482   0.032  0.00  0.00    +0.028 A 
ATOM     23  C   UNL     1      -3.295  -1.436  -1.152  0.00  0.00    +0.106 A 
ATOM     24  C   UNL     1      -1.999  -0.954  -1.163  0.00  0.00    +0.034 A 
BRANCH  23  25
ATOM     25  S   UNL     1      -4.042  -1.988  -2.650  0.00  0.00    +0.058 S 
ATOM     26  O   UNL     1      -2.981  -2.351  -3.523  0.00  0.00    -0.153 OA
ATOM     27  O   UNL     1      -5.069  -2.898  -2.280  0.00  0.00    -0.153 OA
BRANCH  25  28
ATOM     28  N   UNL     1      -4.792  -0.680  -3.334  0.00  0.00    -0.193 NA
ATOM     29  C   UNL     1      -3.997   0.458  -3.803  0.00  0.00    +0.127 C 
ATOM     30  H   UNL     1      -5.757  -0.667  -3.425  0.00  0.00    +0.148 HD
ENDBRANCH  25  28
ENDBRANCH  23  25
ENDBRANCH  18  19
ENDBRANCH   1  18
TORSDOF 8
