REMARK  Name = ZINC41019547
REMARK  11 active torsions:
REMARK  status: ('A' for Active; 'I' for Inactive)
REMARK    1  A    between atoms: C_1  and  C_2
REMARK    2  A    between atoms: C_2  and  C_3
REMARK    3  A    between atoms: C_3  and  C_4
REMARK    4  A    between atoms: C_4  and  S_5
REMARK    5  A    between atoms: S_5  and  C_6
REMARK    6  A    between atoms: C_11  and  C_27
REMARK    7  A    between atoms: C_13  and  C_17
REMARK    8  A    between atoms: C_14  and  C_16
REMARK    9  A    between atoms: N_19  and  C_20
REMARK   10  A    between atoms: C_24  and  C_26
REMARK   11  A    between atoms: C_31  and  O_33
REMARK                            x       y       z     vdW  Elec       q    Type
REMARK                         _______ _______ _______ _____ _____    ______ ____
ROOT
ATOM      1  C   UNL     1       1.620  -4.410   2.651  0.00  0.00    +0.210 A 
ATOM      2  N   UNL     1       1.016  -5.049   1.639  0.00  0.00    -0.187 NA
ATOM      3  C   UNL     1       1.145  -6.338   1.798  0.00  0.00    +0.219 A 
ATOM      4  N   UNL     1       1.844  -6.554   2.940  0.00  0.00    -0.220 N 
ATOM      5  N   UNL     1       2.146  -5.299   3.466  0.00  0.00    -0.141 NA
ATOM      6  C   UNL     1       2.174  -7.883   3.446  0.00  0.00    +0.177 C 
ATOM      7  C   UNL     1       1.892  -8.910   2.382  0.00  0.00    +0.060 C 
ATOM      8  C   UNL     1       1.196  -8.637   1.268  0.00  0.00    +0.018 C 
ATOM      9  N   UNL     1       0.694  -7.386   1.008  0.00  0.00    -0.287 N 
ATOM     10  C   UNL     1       0.959  -9.740   0.270  0.00  0.00    +0.061 C 
ATOM     11  H   UNL     1       0.048  -7.240   0.298  0.00  0.00    +0.155 HD
ENDROOT
BRANCH   6  12
ATOM     12  C   UNL     1       1.337  -8.179   4.664  0.00  0.00    -0.015 A 
ATOM     13  C   UNL     1      -0.042  -8.196   4.567  0.00  0.00    +0.006 A 
ATOM     14  C   UNL     1      -0.813  -8.467   5.682  0.00  0.00    +0.004 A 
ATOM     15  C   UNL     1      -0.206  -8.721   6.897  0.00  0.00    +0.045 A 
ATOM     16  C   UNL     1       1.177  -8.704   6.998  0.00  0.00    +0.117 A 
ATOM     17  C   UNL     1       1.949  -8.438   5.875  0.00  0.00    +0.051 A 
BRANCH  16  18
ATOM     18  O   UNL     1       1.776  -8.953   8.192  0.00  0.00    -0.507 OA
ATOM     19  H   UNL     1       1.974  -9.887   8.345  0.00  0.00    +0.292 HD
ENDBRANCH  16  18
ENDBRANCH   6  12
BRANCH   7  20
ATOM     20  C   UNL     1       2.384 -10.223   2.565  0.00  0.00    +0.248 C 
ATOM     21  O   UNL     1       3.550 -10.477   2.319  0.00  0.00    -0.270 OA
ATOM     22  N   UNL     1       1.563 -11.194   3.011  0.00  0.00    -0.282 N 
ATOM     23  H   UNL     1       0.617 -11.015   3.126  0.00  0.00    +0.155 HD
BRANCH  22  24
ATOM     24  C   UNL     1       2.075 -12.462   3.308  0.00  0.00    +0.034 A 
ATOM     25  C   UNL     1       3.406 -12.606   3.676  0.00  0.00    +0.023 A 
ATOM     26  C   UNL     1       3.909 -13.858   3.968  0.00  0.00    +0.002 A 
ATOM     27  C   UNL     1       3.088 -14.969   3.894  0.00  0.00    +0.003 A 
ATOM     28  C   UNL     1       1.762 -14.829   3.528  0.00  0.00    -0.049 A 
ATOM     29  C   UNL     1       1.252 -13.578   3.240  0.00  0.00    +0.026 A 
ATOM     30  C   UNL     1       0.871 -16.042   3.449  0.00  0.00    +0.044 C 
ENDBRANCH  22  24
ENDBRANCH   7  20
BRANCH   1  31
ATOM     31  S   UNL     1       1.704  -2.661   2.853  0.00  0.00    -0.084 S 
BRANCH  31  32
ATOM     32  C   UNL     1       0.801  -2.011   1.420  0.00  0.00    +0.077 C 
BRANCH  32  33
ATOM     33  C   UNL     1       0.797  -0.482   1.471  0.00  0.00    +0.011 C 
BRANCH  33  35
ATOM     34  C   UNL     1       0.031   1.596   0.314  0.00  0.00    +0.004 C 
ATOM     35  C   UNL     1       0.036   0.067   0.263  0.00  0.00    -0.003 C 
ENDBRANCH  33  35
ENDBRANCH  32  33
ENDBRANCH  31  32
ENDBRANCH   1  31
TORSDOF 8
