REMARK  Name = ZINC13914335
REMARK  10 active torsions:
REMARK  status: ('A' for Active; 'I' for Inactive)
REMARK    1  A    between atoms: C_1  and  C_2
REMARK    2  A    between atoms: C_2  and  O_3
REMARK    3  A    between atoms: O_3  and  C_4
REMARK    4  A    between atoms: C_4  and  C_6
REMARK    5  A    between atoms: C_9  and  N_12
REMARK    6  A    between atoms: C_18  and  C_19
REMARK    7  A    between atoms: C_21  and  N_28
REMARK    8  A    between atoms: C_22  and  O_27
REMARK    9  A    between atoms: C_23  and  O_25
REMARK   10  A    between atoms: O_25  and  C_26
REMARK                            x       y       z     vdW  Elec       q    Type
REMARK                         _______ _______ _______ _____ _____    ______ ____
ROOT
ATOM      1  N   UNL     1       2.432  -4.911  -5.934  0.00  0.00    -0.226 NA
ATOM      2  C   UNL     1       3.498  -5.669  -5.785  0.00  0.00    +0.166 C 
ATOM      3  N   UNL     1       4.259  -6.276  -6.759  0.00  0.00    -0.260 N 
ATOM      4  C   UNL     1       5.309  -7.012  -6.434  0.00  0.00    +0.256 C 
ATOM      5  O   UNL     1       5.992  -7.555  -7.283  0.00  0.00    -0.269 OA
ATOM      6  C   UNL     1       5.615  -7.143  -4.997  0.00  0.00    +0.078 C 
ATOM      7  C   UNL     1       6.618  -7.826  -4.389  0.00  0.00    +0.028 C 
ATOM      8  S   UNL     1       4.315  -6.153  -4.273  0.00  0.00    -0.049 S 
ATOM      9  H   UNL     1       4.022  -6.164  -7.693  0.00  0.00    +0.157 HD
ENDROOT
BRANCH   1  13
ATOM     10  C   UNL     1       0.548  -3.329  -2.621  0.00  0.00    +0.059 A 
ATOM     11  C   UNL     1       0.792  -2.522  -3.739  0.00  0.00    +0.017 A 
ATOM     12  C   UNL     1       1.415  -3.045  -4.834  0.00  0.00    +0.028 A 
ATOM     13  C   UNL     1       1.810  -4.389  -4.840  0.00  0.00    +0.067 A 
ATOM     14  C   UNL     1       1.566  -5.196  -3.721  0.00  0.00    +0.028 A 
ATOM     15  C   UNL     1       0.948  -4.671  -2.624  0.00  0.00    +0.017 A 
BRANCH  10  16
ATOM     16  C   UNL     1      -0.125  -2.765  -1.439  0.00  0.00    +0.339 C 
ATOM     17  O   UNL     1      -0.332  -3.463  -0.467  0.00  0.00    -0.245 OA
BRANCH  16  18
ATOM     18  O   UNL     1      -0.510  -1.473  -1.436  0.00  0.00    -0.461 OA
BRANCH  18  20
ATOM     19  C   UNL     1      -1.518   0.484  -0.437  0.00  0.00    +0.048 C 
ATOM     20  C   UNL     1      -1.157  -0.992  -0.256  0.00  0.00    +0.229 C 
ENDBRANCH  18  20
ENDBRANCH  16  18
ENDBRANCH  10  16
ENDBRANCH   1  13
BRANCH   7  21
ATOM     21  C   UNL     1       6.637  -7.954  -2.926  0.00  0.00    -0.018 A 
ATOM     22  C   UNL     1       5.477  -7.702  -2.184  0.00  0.00    +0.044 A 
ATOM     23  C   UNL     1       5.499  -7.823  -0.811  0.00  0.00    +0.172 A 
ATOM     24  C   UNL     1       6.668  -8.195  -0.162  0.00  0.00    +0.189 A 
ATOM     25  C   UNL     1       7.827  -8.448  -0.894  0.00  0.00    +0.164 A 
ATOM     26  C   UNL     1       7.814  -8.335  -2.270  0.00  0.00    +0.057 A 
BRANCH  23  27
ATOM     27  N   UNL     1       4.272  -7.556  -0.028  0.00  0.00    +0.060 N 
ATOM     28  O   UNL     1       3.253  -7.232  -0.592  0.00  0.00    -0.126 OA
ATOM     29  O   UNL     1       4.288  -7.662   1.176  0.00  0.00    -0.126 OA
ENDBRANCH  23  27
BRANCH  25  30
ATOM     30  O   UNL     1       8.970  -8.811  -0.252  0.00  0.00    -0.491 OA
ATOM     31  C   UNL     1      10.121  -9.055  -1.065  0.00  0.00    +0.277 C 
ENDBRANCH  25  30
BRANCH  24  32
ATOM     32  O   UNL     1       6.683  -8.312   1.192  0.00  0.00    -0.502 OA
ATOM     33  H   UNL     1       6.456  -9.196   1.512  0.00  0.00    +0.292 HD
ENDBRANCH  24  32
ENDBRANCH   7  21
TORSDOF 8
