REMARK  Name = ZINC11968484
REMARK  9 active torsions:
REMARK  status: ('A' for Active; 'I' for Inactive)
REMARK    1  A    between atoms: C_1  and  C_2
REMARK    2  A    between atoms: C_2  and  C_3
REMARK    3  A    between atoms: C_3  and  C_14
REMARK    4  A    between atoms: N_6  and  C_10
REMARK    5  A    between atoms: C_10  and  C_11
REMARK    6  A    between atoms: C_11  and  C_13
REMARK    7  A    between atoms: C_19  and  C_20
REMARK    8  A    between atoms: C_19  and  N_62
REMARK    9  A    between atoms: C_21  and  C_30
REMARK                            x       y       z     vdW  Elec       q    Type
REMARK                         _______ _______ _______ _____ _____    ______ ____
ROOT
ATOM      1  C   UNL     1      -3.796   5.977  -3.580  0.00  0.00    +0.018 C 
ATOM      2  C   UNL     1      -4.738   5.042  -2.815  0.00  0.00    -0.013 C 
ATOM      3  C   UNL     1      -4.266   4.928  -1.364  0.00  0.00    -0.078 C 
ATOM      4  C   UNL     1      -1.965   5.308  -2.021  0.00  0.00    -0.078 C 
ATOM      5  C   UNL     1      -2.368   5.434  -3.492  0.00  0.00    -0.013 C 
ATOM      6  N   UNL     1      -2.894   4.377  -1.347  0.00  0.00    +0.383 N 
ATOM      7  H   UNL     1      -2.889   3.481  -1.848  0.00  0.00    -0.081 HD
ENDROOT
BRANCH   1   8
ATOM      8  C   UNL     1      -4.227   6.048  -5.047  0.00  0.00    +0.115 C 
ATOM      9  C   UNL     1      -5.649   6.559  -5.161  0.00  0.00    +0.247 C 
ATOM     10  O   UNL     1      -6.070   7.639  -4.803  0.00  0.00    -0.273 OA
ATOM     11  N   UNL     1      -6.349   5.565  -5.743  0.00  0.00    -0.220 N 
ATOM     12  C   UNL     1      -5.574   4.507  -6.009  0.00  0.00    +0.310 C 
ATOM     13  O   UNL     1      -5.979   3.488  -6.532  0.00  0.00    -0.252 OA
ATOM     14  N   UNL     1      -4.297   4.698  -5.632  0.00  0.00    -0.285 N 
ATOM     15  H   UNL     1      -3.564   4.069  -5.728  0.00  0.00    +0.151 HD
BRANCH   8  17
ATOM     16  C   UNL     1      -3.722   6.989  -7.306  0.00  0.00    +0.006 C 
ATOM     17  C   UNL     1      -3.270   6.935  -5.845  0.00  0.00    +0.032 C 
ENDBRANCH   8  17
BRANCH  11  18
ATOM     18  C   UNL     1      -7.780   5.634  -6.045  0.00  0.00    +0.148 C 
BRANCH  18  19
ATOM     19  C   UNL     1      -7.975   6.197  -7.429  0.00  0.00    -0.062 C 
ATOM     20  C   UNL     1      -8.117   5.390  -8.451  0.00  0.00    +0.009 C 
ATOM     21  C   UNL     1      -8.007   7.690  -7.637  0.00  0.00    +0.040 C 
ENDBRANCH  18  19
ENDBRANCH  11  18
ENDBRANCH   1   8
BRANCH   6  22
ATOM     22  C   UNL     1      -2.459   4.150   0.046  0.00  0.00    -0.021 C 
BRANCH  22  23
ATOM     23  C   UNL     1      -1.157   3.390   0.030  0.00  0.00    +0.047 A 
ATOM     24  C   UNL     1       0.051   4.091   0.022  0.00  0.00    +0.058 A 
ATOM     25  N   UNL     1       1.198   3.450   0.009  0.00  0.00    -0.249 NA
ATOM     26  C   UNL     1       1.210   2.112   0.002  0.00  0.00    +0.089 A 
ATOM     27  C   UNL     1       2.420   1.397  -0.014  0.00  0.00    +0.030 A 
ATOM     28  C   UNL     1       2.399   0.037  -0.021  0.00  0.00    +0.002 A 
ATOM     29  C   UNL     1       1.193  -0.662  -0.013  0.00  0.00    +0.002 A 
ATOM     30  C   UNL     1       0.002  -0.004   0.002  0.00  0.00    +0.030 A 
ATOM     31  C   UNL     1      -0.017   1.402   0.010  0.00  0.00    +0.089 A 
ATOM     32  N   UNL     1      -1.171   2.077   0.019  0.00  0.00    -0.250 NA
ATOM     33  C   UNL     1       0.039   5.598   0.030  0.00  0.00    +0.067 C 
ENDBRANCH  22  23
ENDBRANCH   6  22
TORSDOF 6
