REMARK  Name = ZINC52164379
REMARK  6 active torsions:
REMARK  status: ('A' for Active; 'I' for Inactive)
REMARK    1  A    between atoms: C_4  and  N_7
REMARK    2  A    between atoms: N_7  and  C_8
REMARK    3  A    between atoms: C_14  and  C_16
REMARK    4  A    between atoms: C_16  and  N_17
REMARK    5  A    between atoms: N_20  and  C_23
REMARK    6  A    between atoms: C_23  and  C_24
REMARK                            x       y       z     vdW  Elec       q    Type
REMARK                         _______ _______ _______ _____ _____    ______ ____
ROOT
ATOM      1  N   UNL     1       2.673  -0.607  -2.431  0.00  0.00    -0.294 N 
ATOM      2  C   UNL     1       2.365  -0.158  -3.664  0.00  0.00    +0.230 C 
ATOM      3  O   UNL     1       1.571   0.749  -3.798  0.00  0.00    -0.274 OA
ENDROOT
BRANCH   1   7
ATOM      4  C   UNL     1       0.016   1.758  -0.076  0.00  0.00    +0.000 C 
ATOM      5  C   UNL     1       1.518   2.018   0.047  0.00  0.00    +0.002 C 
ATOM      6  C   UNL     1       2.237   1.447  -1.177  0.00  0.00    +0.022 C 
ATOM      7  C   UNL     1       1.985  -0.060  -1.259  0.00  0.00    +0.076 C 
ATOM      8  C   UNL     1       0.483  -0.321  -1.382  0.00  0.00    +0.022 C 
ATOM      9  C   UNL     1      -0.236   0.251  -0.158  0.00  0.00    +0.002 C 
ENDBRANCH   1   7
BRANCH   1  10
ATOM     10  C   UNL     1       3.696  -1.642  -2.263  0.00  0.00    +0.076 C 
ATOM     11  C   UNL     1       3.098  -2.833  -1.512  0.00  0.00    +0.022 C 
ATOM     12  C   UNL     1       4.167  -3.914  -1.336  0.00  0.00    +0.002 C 
ATOM     13  C   UNL     1       5.342  -3.345  -0.538  0.00  0.00    +0.000 C 
ATOM     14  C   UNL     1       5.940  -2.154  -1.290  0.00  0.00    +0.002 C 
ATOM     15  C   UNL     1       4.871  -1.073  -1.466  0.00  0.00    +0.022 C 
ENDBRANCH   1  10
BRANCH   2  16
ATOM     16  C   UNL     1       3.006  -0.783  -4.876  0.00  0.00    +0.180 C 
BRANCH  16  17
ATOM     17  N   UNL     1       2.396  -0.231  -6.093  0.00  0.00    -0.298 NA
ATOM     18  C   UNL     1       0.986  -0.631  -6.204  0.00  0.00    +0.066 C 
ATOM     19  C   UNL     1       0.373   0.012  -7.449  0.00  0.00    -0.063 C 
ATOM     20  N   UNL     1       1.118  -0.419  -8.640  0.00  0.00    +0.382 N 
ATOM     21  C   UNL     1       2.518   0.010  -8.526  0.00  0.00    -0.063 C 
ATOM     22  C   UNL     1       3.149  -0.634  -7.289  0.00  0.00    +0.066 C 
ATOM     23  H   UNL     1       1.079  -1.424  -8.715  0.00  0.00    -0.082 HD
BRANCH  20  24
ATOM     24  C   UNL     1       0.517   0.185  -9.838  0.00  0.00    -0.075 C 
BRANCH  24  25
ATOM     25  C   UNL     1       1.213  -0.361 -11.086  0.00  0.00    -0.028 C 
ATOM     26  C   UNL     1       1.983   0.634 -11.958  0.00  0.00    +0.002 C 
ATOM     27  C   UNL     1       0.652   0.059 -12.447  0.00  0.00    +0.002 C 
ENDBRANCH  24  25
ENDBRANCH  20  24
ENDBRANCH  16  17
ENDBRANCH   2  16
TORSDOF 6
