REMARK  Name = ZINC04311617
REMARK  5 active torsions:
REMARK  status: ('A' for Active; 'I' for Inactive)
REMARK    1  A    between atoms: C_4  and  C_7
REMARK    2  A    between atoms: C_7  and  N_8
REMARK    3  A    between atoms: N_21  and  N_22
REMARK    4  A    between atoms: C_23  and  C_24
REMARK    5  A    between atoms: C_29  and  O_30
REMARK                            x       y       z     vdW  Elec       q    Type
REMARK                         _______ _______ _______ _____ _____    ______ ____
ROOT
ATOM      1  N   UNL     1       4.152  -0.952   1.338  0.00  0.00    -0.319 N 
ATOM      2  C   UNL     1       4.941  -0.089   2.081  0.00  0.00    +0.053 A 
ATOM      3  C   UNL     1       5.504   1.149   1.790  0.00  0.00    +0.026 A 
ATOM      4  C   UNL     1       6.262   1.802   2.739  0.00  0.00    +0.002 A 
ATOM      5  C   UNL     1       6.471   1.236   3.987  0.00  0.00    +0.001 A 
ATOM      6  C   UNL     1       5.921   0.011   4.294  0.00  0.00    +0.012 A 
ATOM      7  C   UNL     1       5.153  -0.661   3.345  0.00  0.00    +0.029 A 
ATOM      8  C   UNL     1       4.439  -1.949   3.344  0.00  0.00    +0.138 A 
ATOM      9  C   UNL     1       3.837  -2.067   2.075  0.00  0.00    +0.166 A 
ATOM     10  N   UNL     1       3.119  -3.156   1.816  0.00  0.00    -0.192 NA
ATOM     11  C   UNL     1       2.990  -4.086   2.753  0.00  0.00    +0.256 A 
ATOM     12  N   UNL     1       3.565  -3.951   3.943  0.00  0.00    -0.111 NA
ATOM     13  N   UNL     1       4.277  -2.916   4.235  0.00  0.00    -0.142 NA
ATOM     14  N   UNL     1       2.242  -5.220   2.486  0.00  0.00    -0.204 N 
ATOM     15  H   UNL     1       1.818  -5.328   1.620  0.00  0.00    +0.177 HD
ENDROOT
BRANCH  14  16
ATOM     16  N   UNL     1       2.098  -6.211   3.466  0.00  0.00    -0.187 NA
ATOM     17  C   UNL     1       1.396  -7.274   3.215  0.00  0.00    +0.142 C 
BRANCH  17  18
ATOM     18  C   UNL     1       1.244  -8.317   4.246  0.00  0.00    +0.036 A 
ATOM     19  C   UNL     1       0.495  -9.465   3.978  0.00  0.00    +0.013 A 
ATOM     20  C   UNL     1       0.358 -10.437   4.947  0.00  0.00    +0.001 A 
ATOM     21  C   UNL     1       0.959 -10.279   6.184  0.00  0.00    +0.004 A 
ATOM     22  C   UNL     1       1.702  -9.148   6.461  0.00  0.00    +0.046 A 
ATOM     23  C   UNL     1       1.856  -8.164   5.497  0.00  0.00    +0.125 A 
BRANCH  23  24
ATOM     24  O   UNL     1       2.591  -7.054   5.767  0.00  0.00    -0.506 OA
ATOM     25  H   UNL     1       2.080  -6.327   6.149  0.00  0.00    +0.292 HD
ENDBRANCH  23  24
ENDBRANCH  17  18
ENDBRANCH  14  16
BRANCH   1  26
ATOM     26  C   UNL     1       3.711  -0.707  -0.038  0.00  0.00    +0.159 C 
BRANCH  26  30
ATOM     27  C   UNL     1      -0.017   1.378   0.010  0.00  0.00    +0.000 A 
ATOM     28  C   UNL     1       1.171   2.086   0.002  0.00  0.00    +0.000 A 
ATOM     29  C   UNL     1       2.377   1.411  -0.013  0.00  0.00    +0.005 A 
ATOM     30  C   UNL     1       2.396   0.029  -0.020  0.00  0.00    -0.028 A 
ATOM     31  C   UNL     1       1.208  -0.679  -0.012  0.00  0.00    +0.005 A 
ATOM     32  C   UNL     1       0.002  -0.004   0.002  0.00  0.00    +0.000 A 
ENDBRANCH  26  30
ENDBRANCH   1  26
TORSDOF 5
