REMARK  Name = ZINC40923731
REMARK  8 active torsions:
REMARK  status: ('A' for Active; 'I' for Inactive)
REMARK    1  A    between atoms: C_1  and  C_2
REMARK    2  A    between atoms: C_2  and  C_3
REMARK    3  A    between atoms: C_3  and  C_4
REMARK    4  A    between atoms: C_4  and  O_5
REMARK    5  A    between atoms: O_5  and  C_6
REMARK    6  A    between atoms: C_11  and  C_12
REMARK    7  A    between atoms: C_17  and  C_21
REMARK    8  A    between atoms: C_17  and  C_22
REMARK                            x       y       z     vdW  Elec       q    Type
REMARK                         _______ _______ _______ _____ _____    ______ ____
ROOT
ATOM      1  C   UNL     1      -5.395  -3.556   0.035  0.00  0.00    +0.181 C 
ATOM      2  C   UNL     1      -6.234  -3.818  -1.197  0.00  0.00    +0.041 C 
ATOM      3  C   UNL     1      -7.405  -4.488  -1.140  0.00  0.00    +0.020 C 
ATOM      4  C   UNL     1      -8.211  -4.749  -2.391  0.00  0.00    +0.058 C 
ATOM      5  C   UNL     1      -7.999  -3.607  -3.387  0.00  0.00    -0.023 C 
ATOM      6  C   UNL     1      -6.503  -3.515  -3.704  0.00  0.00    +0.086 C 
ATOM      7  C   UNL     1      -5.742  -3.328  -2.421  0.00  0.00    +0.164 C 
ATOM      8  O   UNL     1      -4.679  -2.741  -2.441  0.00  0.00    -0.292 OA
ATOM      9  C   UNL     1      -8.782  -3.891  -4.670  0.00  0.00    +0.011 C 
ATOM     10  C   UNL     1      -8.478  -2.291  -2.771  0.00  0.00    +0.011 C 
ATOM     11  N   UNL     1      -7.917  -4.955   0.047  0.00  0.00    -0.286 N 
ATOM     12  C   UNL     1      -7.362  -4.484   1.225  0.00  0.00    +0.240 A 
ATOM     13  N   UNL     1      -6.179  -3.822   1.232  0.00  0.00    -0.201 N 
ATOM     14  N   UNL     1      -5.943  -3.500   2.567  0.00  0.00    -0.042 NA
ATOM     15  N   UNL     1      -6.943  -3.969   3.241  0.00  0.00    -0.021 NA
ATOM     16  N   UNL     1      -7.779  -4.549   2.457  0.00  0.00    -0.092 NA
ATOM     17  H   UNL     1      -8.646  -5.595   0.059  0.00  0.00    +0.155 HD
ENDROOT
BRANCH   1  23
ATOM     18  C   UNL     1      -2.913  -3.908   0.009  0.00  0.00    +0.126 A 
ATOM     19  C   UNL     1      -1.802  -4.739  -0.001  0.00  0.00    +0.047 A 
ATOM     20  C   UNL     1      -1.966  -6.110  -0.006  0.00  0.00    +0.019 A 
ATOM     21  C   UNL     1      -3.238  -6.655  -0.003  0.00  0.00    +0.018 A 
ATOM     22  C   UNL     1      -4.347  -5.829   0.006  0.00  0.00    +0.025 A 
ATOM     23  C   UNL     1      -4.187  -4.456   0.018  0.00  0.00    +0.024 A 
ATOM     24 BR   UNL     1      -3.461  -8.533  -0.011  0.00  0.00    -0.050 Br
BRANCH  18  25
ATOM     25  O   UNL     1      -2.753  -2.558   0.015  0.00  0.00    -0.492 OA
BRANCH  25  26
ATOM     26  C   UNL     1      -1.413  -2.063   0.004  0.00  0.00    +0.229 C 
BRANCH  26  27
ATOM     27  C   UNL     1      -1.433  -0.534   0.013  0.00  0.00    +0.041 C 
BRANCH  27  29
ATOM     28  C   UNL     1      -0.019   1.526   0.010  0.00  0.00    +0.004 C 
ATOM     29  C   UNL     1       0.002  -0.004   0.002  0.00  0.00    -0.000 C 
ENDBRANCH  27  29
ENDBRANCH  26  27
ENDBRANCH  25  26
ENDBRANCH  18  25
ENDBRANCH   1  23
TORSDOF 5
