REMARK  Name = ZINC31820745
REMARK  6 active torsions:
REMARK  status: ('A' for Active; 'I' for Inactive)
REMARK    1  A    between atoms: C_1  and  O_2
REMARK    2  A    between atoms: O_2  and  C_3
REMARK    3  A    between atoms: C_6  and  N_9
REMARK    4  A    between atoms: C_12  and  C_19
REMARK    5  A    between atoms: C_14  and  C_17
REMARK    6  A    between atoms: C_15  and  N_16
REMARK                            x       y       z     vdW  Elec       q    Type
REMARK                         _______ _______ _______ _____ _____    ______ ____
ROOT
ATOM      1  N   UNL     1       1.329   2.051   0.174  0.00  0.00    -0.260 N 
ATOM      2  C   UNL     1       2.176   1.676  -0.835  0.00  0.00    +0.024 C 
ATOM      3  C   UNL     1       2.325   0.374  -1.160  0.00  0.00    +0.025 C 
ATOM      4  C   UNL     1       1.567  -0.700  -0.422  0.00  0.00    +0.097 C 
ATOM      5  C   UNL     1       0.403  -0.124   0.329  0.00  0.00    +0.077 C 
ATOM      6  C   UNL     1       0.330   1.205   0.599  0.00  0.00    +0.107 C 
ATOM      7  C   UNL     1       3.192  -0.020  -2.195  0.00  0.00    +0.162 C 
ATOM      8  O   UNL     1       3.292  -1.198  -2.473  0.00  0.00    -0.292 OA
ATOM      9  C   UNL     1       3.998   0.991  -2.963  0.00  0.00    +0.080 C 
ATOM     10  C   UNL     1       4.271   2.200  -2.062  0.00  0.00    +0.014 C 
ATOM     11  C   UNL     1       2.931   2.754  -1.575  0.00  0.00    +0.052 C 
ENDROOT
BRANCH   4  12
ATOM     12  C   UNL     1       2.496  -1.379   0.552  0.00  0.00    -0.034 A 
ATOM     13  C   UNL     1       3.078  -0.644   1.576  0.00  0.00    +0.006 A 
ATOM     14  C   UNL     1       3.929  -1.245   2.477  0.00  0.00    +0.026 A 
ATOM     15  C   UNL     1       4.210  -2.602   2.361  0.00  0.00    +0.046 A 
ATOM     16  C   UNL     1       3.619  -3.343   1.322  0.00  0.00    -0.000 A 
ATOM     17  C   UNL     1       2.755  -2.714   0.423  0.00  0.00    +0.014 A 
ATOM     18  C   UNL     1       4.109  -4.715   1.473  0.00  0.00    +0.027 A 
ATOM     19  C   UNL     1       4.925  -4.725   2.539  0.00  0.00    +0.083 A 
ATOM     20  N   UNL     1       4.998  -3.472   3.083  0.00  0.00    -0.361 N 
ATOM     21  H   UNL     1       5.563  -3.108   3.953  0.00  0.00    +0.165 HD
ENDBRANCH   4  12
BRANCH   1  25
ATOM     22  C   UNL     1       1.781   5.785   1.976  0.00  0.00    +0.120 A 
ATOM     23  C   UNL     1       0.952   5.643   0.872  0.00  0.00    +0.047 A 
ATOM     24  C   UNL     1       0.802   4.407   0.275  0.00  0.00    +0.027 A 
ATOM     25  C   UNL     1       1.481   3.306   0.779  0.00  0.00    +0.040 A 
ATOM     26  C   UNL     1       2.307   3.447   1.887  0.00  0.00    +0.027 A 
ATOM     27  C   UNL     1       2.460   4.685   2.479  0.00  0.00    +0.047 A 
BRANCH  22  29
ATOM     28  C   UNL     1       2.796   7.075   3.695  0.00  0.00    +0.277 C 
ATOM     29  O   UNL     1       1.927   7.002   2.563  0.00  0.00    -0.495 OA
ENDBRANCH  22  29
ENDBRANCH   1  25
BRANCH   6  30
ATOM     30  N   UNL     1      -0.746   1.706   1.291  0.00  0.00    -0.345 N 
ATOM     31  H   UNL     1      -1.545   1.031   1.631  0.00  0.00    +0.144 HD
ATOM     32  H   UNL     1      -0.808   2.784   1.506  0.00  0.00    +0.144 HD
ENDBRANCH   6  30
BRANCH   5  33
ATOM     33  C   UNL     1      -0.649  -0.991   0.769  0.00  0.00    +0.099 C 
ATOM     34  N   UNL     1      -1.483  -1.678   1.118  0.00  0.00    -0.191 NA
ENDBRANCH   5  33
TORSDOF 5
