REMARK  Name = ZINC03594500
REMARK  7 active torsions:
REMARK  status: ('A' for Active; 'I' for Inactive)
REMARK    1  A    between atoms: C_1  and  C_2
REMARK    2  A    between atoms: C_2  and  C_26
REMARK    3  A    between atoms: N_5  and  C_9
REMARK    4  A    between atoms: C_9  and  C_10
REMARK    5  A    between atoms: N_12  and  C_13
REMARK    6  A    between atoms: C_13  and  C_14
REMARK    7  A    between atoms: C_13  and  C_20
REMARK                            x       y       z     vdW  Elec       q    Type
REMARK                         _______ _______ _______ _____ _____    ______ ____
ROOT
ATOM      1  C   UNL     1       4.067   4.978  -3.178  0.00  0.00    +0.213 C 
ENDROOT
BRANCH   1   6
ATOM      2  C   UNL     1       2.590   4.766   1.278  0.00  0.00    +0.047 C 
ATOM      3  C   UNL     1       2.452   3.936  -0.000  0.00  0.00    +0.136 C 
ATOM      4  C   UNL     1       2.536   4.825  -1.225  0.00  0.00    +0.251 C 
ATOM      5  O   UNL     1       1.790   5.733  -1.524  0.00  0.00    -0.272 OA
ATOM      6  N   UNL     1       3.612   4.395  -1.914  0.00  0.00    -0.215 N 
ATOM      7  C   UNL     1       4.213   3.369  -1.300  0.00  0.00    +0.310 C 
ATOM      8  O   UNL     1       5.204   2.811  -1.730  0.00  0.00    -0.252 OA
ATOM      9  N   UNL     1       3.597   3.023  -0.155  0.00  0.00    -0.281 N 
ATOM     10  H   UNL     1       3.857   2.312   0.451  0.00  0.00    +0.152 HD
BRANCH   3  11
ATOM     11  C   UNL     1       1.157   3.165   0.008  0.00  0.00    -0.002 A 
ATOM     12  C   UNL     1       1.175   1.783   0.000  0.00  0.00    +0.007 A 
ATOM     13  C   UNL     1      -0.013   1.076   0.008  0.00  0.00    +0.000 A 
ATOM     14  C   UNL     1      -1.219   1.751   0.017  0.00  0.00    +0.001 A 
ATOM     15  C   UNL     1      -1.238   3.132   0.030  0.00  0.00    +0.015 A 
ATOM     16  C   UNL     1      -0.050   3.841   0.022  0.00  0.00    +0.024 A 
ATOM     17 BR   UNL     1      -0.076   5.731   0.033  0.00  0.00    -0.050 Br
ENDBRANCH   3  11
ENDBRANCH   1   6
BRANCH   1  18
ATOM     18  C   UNL     1       5.045   6.089  -2.895  0.00  0.00    +0.232 C 
ATOM     19  O   UNL     1       5.334   6.367  -1.750  0.00  0.00    -0.274 OA
ATOM     20  N   UNL     1       5.599   6.775  -3.915  0.00  0.00    -0.303 N 
ATOM     21  H   UNL     1       5.368   6.554  -4.831  0.00  0.00    +0.150 HD
BRANCH  20  22
ATOM     22  C   UNL     1       6.550   7.855  -3.640  0.00  0.00    +0.134 C 
BRANCH  22  23
ATOM     23  C   UNL     1       7.457   8.040  -4.829  0.00  0.00    -0.023 A 
ATOM     24  C   UNL     1       6.945   7.952  -6.110  0.00  0.00    +0.006 A 
ATOM     25  C   UNL     1       7.777   8.126  -7.200  0.00  0.00    +0.000 A 
ATOM     26  C   UNL     1       9.123   8.379  -7.010  0.00  0.00    +0.000 A 
ATOM     27  C   UNL     1       9.636   8.462  -5.729  0.00  0.00    +0.000 A 
ATOM     28  C   UNL     1       8.803   8.292  -4.638  0.00  0.00    +0.006 A 
ENDBRANCH  22  23
BRANCH  22  29
ATOM     29  C   UNL     1       5.796   9.134  -3.380  0.00  0.00    -0.023 A 
ATOM     30  C   UNL     1       4.686   9.449  -4.141  0.00  0.00    +0.006 A 
ATOM     31  C   UNL     1       3.992  10.620  -3.900  0.00  0.00    +0.000 A 
ATOM     32  C   UNL     1       4.414  11.480  -2.903  0.00  0.00    +0.000 A 
ATOM     33  C   UNL     1       5.527  11.167  -2.145  0.00  0.00    +0.000 A 
ATOM     34  C   UNL     1       6.218   9.994  -2.384  0.00  0.00    +0.006 A 
ENDBRANCH  22  29
ENDBRANCH  20  22
ENDBRANCH   1  18
TORSDOF 6
