REMARK  Name = ZINC49276998
REMARK  9 active torsions:
REMARK  status: ('A' for Active; 'I' for Inactive)
REMARK    1  A    between atoms: C_1  and  C_2
REMARK    2  A    between atoms: C_2  and  C_3
REMARK    3  A    between atoms: C_2  and  C_4
REMARK    4  A    between atoms: C_6  and  C_9
REMARK    5  A    between atoms: C_9  and  O_10
REMARK    6  A    between atoms: O_10  and  C_11
REMARK    7  A    between atoms: C_12  and  O_20
REMARK    8  A    between atoms: C_14  and  C_18
REMARK    9  A    between atoms: O_20  and  C_21
REMARK                            x       y       z     vdW  Elec       q    Type
REMARK                         _______ _______ _______ _____ _____    ______ ____
ROOT
ATOM      1  C   UNL     1      -6.050  -3.570  -2.132  0.00  0.00    +0.176 A 
ATOM      2  C   UNL     1      -6.803  -2.987  -3.152  0.00  0.00    +0.163 A 
ATOM      3  C   UNL     1      -7.578  -3.777  -3.977  0.00  0.00    +0.060 A 
ATOM      4  C   UNL     1      -7.606  -5.164  -3.788  0.00  0.00    +0.019 A 
ATOM      5  C   UNL     1      -6.848  -5.742  -2.763  0.00  0.00    +0.030 A 
ATOM      6  C   UNL     1      -6.073  -4.947  -1.947  0.00  0.00    +0.064 A 
ATOM      7 BR   UNL     1      -5.043  -5.730  -0.568  0.00  0.00    -0.046 Br
ENDROOT
BRANCH   4   8
ATOM      8  C   UNL     1      -8.429  -6.010  -4.662  0.00  0.00    +0.258 C 
ATOM      9  O   UNL     1      -8.452  -7.212  -4.497  0.00  0.00    -0.296 OA
ENDBRANCH   4   8
BRANCH   2  10
ATOM     10  O   UNL     1      -6.773  -1.639  -3.333  0.00  0.00    -0.491 OA
ATOM     11  C   UNL     1      -7.568  -1.110  -4.396  0.00  0.00    +0.277 C 
ENDBRANCH   2  10
BRANCH   1  12
ATOM     12  O   UNL     1      -5.289  -2.791  -1.323  0.00  0.00    -0.481 OA
BRANCH  12  13
ATOM     13  C   UNL     1      -3.944  -2.542  -1.738  0.00  0.00    +0.285 C 
BRANCH  13  16
ATOM     14  C   UNL     1      -1.412  -0.526   0.013  0.00  0.00    +0.081 A 
ATOM     15  N   UNL     1      -2.004  -1.288  -0.872  0.00  0.00    -0.245 NA
ATOM     16  C   UNL     1      -3.259  -1.665  -0.722  0.00  0.00    +0.086 A 
ATOM     17  C   UNL     1      -3.904  -1.227   0.389  0.00  0.00    +0.073 A 
ATOM     18  S   UNL     1      -2.610  -0.276   1.168  0.00  0.00    -0.080 S 
BRANCH  14  20
ATOM     19  C   UNL     1      -0.019   1.526   0.010  0.00  0.00    +0.014 C 
ATOM     20  C   UNL     1       0.002  -0.004   0.002  0.00  0.00    +0.038 C 
ATOM     21  C   UNL     1       0.742  -0.511   1.242  0.00  0.00    +0.014 C 
ENDBRANCH  14  20
ENDBRANCH  13  16
ENDBRANCH  12  13
ENDBRANCH   1  12
TORSDOF 6
