REMARK  Name = ZINC00816396
REMARK  7 active torsions:
REMARK  status: ('A' for Active; 'I' for Inactive)
REMARK    1  A    between atoms: C_1  and  O_2
REMARK    2  A    between atoms: O_2  and  C_3
REMARK    3  A    between atoms: C_6  and  O_27
REMARK    4  A    between atoms: C_7  and  S_9
REMARK    5  A    between atoms: S_9  and  N_12
REMARK    6  A    between atoms: N_12  and  C_13
REMARK    7  A    between atoms: O_27  and  C_28
REMARK                            x       y       z     vdW  Elec       q    Type
REMARK                         _______ _______ _______ _____ _____    ______ ____
ROOT
ATOM      1  N   UNL     1       0.465  -4.802  -3.570  0.00  0.00    -0.216 N 
ATOM      2  H   UNL     1      -0.363  -5.281  -3.408  0.00  0.00    +0.174 HD
ENDROOT
BRANCH   1   3
ATOM      3  C   UNL     1       0.925  -4.625  -4.878  0.00  0.00    +0.049 A 
ATOM      4  C   UNL     1       1.379  -3.375  -5.293  0.00  0.00    +0.028 A 
ATOM      5  C   UNL     1       1.835  -3.188  -6.580  0.00  0.00    +0.049 A 
ATOM      6  C   UNL     1       1.846  -4.248  -7.478  0.00  0.00    +0.136 A 
ATOM      7  C   UNL     1       1.389  -5.511  -7.061  0.00  0.00    +0.033 A 
ATOM      8  C   UNL     1       0.936  -5.693  -5.758  0.00  0.00    +0.036 A 
ATOM      9  C   UNL     1       1.538  -6.372  -8.235  0.00  0.00    +0.066 A 
ATOM     10  C   UNL     1       2.057  -5.587  -9.235  0.00  0.00    +0.117 A 
ATOM     11  O   UNL     1       2.229  -4.351  -8.771  0.00  0.00    -0.459 OA
ATOM     12  C   UNL     1       2.359  -6.121 -10.615  0.00  0.00    +0.075 C 
ATOM     13  C   UNL     1       2.498  -7.644 -10.550  0.00  0.00    +0.016 C 
ATOM     14  C   UNL     1       1.274  -8.270  -9.874  0.00  0.00    +0.080 C 
ATOM     15  C   UNL     1       1.231  -7.790  -8.431  0.00  0.00    +0.167 C 
ATOM     16  O   UNL     1       0.962  -8.530  -7.508  0.00  0.00    -0.292 OA
ENDBRANCH   1   3
BRANCH   1  17
ATOM     17  S   UNL     1       1.332  -4.193  -2.297  0.00  0.00    +0.076 S 
ATOM     18  O   UNL     1       0.676  -4.628  -1.114  0.00  0.00    -0.150 OA
ATOM     19  O   UNL     1       1.560  -2.819  -2.581  0.00  0.00    -0.150 OA
BRANCH  17  24
ATOM     20  C   UNL     1       5.290  -4.854  -2.563  0.00  0.00    +0.122 A 
ATOM     21  C   UNL     1       5.386  -6.221  -2.348  0.00  0.00    +0.049 A 
ATOM     22  C   UNL     1       4.245  -6.965  -2.118  0.00  0.00    +0.051 A 
ATOM     23  C   UNL     1       3.004  -6.346  -2.102  0.00  0.00    +0.147 A 
ATOM     24  C   UNL     1       2.908  -4.979  -2.317  0.00  0.00    +0.153 A 
ATOM     25  C   UNL     1       4.049  -4.234  -2.541  0.00  0.00    +0.078 A 
BRANCH  20  27
ATOM     26  C   UNL     1       7.656  -4.824  -2.797  0.00  0.00    +0.277 C 
ATOM     27  O   UNL     1       6.412  -4.121  -2.789  0.00  0.00    -0.495 OA
ENDBRANCH  20  27
BRANCH  23  28
ATOM     28  O   UNL     1       1.881  -7.079  -1.877  0.00  0.00    -0.493 OA
ATOM     29  C   UNL     1       2.041  -8.496  -1.778  0.00  0.00    +0.277 C 
ENDBRANCH  23  28
ENDBRANCH  17  24
ENDBRANCH   1  17
TORSDOF 5
