REMARK  Name = ZINC21397454
REMARK  7 active torsions:
REMARK  status: ('A' for Active; 'I' for Inactive)
REMARK    1  A    between atoms: C_1  and  C_2
REMARK    2  A    between atoms: C_5  and  C_8
REMARK    3  A    between atoms: C_11  and  S_20
REMARK    4  A    between atoms: N_12  and  C_13
REMARK    5  A    between atoms: S_20  and  C_21
REMARK    6  A    between atoms: C_21  and  C_23
REMARK    7  A    between atoms: C_21  and  C_24
REMARK                            x       y       z     vdW  Elec       q    Type
REMARK                         _______ _______ _______ _____ _____    ______ ____
ROOT
ATOM      1  C   UNL     1      -0.410  -6.623   1.064  0.00  0.00    +0.169 A 
ATOM      2  N   UNL     1       0.705  -6.366   0.420  0.00  0.00    -0.128 NA
ATOM      3  N   UNL     1       0.916  -5.099   0.394  0.00  0.00    -0.122 NA
ATOM      4  C   UNL     1      -0.046  -4.467   1.029  0.00  0.00    +0.197 A 
ATOM      5  N   UNL     1      -0.926  -5.414   1.476  0.00  0.00    -0.270 N 
ENDROOT
BRANCH   1  10
ATOM      6  C   UNL     1      -2.703 -11.818   1.997  0.00  0.00    +0.044 C 
ATOM      7  C   UNL     1      -2.102 -10.457   1.753  0.00  0.00    -0.050 A 
ATOM      8  C   UNL     1      -2.885  -9.325   1.889  0.00  0.00    +0.004 A 
ATOM      9  C   UNL     1      -2.341  -8.076   1.667  0.00  0.00    +0.012 A 
ATOM     10  C   UNL     1      -0.999  -7.957   1.304  0.00  0.00    +0.020 A 
ATOM     11  C   UNL     1      -0.216  -9.105   1.163  0.00  0.00    +0.012 A 
ATOM     12  C   UNL     1      -0.771 -10.347   1.393  0.00  0.00    +0.004 A 
ENDBRANCH   1  10
BRANCH   5  13
ATOM     13  C   UNL     1      -2.107  -5.199   2.200  0.00  0.00    +0.051 A 
ATOM     14  C   UNL     1      -2.200  -5.619   3.520  0.00  0.00    +0.028 A 
ATOM     15  C   UNL     1      -3.363  -5.402   4.233  0.00  0.00    +0.022 A 
ATOM     16  C   UNL     1      -4.439  -4.776   3.629  0.00  0.00    +0.041 A 
ATOM     17  C   UNL     1      -4.351  -4.360   2.312  0.00  0.00    +0.022 A 
ATOM     18  C   UNL     1      -3.188  -4.570   1.597  0.00  0.00    +0.028 A 
ATOM     19 CL   UNL     1      -5.902  -4.510   4.526  0.00  0.00    -0.084 Cl
ENDBRANCH   5  13
BRANCH   4  20
ATOM     20  S   UNL     1      -0.179  -2.725   1.257  0.00  0.00    -0.075 S 
BRANCH  20  21
ATOM     21  C   UNL     1       1.322  -2.180   0.405  0.00  0.00    +0.117 C 
ATOM     22  C   UNL     1       1.212  -2.512  -1.084  0.00  0.00    +0.027 C 
BRANCH  21  23
ATOM     23  C   UNL     1       1.486  -0.692   0.578  0.00  0.00    +0.124 A 
ATOM     24  N   UNL     1       2.744  -0.192   0.696  0.00  0.00    -0.309 N 
ATOM     25  H   UNL     1       3.610  -0.869   0.664  0.00  0.00    +0.170 HD
ATOM     26  C   UNL     1       2.944   1.137   0.853  0.00  0.00    +0.259 A 
ATOM     27  O   UNL     1       4.065   1.599   0.960  0.00  0.00    -0.267 OA
ATOM     28  C   UNL     1       1.755   2.002   0.889  0.00  0.00    +0.065 A 
ATOM     29  C   UNL     1       1.853   3.383   1.048  0.00  0.00    +0.015 A 
ATOM     30  C   UNL     1       0.705   4.145   1.076  0.00  0.00    +0.001 A 
ATOM     31  C   UNL     1      -0.542   3.549   0.948  0.00  0.00    +0.002 A 
ATOM     32  C   UNL     1      -0.660   2.186   0.796  0.00  0.00    +0.028 A 
ATOM     33  C   UNL     1       0.488   1.392   0.759  0.00  0.00    +0.078 A 
ATOM     34  N   UNL     1       0.418   0.046   0.607  0.00  0.00    -0.233 NA
ENDBRANCH  21  23
ENDBRANCH  20  21
ENDBRANCH   4  20
TORSDOF 5
