REMARK  Name = ZINC56769890
REMARK  9 active torsions:
REMARK  status: ('A' for Active; 'I' for Inactive)
REMARK    1  A    between atoms: C_1  and  C_2
REMARK    2  A    between atoms: C_5  and  C_8
REMARK    3  A    between atoms: C_8  and  N_9
REMARK    4  A    between atoms: N_9  and  C_10
REMARK    5  A    between atoms: N_15  and  C_16
REMARK    6  A    between atoms: C_16  and  C_18
REMARK    7  A    between atoms: C_16  and  C_19
REMARK    8  A    between atoms: C_19  and  C_20
REMARK    9  A    between atoms: C_23  and  O_26
REMARK                            x       y       z     vdW  Elec       q    Type
REMARK                         _______ _______ _______ _____ _____    ______ ____
ROOT
ATOM      1  N   UNL     1       1.440  -4.741  -0.027  0.00  0.00    -0.278 N 
ATOM      2  C   UNL     1       2.076  -4.931  -1.200  0.00  0.00    +0.303 C 
ATOM      3  O   UNL     1       1.524  -4.645  -2.245  0.00  0.00    -0.253 OA
ATOM      4  N   UNL     1       3.325  -5.439  -1.215  0.00  0.00    -0.296 N 
ATOM      5  H   UNL     1       3.738  -5.736  -0.389  0.00  0.00    +0.151 HD
ENDROOT
BRANCH   1   6
ATOM      6  C   UNL     1       2.143  -4.984   1.235  0.00  0.00    +0.078 C 
ATOM      7  C   UNL     1       1.349  -4.808   2.531  0.00  0.00    +0.024 C 
ATOM      8  C   UNL     1       2.410  -3.778   2.138  0.00  0.00    +0.024 C 
ENDBRANCH   1   6
BRANCH   4   9
ATOM      9  C   UNL     1       4.058  -5.542  -2.479  0.00  0.00    +0.076 C 
ATOM     10  C   UNL     1       4.753  -4.212  -2.776  0.00  0.00    +0.028 C 
BRANCH   9  11
ATOM     11  C   UNL     1       5.106  -6.652  -2.371  0.00  0.00    +0.057 C 
BRANCH  11  12
ATOM     12  C   UNL     1       4.415  -7.981  -2.201  0.00  0.00    -0.045 A 
ATOM     13  C   UNL     1       4.118  -8.447  -0.934  0.00  0.00    +0.007 A 
ATOM     14  C   UNL     1       3.485  -9.665  -0.775  0.00  0.00    +0.045 A 
ATOM     15  C   UNL     1       3.147 -10.419  -1.889  0.00  0.00    +0.117 A 
ATOM     16  C   UNL     1       3.445  -9.949  -3.160  0.00  0.00    +0.045 A 
ATOM     17  C   UNL     1       4.073  -8.728  -3.313  0.00  0.00    +0.007 A 
BRANCH  15  18
ATOM     18  O   UNL     1       2.524 -11.618  -1.736  0.00  0.00    -0.507 OA
ATOM     19  H   UNL     1       1.559 -11.561  -1.726  0.00  0.00    +0.292 HD
ENDBRANCH  15  18
ENDBRANCH  11  12
ENDBRANCH   9  11
ENDBRANCH   4   9
BRANCH   1  20
ATOM     20  C   UNL     1       0.046  -4.292  -0.014  0.00  0.00    +0.144 C 
BRANCH  20  25
ATOM     21  C   UNL     1      -0.121   1.483   0.068  0.00  0.00    +0.044 C 
ATOM     22  C   UNL     1      -0.077  -0.023   0.047  0.00  0.00    -0.050 A 
ATOM     23  C   UNL     1      -0.062  -0.697  -1.160  0.00  0.00    +0.003 A 
ATOM     24  C   UNL     1      -0.022  -2.078  -1.180  0.00  0.00    +0.005 A 
ATOM     25  C   UNL     1       0.003  -2.786   0.007  0.00  0.00    -0.030 A 
ATOM     26  C   UNL     1      -0.012  -2.112   1.214  0.00  0.00    +0.005 A 
ATOM     27  C   UNL     1      -0.047  -0.731   1.234  0.00  0.00    +0.003 A 
ENDBRANCH  20  25
ENDBRANCH   1  20
TORSDOF 7
