REMARK  Name = ZINC12596702
REMARK  7 active torsions:
REMARK  status: ('A' for Active; 'I' for Inactive)
REMARK    1  A    between atoms: C_1  and  C_2
REMARK    2  A    between atoms: C_4  and  C_8
REMARK    3  A    between atoms: C_5  and  C_7
REMARK    4  A    between atoms: C_9  and  C_20
REMARK    5  A    between atoms: N_11  and  C_13
REMARK    6  A    between atoms: C_20  and  N_21
REMARK    7  A    between atoms: C_25  and  C_28
REMARK                            x       y       z     vdW  Elec       q    Type
REMARK                         _______ _______ _______ _____ _____    ______ ____
ROOT
ATOM      1  C   UNL     1      -1.926  -3.209  -0.215  0.00  0.00    +0.095 A 
ATOM      2  C   UNL     1      -3.267  -2.911   0.094  0.00  0.00    -0.018 A 
ATOM      3  C   UNL     1      -3.926  -4.079   0.255  0.00  0.00    +0.117 A 
ATOM      4  N   UNL     1      -3.039  -5.088   0.056  0.00  0.00    -0.236 N 
ATOM      5  N   UNL     1      -1.795  -4.519  -0.242  0.00  0.00    -0.166 NA
ENDROOT
BRANCH   1   9
ATOM      6  C   UNL     1       0.752   0.960   0.896  0.00  0.00    +0.051 C 
ATOM      7  C   UNL     1       0.343  -0.267   0.123  0.00  0.00    -0.012 A 
ATOM      8  C   UNL     1      -0.649  -1.147   0.391  0.00  0.00    +0.021 A 
ATOM      9  C   UNL     1      -0.850  -2.220  -0.472  0.00  0.00    +0.012 A 
ATOM     10  C   UNL     1      -0.033  -2.343  -1.561  0.00  0.00    -0.004 A 
ATOM     11  S   UNL     1       1.037  -0.925  -1.383  0.00  0.00    -0.098 S 
ATOM     12  C   UNL     1      -0.038  -3.399  -2.636  0.00  0.00    +0.052 C 
ENDBRANCH   1   9
BRANCH   4  13
ATOM     13  C   UNL     1      -3.321  -6.460   0.131  0.00  0.00    +0.100 A 
ATOM     14  C   UNL     1      -4.607  -6.890   0.426  0.00  0.00    +0.031 A 
ATOM     15  C   UNL     1      -4.882  -8.242   0.499  0.00  0.00    +0.002 A 
ATOM     16  C   UNL     1      -3.878  -9.167   0.278  0.00  0.00    +0.003 A 
ATOM     17  C   UNL     1      -2.596  -8.743  -0.016  0.00  0.00    +0.040 A 
ATOM     18  C   UNL     1      -2.314  -7.391  -0.097  0.00  0.00    +0.149 A 
ATOM     19  F   UNL     1      -1.062  -6.977  -0.390  0.00  0.00    -0.203 F 
ENDBRANCH   4  13
BRANCH   2  20
ATOM     20  C   UNL     1      -3.862  -1.532   0.224  0.00  0.00    -0.039 C 
BRANCH  20  21
ATOM     21  N   UNL     1      -4.026  -0.942  -1.112  0.00  0.00    +0.383 N 
ATOM     22  C   UNL     1      -5.004  -1.726  -1.875  0.00  0.00    -0.078 C 
ATOM     23  C   UNL     1      -5.119  -1.165  -3.294  0.00  0.00    -0.018 C 
ATOM     24  C   UNL     1      -5.575   0.295  -3.224  0.00  0.00    +0.009 C 
ATOM     25  C   UNL     1      -4.587   1.088  -2.364  0.00  0.00    +0.058 C 
ATOM     26  C   UNL     1      -4.492   0.443  -0.980  0.00  0.00    -0.066 C 
ATOM     27  H   UNL     1      -3.139  -0.953  -1.594  0.00  0.00    -0.081 HD
BRANCH  25  28
ATOM     28  C   UNL     1      -5.067   2.510  -2.226  0.00  0.00    +0.212 C 
ATOM     29  O   UNL     1      -5.308   2.965  -1.128  0.00  0.00    -0.276 OA
ATOM     30  N   UNL     1      -5.231   3.275  -3.323  0.00  0.00    -0.329 N 
ATOM     31  H   UNL     1      -5.039   2.911  -4.202  0.00  0.00    +0.145 HD
ATOM     32  H   UNL     1      -5.540   4.190  -3.235  0.00  0.00    +0.145 HD
ENDBRANCH  25  28
ENDBRANCH  20  21
ENDBRANCH   2  20
TORSDOF 5
