REMARK  Name = ZINC20348481
REMARK  11 active torsions:
REMARK  status: ('A' for Active; 'I' for Inactive)
REMARK    1  A    between atoms: C_1  and  C_2
REMARK    2  A    between atoms: C_3  and  C_30
REMARK    3  A    between atoms: C_4  and  C_23
REMARK    4  A    between atoms: C_6  and  C_21
REMARK    5  A    between atoms: C_7  and  S_9
REMARK    6  A    between atoms: S_9  and  C_10
REMARK    7  A    between atoms: C_10  and  C_11
REMARK    8  A    between atoms: N_13  and  C_14
REMARK    9  A    between atoms: C_30  and  O_32
REMARK   10  A    between atoms: O_32  and  C_33
REMARK   11  A    between atoms: C_33  and  C_34
REMARK                            x       y       z     vdW  Elec       q    Type
REMARK                         _______ _______ _______ _____ _____    ______ ____
ROOT
ATOM      1  C   UNL     1       9.326  -4.253   0.138  0.00  0.00    +0.061 C 
ATOM      2  C   UNL     1       9.624  -2.833  -0.270  0.00  0.00    +0.016 C 
ATOM      3  C   UNL     1      10.901  -2.429  -0.378  0.00  0.00    +0.066 C 
ATOM      4  C   UNL     1      11.254  -1.028  -0.788  0.00  0.00    +0.102 C 
ATOM      5  C   UNL     1      10.066  -0.118  -0.665  0.00  0.00    +0.069 C 
ATOM      6  C   UNL     1       8.806  -0.615  -0.539  0.00  0.00    +0.080 C 
ATOM      7  N   UNL     1       8.590  -1.975  -0.524  0.00  0.00    -0.312 N 
ATOM      8  H   UNL     1       7.582  -2.370  -0.717  0.00  0.00    +0.152 HD
ENDROOT
BRANCH   4   9
ATOM      9  C   UNL     1      11.720  -1.034  -2.221  0.00  0.00    -0.016 A 
ATOM     10  C   UNL     1      10.875  -1.477  -3.222  0.00  0.00    +0.006 A 
ATOM     11  C   UNL     1      11.303  -1.483  -4.536  0.00  0.00    +0.000 A 
ATOM     12  C   UNL     1      12.576  -1.046  -4.851  0.00  0.00    +0.001 A 
ATOM     13  C   UNL     1      13.422  -0.604  -3.852  0.00  0.00    +0.020 A 
ATOM     14  C   UNL     1      12.993  -0.593  -2.537  0.00  0.00    +0.045 A 
ATOM     15 CL   UNL     1      14.053  -0.030  -1.282  0.00  0.00    -0.083 Cl
ENDBRANCH   4   9
BRANCH   5  16
ATOM     16  C   UNL     1      10.263   1.301  -0.675  0.00  0.00    +0.098 C 
ATOM     17  N   UNL     1      10.420   2.426  -0.683  0.00  0.00    -0.191 NA
ENDBRANCH   5  16
BRANCH   3  18
ATOM     18  C   UNL     1      11.939  -3.347  -0.097  0.00  0.00    +0.338 C 
ATOM     19  O   UNL     1      11.670  -4.485   0.237  0.00  0.00    -0.245 OA
BRANCH  18  20
ATOM     20  O   UNL     1      13.228  -2.960  -0.201  0.00  0.00    -0.457 OA
BRANCH  20  21
ATOM     21  C   UNL     1      14.225  -3.939   0.098  0.00  0.00    +0.259 C 
BRANCH  21  22
ATOM     22  C   UNL     1      15.593  -3.330  -0.070  0.00  0.00    +0.006 C 
ATOM     23  C   UNL     1      16.517  -3.535   0.835  0.00  0.00    +0.007 C 
ENDBRANCH  21  22
ENDBRANCH  20  21
ENDBRANCH  18  20
ENDBRANCH   3  18
BRANCH   6  24
ATOM     24  S   UNL     1       7.440   0.490  -0.402  0.00  0.00    -0.100 S 
BRANCH  24  25
ATOM     25  C   UNL     1       6.084  -0.702  -0.275  0.00  0.00    +0.171 C 
BRANCH  25  26
ATOM     26  C   UNL     1       4.777   0.036  -0.145  0.00  0.00    +0.227 C 
ATOM     27  O   UNL     1       4.763   1.249  -0.139  0.00  0.00    -0.275 OA
ATOM     28  N   UNL     1       3.622  -0.651  -0.036  0.00  0.00    -0.285 N 
ATOM     29  H   UNL     1       3.641  -1.748   0.045  0.00  0.00    +0.155 HD
BRANCH  28  30
ATOM     30  C   UNL     1       2.399   0.031  -0.027  0.00  0.00    +0.034 A 
ATOM     31  C   UNL     1       2.247   1.194  -0.769  0.00  0.00    +0.026 A 
ATOM     32  C   UNL     1       1.040   1.865  -0.759  0.00  0.00    +0.040 A 
ATOM     33  C   UNL     1      -0.018   1.379  -0.008  0.00  0.00    +0.124 A 
ATOM     34  C   UNL     1       0.133   0.219   0.733  0.00  0.00    +0.040 A 
ATOM     35  C   UNL     1       1.338  -0.455   0.725  0.00  0.00    +0.026 A 
ATOM     36  F   UNL     1      -1.196   2.040   0.005  0.00  0.00    -0.205 F 
ENDBRANCH  28  30
ENDBRANCH  25  26
ENDBRANCH  24  25
ENDBRANCH   6  24
TORSDOF 10
