REMARK  Name = ZINC12104656
REMARK  7 active torsions:
REMARK  status: ('A' for Active; 'I' for Inactive)
REMARK    1  A    between atoms: C_4  and  C_6
REMARK    2  A    between atoms: C_6  and  C_7
REMARK    3  A    between atoms: C_7  and  C_8
REMARK    4  A    between atoms: C_11  and  S_14
REMARK    5  A    between atoms: S_14  and  C_15
REMARK    6  A    between atoms: C_15  and  C_16
REMARK    7  A    between atoms: N_21  and  C_22
REMARK                            x       y       z     vdW  Elec       q    Type
REMARK                         _______ _______ _______ _____ _____    ______ ____
ROOT
ATOM      1  C   UNL     1      -7.192   1.201   2.099  0.00  0.00    +0.231 C 
ATOM      2  O   UNL     1      -6.796   1.898   3.008  0.00  0.00    -0.274 OA
ATOM      3  N   UNL     1      -6.368   0.892   1.079  0.00  0.00    -0.239 N 
ATOM      4  C   UNL     1      -5.103   1.358   1.069  0.00  0.00    +0.306 C 
ATOM      5  O   UNL     1      -4.707   2.057   1.980  0.00  0.00    -0.252 OA
ATOM      6  N   UNL     1      -4.279   1.049   0.049  0.00  0.00    -0.294 N 
ATOM      7  H   UNL     1      -6.684   0.334   0.351  0.00  0.00    +0.159 HD
ATOM      8  H   UNL     1      -4.595   0.491  -0.679  0.00  0.00    +0.151 HD
ENDROOT
BRANCH   6   9
ATOM      9  C   UNL     1      -2.904   1.556   0.038  0.00  0.00    +0.037 C 
ATOM     10  C   UNL     1      -2.188   1.063  -1.221  0.00  0.00    +0.029 C 
ATOM     11  C   UNL     1      -0.753   1.593  -1.232  0.00  0.00    -0.008 C 
ATOM     12  C   UNL     1      -0.013   1.086   0.008  0.00  0.00    +0.007 C 
ATOM     13  C   UNL     1      -0.729   1.579   1.267  0.00  0.00    -0.008 C 
ATOM     14  C   UNL     1      -2.164   1.050   1.278  0.00  0.00    +0.029 C 
ATOM     15  C   UNL     1      -0.750   3.109   1.275  0.00  0.00    +0.007 C 
ATOM     16  C   UNL     1      -1.490   3.616   0.036  0.00  0.00    -0.008 C 
ATOM     17  C   UNL     1      -0.773   3.123  -1.223  0.00  0.00    +0.007 C 
ATOM     18  C   UNL     1      -2.925   3.086   0.047  0.00  0.00    +0.029 C 
ENDBRANCH   6   9
BRANCH   1  19
ATOM     19  C   UNL     1      -8.606   0.679   2.110  0.00  0.00    +0.173 C 
BRANCH  19  20
ATOM     20  S   UNL     1      -9.453   1.263   3.599  0.00  0.00    -0.077 S 
BRANCH  20  24
ATOM     21  C   UNL     1     -13.108  -0.101   3.600  0.00  0.00    +0.132 A 
ATOM     22  N   UNL     1     -12.113   0.628   4.192  0.00  0.00    -0.320 N 
ATOM     23  H   UNL     1     -12.162   1.115   5.029  0.00  0.00    +0.169 HD
ATOM     24  C   UNL     1     -11.036   0.526   3.359  0.00  0.00    +0.189 A 
ATOM     25  N   UNL     1     -11.404  -0.218   2.342  0.00  0.00    -0.123 NA
ATOM     26  N   UNL     1     -12.626  -0.589   2.493  0.00  0.00    -0.134 NA
BRANCH  21  27
ATOM     27  C   UNL     1     -14.504  -0.301   4.131  0.00  0.00    +0.076 C 
BRANCH  27  28
ATOM     28  C   UNL     1     -15.520   0.129   3.071  0.00  0.00    +0.011 C 
BRANCH  28  32
ATOM     29  C   UNL     1     -18.719  -1.722   3.365  0.00  0.00    +0.000 C 
ATOM     30  C   UNL     1     -18.850  -0.725   2.187  0.00  0.00    +0.000 C 
ATOM     31  C   UNL     1     -17.967   0.470   2.603  0.00  0.00    +0.003 C 
ATOM     32  C   UNL     1     -16.937  -0.074   3.609  0.00  0.00    -0.011 C 
ATOM     33  C   UNL     1     -17.231  -1.580   3.770  0.00  0.00    +0.003 C 
ENDBRANCH  28  32
ENDBRANCH  27  28
ENDBRANCH  21  27
ENDBRANCH  20  24
ENDBRANCH  19  20
ENDBRANCH   1  19
TORSDOF 7
