REMARK  Name = ZINC20326156
REMARK  2 active torsions:
REMARK  status: ('A' for Active; 'I' for Inactive)
REMARK    1  A    between atoms: C_1  and  O_2
REMARK    2  A    between atoms: O_2  and  C_3
REMARK                            x       y       z     vdW  Elec       q    Type
REMARK                         _______ _______ _______ _____ _____    ______ ____
ROOT
ATOM      1  C   UNL     1      -1.426   8.329   2.018  0.00  0.00    +0.232 A 
ATOM      2  C   UNL     1      -1.430   7.395   0.994  0.00  0.00    +0.102 A 
ATOM      3  C   UNL     1      -1.097   6.056   1.239  0.00  0.00    +0.094 A 
ATOM      4  C   UNL     1      -1.137   5.158   0.070  0.00  0.00    +0.037 A 
ATOM      5  C   UNL     1      -0.847   3.768   0.042  0.00  0.00    -0.029 A 
ATOM      6  C   UNL     1      -0.938   3.093  -1.131  0.00  0.00    -0.004 A 
ATOM      7  C   UNL     1      -1.309   3.773  -2.300  0.00  0.00    +0.126 A 
ATOM      8  N   UNL     1      -1.576   5.068  -2.271  0.00  0.00    -0.225 NA
ATOM      9  C   UNL     1      -1.502   5.752  -1.149  0.00  0.00    +0.113 A 
ATOM     10  S   UNL     1      -1.785   7.458  -0.740  0.00  0.00    -0.062 S 
ATOM     11  N   UNL     1      -1.397   3.080  -3.499  0.00  0.00    -0.315 N 
ATOM     12  C   UNL     1      -0.443   3.609  -4.483  0.00  0.00    +0.106 C 
ATOM     13  C   UNL     1      -0.465   2.733  -5.738  0.00  0.00    +0.019 C 
ATOM     14  C   UNL     1      -1.879   2.723  -6.324  0.00  0.00    +0.003 C 
ATOM     15  C   UNL     1      -2.859   2.215  -5.263  0.00  0.00    +0.019 C 
ATOM     16  C   UNL     1      -2.769   3.106  -4.022  0.00  0.00    +0.106 C 
ATOM     17  C   UNL     1      -0.654   1.617  -1.241  0.00  0.00    +0.039 C 
ATOM     18  C   UNL     1       0.141   1.132  -0.030  0.00  0.00    +0.005 C 
ATOM     19  C   UNL     1      -0.578   1.600   1.241  0.00  0.00    +0.005 C 
ATOM     20  C   UNL     1      -0.443   3.119   1.337  0.00  0.00    +0.036 C 
ATOM     21  N   UNL     1      -0.779   5.748   2.516  0.00  0.00    -0.234 NA
ATOM     22  C   UNL     1      -0.786   6.657   3.458  0.00  0.00    +0.225 A 
ATOM     23  N   UNL     1      -1.098   7.922   3.242  0.00  0.00    -0.200 NA
ENDROOT
BRANCH   1  25
ATOM     24  C   UNL     1      -1.718  10.516   2.894  0.00  0.00    +0.279 C 
ATOM     25  O   UNL     1      -1.749   9.623   1.779  0.00  0.00    -0.479 OA
ENDBRANCH   1  25
TORSDOF 1
