REMARK  Name = ZINC04322412
REMARK  4 active torsions:
REMARK  status: ('A' for Active; 'I' for Inactive)
REMARK    1  A    between atoms: C_1  and  C_2
REMARK    2  A    between atoms: C_2  and  C_3
REMARK    3  A    between atoms: C_3  and  C_5
REMARK    4  A    between atoms: C_3  and  P_6
REMARK                            x       y       z     vdW  Elec       q    Type
REMARK                         _______ _______ _______ _____ _____    ______ ____
ROOT
ATOM      1  P   UNL     1       0.799  -0.758   1.510  0.00  0.00    +0.106 P 
ATOM      2  S   UNL     1       0.305  -2.479   2.026  0.00  0.00    -0.026 S 
ATOM      3  O   UNL     1       2.428  -0.597   1.413  0.00  0.00    -0.337 OA
ATOM      4  C   UNL     1       2.957   0.420   2.258  0.00  0.00    +0.160 C 
ATOM      5  C   UNL     1       4.431   0.042   2.573  0.00  0.00    +0.199 C 
ATOM      6  S   UNL     1       4.354  -0.666   4.238  0.00  0.00    -0.027 S 
ATOM      7  O   UNL     1       5.120   0.130   5.131  0.00  0.00    -0.174 OA
ATOM      8  O   UNL     1       4.611  -2.061   4.148  0.00  0.00    -0.174 OA
ATOM      9  C   UNL     1       2.563  -0.407   4.590  0.00  0.00    +0.183 C 
ATOM     10  C   UNL     1       2.257   0.751   3.606  0.00  0.00    +0.105 C 
ATOM     11  S   UNL     1       0.466   0.677   3.086  0.00  0.00    -0.093 S 
ENDROOT
BRANCH   1  12
ATOM     12  C   UNL     1      -0.022  -0.262  -0.040  0.00  0.00    +0.052 C 
ATOM     13  C   UNL     1       0.403   1.161  -0.409  0.00  0.00    +0.016 C 
BRANCH  12  15
ATOM     14  C   UNL     1      -2.229  -0.032  -1.188  0.00  0.00    +0.004 C 
ATOM     15  C   UNL     1      -1.539  -0.308   0.149  0.00  0.00    +0.008 C 
ENDBRANCH  12  15
ENDBRANCH   1  12
TORSDOF 2
