REMARK  Name = ZINC09344212
REMARK  6 active torsions:
REMARK  status: ('A' for Active; 'I' for Inactive)
REMARK    1  A    between atoms: C_4  and  C_7
REMARK    2  A    between atoms: C_7  and  C_8
REMARK    3  A    between atoms: C_7  and  C_14
REMARK    4  A    between atoms: N_16  and  C_17
REMARK    5  A    between atoms: C_25  and  C_26
REMARK    6  A    between atoms: N_28  and  C_29
REMARK                            x       y       z     vdW  Elec       q    Type
REMARK                         _______ _______ _______ _____ _____    ______ ____
ROOT
ATOM      1  C   UNL     1      -3.120  -2.162   1.074  0.00  0.00    +0.092 A 
ATOM      2  C   UNL     1      -3.361  -0.867   1.721  0.00  0.00    +0.042 A 
ATOM      3  C   UNL     1      -2.570   0.008   2.467  0.00  0.00    +0.013 A 
ATOM      4  C   UNL     1      -3.108   1.170   2.943  0.00  0.00    +0.001 A 
ATOM      5  C   UNL     1      -4.436   1.486   2.689  0.00  0.00    +0.004 A 
ATOM      6  C   UNL     1      -5.233   0.635   1.954  0.00  0.00    +0.047 A 
ATOM      7  C   UNL     1      -4.706  -0.553   1.460  0.00  0.00    +0.138 A 
ATOM      8  O   UNL     1      -5.228  -1.555   0.724  0.00  0.00    -0.448 OA
ATOM      9  C   UNL     1      -4.306  -2.516   0.491  0.00  0.00    +0.212 A 
ENDROOT
BRANCH   1  12
ATOM     10  C   UNL     1      -0.751  -2.232   1.003  0.00  0.00    +0.229 C 
ATOM     11  O   UNL     1      -0.722  -1.022   1.068  0.00  0.00    -0.274 OA
ATOM     12  N   UNL     1      -1.931  -2.882   1.057  0.00  0.00    -0.281 N 
ATOM     13  H   UNL     1      -1.950  -3.851   1.083  0.00  0.00    +0.155 HD
BRANCH  10  14
ATOM     14  C   UNL     1       0.532  -3.011   0.863  0.00  0.00    +0.135 C 
BRANCH  14  18
ATOM     15  C   UNL     1       0.435  -5.276  -2.757  0.00  0.00    +0.000 A 
ATOM     16  C   UNL     1       0.788  -5.887  -1.569  0.00  0.00    +0.000 A 
ATOM     17  C   UNL     1       0.820  -5.154  -0.397  0.00  0.00    +0.005 A 
ATOM     18  C   UNL     1       0.498  -3.810  -0.414  0.00  0.00    -0.031 A 
ATOM     19  C   UNL     1       0.139  -3.200  -1.601  0.00  0.00    +0.005 A 
ATOM     20  C   UNL     1       0.113  -3.931  -2.774  0.00  0.00    +0.000 A 
ENDBRANCH  14  18
BRANCH  14  21
ATOM     21  C   UNL     1       1.697  -2.056   0.828  0.00  0.00    -0.031 A 
ATOM     22  C   UNL     1       1.775  -1.097  -0.165  0.00  0.00    +0.005 A 
ATOM     23  C   UNL     1       2.842  -0.218  -0.195  0.00  0.00    +0.000 A 
ATOM     24  C   UNL     1       3.836  -0.305   0.762  0.00  0.00    +0.000 A 
ATOM     25  C   UNL     1       3.760  -1.267   1.752  0.00  0.00    +0.000 A 
ATOM     26  C   UNL     1       2.691  -2.142   1.785  0.00  0.00    +0.005 A 
ENDBRANCH  14  21
ENDBRANCH  10  14
ENDBRANCH   1  12
BRANCH   9  27
ATOM     27  C   UNL     1      -4.539  -3.740  -0.272  0.00  0.00    +0.285 C 
ATOM     28  O   UNL     1      -3.665  -4.585  -0.349  0.00  0.00    -0.266 OA
ATOM     29  N   UNL     1      -5.721  -3.936  -0.889  0.00  0.00    -0.279 N 
ATOM     30  H   UNL     1      -6.441  -3.297  -0.770  0.00  0.00    +0.155 HD
BRANCH  29  31
ATOM     31  C   UNL     1      -5.910  -5.061  -1.696  0.00  0.00    +0.036 A 
ATOM     32  C   UNL     1      -7.158  -5.669  -1.761  0.00  0.00    +0.023 A 
ATOM     33  C   UNL     1      -7.343  -6.780  -2.560  0.00  0.00    +0.005 A 
ATOM     34  C   UNL     1      -6.289  -7.289  -3.295  0.00  0.00    +0.038 A 
ATOM     35  C   UNL     1      -5.044  -6.687  -3.234  0.00  0.00    +0.125 A 
ATOM     36  C   UNL     1      -4.854  -5.570  -2.439  0.00  0.00    +0.061 A 
ATOM     37  F   UNL     1      -4.016  -7.186  -3.954  0.00  0.00    -0.205 F 
ENDBRANCH  29  31
ENDBRANCH   9  27
TORSDOF 6
