REMARK  Name = ZINC22819749
REMARK  7 active torsions:
REMARK  status: ('A' for Active; 'I' for Inactive)
REMARK    1  A    between atoms: C_1  and  C_2
REMARK    2  A    between atoms: C_5  and  C_9
REMARK    3  A    between atoms: C_12  and  C_14
REMARK    4  A    between atoms: C_15  and  C_16
REMARK    5  A    between atoms: N_18  and  C_19
REMARK    6  A    between atoms: C_19  and  N_21
REMARK    7  A    between atoms: C_27  and  N_31
REMARK                            x       y       z     vdW  Elec       q    Type
REMARK                         _______ _______ _______ _____ _____    ______ ____
ROOT
ATOM      1  C   UNL     1       0.110  -8.355  -3.840  0.00  0.00    +0.242 C 
ATOM      2  O   UNL     1       0.125  -9.485  -3.387  0.00  0.00    -0.270 OA
ATOM      3  N   UNL     1       0.107  -8.163  -5.174  0.00  0.00    -0.264 N 
ATOM      4  H   UNL     1       0.096  -7.263  -5.535  0.00  0.00    +0.157 HD
ENDROOT
BRANCH   1   6
ATOM      5  C   UNL     1       0.099  -7.437  -1.622  0.00  0.00    +0.051 C 
ATOM      6  C   UNL     1       0.096  -7.244  -2.967  0.00  0.00    +0.071 C 
BRANCH   5  10
ATOM      7  C   UNL     1       0.059  -4.250  -0.023  0.00  0.00    +0.136 A 
ATOM      8  C   UNL     1       0.070  -5.061   1.090  0.00  0.00    +0.050 A 
ATOM      9  C   UNL     1       0.086  -6.381   0.633  0.00  0.00    +0.050 A 
ATOM     10  C   UNL     1       0.085  -6.326  -0.749  0.00  0.00    +0.129 A 
ATOM     11  O   UNL     1       0.064  -5.028  -1.119  0.00  0.00    -0.455 OA
BRANCH   7  16
ATOM     12  C   UNL     1      -0.018   1.503   0.010  0.00  0.00    +0.045 C 
ATOM     13  C   UNL     1       0.002  -0.004   0.002  0.00  0.00    -0.032 A 
ATOM     14  C   UNL     1       0.006  -0.686  -1.202  0.00  0.00    +0.005 A 
ATOM     15  C   UNL     1       0.024  -2.065  -1.217  0.00  0.00    +0.012 A 
ATOM     16  C   UNL     1       0.040  -2.774  -0.014  0.00  0.00    +0.019 A 
ATOM     17  C   UNL     1       0.036  -2.080   1.198  0.00  0.00    +0.031 A 
ATOM     18  C   UNL     1       0.023  -0.700   1.199  0.00  0.00    +0.045 A 
ATOM     19 CL   UNL     1       0.025   0.166   2.704  0.00  0.00    -0.083 Cl
ENDBRANCH   7  16
ENDBRANCH   5  10
ENDBRANCH   1   6
BRANCH   3  20
ATOM     20  C   UNL     1       0.120  -9.223  -6.007  0.00  0.00    +0.143 C 
ATOM     21  S   UNL     1       0.141 -10.812  -5.370  0.00  0.00    -0.018 S 
BRANCH  20  22
ATOM     22  N   UNL     1       0.117  -9.031  -7.341  0.00  0.00    -0.276 N 
ATOM     23  C   UNL     1       0.131 -10.120  -8.196  0.00  0.00    +0.165 A 
ATOM     24  N   UNL     1       0.142 -11.399  -7.901  0.00  0.00    -0.225 NA
ATOM     25  C   UNL     1       0.154 -12.362  -8.848  0.00  0.00    +0.080 A 
ATOM     26  C   UNL     1       0.167 -13.764  -8.667  0.00  0.00    +0.031 A 
ATOM     27  C   UNL     1       0.179 -14.610  -9.745  0.00  0.00    +0.035 A 
ATOM     28  C   UNL     1       0.180 -14.126 -11.046  0.00  0.00    +0.127 A 
ATOM     29  C   UNL     1       0.168 -12.760 -11.260  0.00  0.00    +0.050 A 
ATOM     30  C   UNL     1       0.155 -11.906 -10.186  0.00  0.00    +0.043 A 
ATOM     31  S   UNL     1       0.131 -10.141  -9.984  0.00  0.00    -0.052 S 
ATOM     32  H   UNL     1       0.106  -8.131  -7.702  0.00  0.00    +0.156 HD
BRANCH  28  33
ATOM     33  N   UNL     1       0.195 -15.062 -12.192  0.00  0.00    +0.056 N 
ATOM     34  O   UNL     1       0.206 -16.256 -11.997  0.00  0.00    -0.126 OA
ATOM     35  O   UNL     1       0.196 -14.634 -13.322  0.00  0.00    -0.126 OA
ENDBRANCH  28  33
ENDBRANCH  20  22
ENDBRANCH   3  20
TORSDOF 6
