REMARK  Name = ZINC06190706
REMARK  10 active torsions:
REMARK  status: ('A' for Active; 'I' for Inactive)
REMARK    1  A    between atoms: C_1  and  C_2
REMARK    2  A    between atoms: C_2  and  C_3
REMARK    3  A    between atoms: C_2  and  C_4
REMARK    4  A    between atoms: C_4  and  C_6
REMARK    5  A    between atoms: C_4  and  N_18
REMARK    6  A    between atoms: N_8  and  N_9
REMARK    7  A    between atoms: C_10  and  C_11
REMARK    8  A    between atoms: C_19  and  C_21
REMARK    9  A    between atoms: C_21  and  C_22
REMARK   10  A    between atoms: C_21  and  C_28
REMARK                            x       y       z     vdW  Elec       q    Type
REMARK                         _______ _______ _______ _____ _____    ______ ____
ROOT
ATOM      1  C   UNL     1      -0.893   1.377   2.489  0.00  0.00    +0.163 C 
ENDROOT
BRANCH   1   2
ATOM      2  C   UNL     1      -0.917  -0.091   2.149  0.00  0.00    +0.253 C 
ATOM      3  O   UNL     1      -1.200  -0.906   3.001  0.00  0.00    -0.272 OA
ATOM      4  N   UNL     1      -0.623  -0.498   0.898  0.00  0.00    -0.205 N 
ATOM      5  H   UNL     1      -0.469   0.156   0.199  0.00  0.00    +0.177 HD
BRANCH   4   6
ATOM      6  N   UNL     1      -0.539  -1.866   0.608  0.00  0.00    -0.188 NA
ATOM      7  C   UNL     1      -0.256  -2.258  -0.596  0.00  0.00    +0.138 C 
BRANCH   7   8
ATOM      8  C   UNL     1      -0.169  -3.698  -0.901  0.00  0.00    -0.004 A 
ATOM      9  C   UNL     1       0.136  -4.124  -2.197  0.00  0.00    +0.009 A 
ATOM     10  C   UNL     1       0.217  -5.472  -2.475  0.00  0.00    +0.002 A 
ATOM     11  C   UNL     1      -0.003  -6.403  -1.476  0.00  0.00    +0.015 A 
ATOM     12  C   UNL     1      -0.305  -5.989  -0.190  0.00  0.00    +0.018 A 
ATOM     13  C   UNL     1      -0.384  -4.643   0.104  0.00  0.00    +0.024 A 
ATOM     14 BR   UNL     1      -0.602  -7.271   1.169  0.00  0.00    -0.050 Br
ENDBRANCH   7   8
ENDBRANCH   4   6
ENDBRANCH   1   2
BRANCH   1  15
ATOM     15  N   UNL     1      -0.637   1.543   3.921  0.00  0.00    -0.303 N 
ATOM     16  C   UNL     1      -0.082   2.682   4.380  0.00  0.00    +0.225 C 
ATOM     17  O   UNL     1       0.206   3.571   3.605  0.00  0.00    -0.275 OA
ATOM     18  H   UNL     1      -0.866   0.832   4.541  0.00  0.00    +0.149 HD
BRANCH  16  19
ATOM     19  C   UNL     1       0.182   2.853   5.853  0.00  0.00    +0.135 C 
BRANCH  19  20
ATOM     20  C   UNL     1       0.802   4.204   6.100  0.00  0.00    -0.031 A 
ATOM     21  C   UNL     1       0.189   5.344   5.617  0.00  0.00    +0.005 A 
ATOM     22  C   UNL     1       0.755   6.584   5.848  0.00  0.00    +0.000 A 
ATOM     23  C   UNL     1       1.940   6.683   6.552  0.00  0.00    +0.000 A 
ATOM     24  C   UNL     1       2.557   5.542   7.030  0.00  0.00    +0.000 A 
ATOM     25  C   UNL     1       1.988   4.302   6.804  0.00  0.00    +0.005 A 
ENDBRANCH  19  20
BRANCH  19  26
ATOM     26  C   UNL     1      -1.116   2.750   6.611  0.00  0.00    -0.031 A 
ATOM     27  C   UNL     1      -2.207   3.503   6.219  0.00  0.00    +0.005 A 
ATOM     28  C   UNL     1      -3.400   3.405   6.911  0.00  0.00    +0.000 A 
ATOM     29  C   UNL     1      -3.498   2.562   8.002  0.00  0.00    +0.000 A 
ATOM     30  C   UNL     1      -2.406   1.813   8.398  0.00  0.00    +0.000 A 
ATOM     31  C   UNL     1      -1.215   1.907   7.702  0.00  0.00    +0.005 A 
ENDBRANCH  19  26
ENDBRANCH  16  19
ENDBRANCH   1  15
BRANCH   1  33
ATOM     32  C   UNL     1      -2.188   3.511   2.391  0.00  0.00    +0.009 C 
ATOM     33  C   UNL     1      -2.244   2.004   2.137  0.00  0.00    +0.012 C 
ATOM     34  C   UNL     1      -3.338   1.380   3.006  0.00  0.00    +0.009 C 
ENDBRANCH   1  33
TORSDOF 8
