REMARK  Name = ZINC36350889
REMARK  8 active torsions:
REMARK  status: ('A' for Active; 'I' for Inactive)
REMARK    1  A    between atoms: C_1  and  C_2
REMARK    2  A    between atoms: C_8  and  N_10
REMARK    3  A    between atoms: C_11  and  C_13
REMARK    4  A    between atoms: C_15  and  S_20
REMARK    5  A    between atoms: S_20  and  N_23
REMARK    6  A    between atoms: N_23  and  C_24
REMARK    7  A    between atoms: C_24  and  C_25
REMARK    8  A    between atoms: C_24  and  C_26
REMARK                            x       y       z     vdW  Elec       q    Type
REMARK                         _______ _______ _______ _____ _____    ______ ____
ROOT
ATOM      1  C   UNL     1       0.046   0.570   4.818  0.00  0.00    +0.057 A 
ATOM      2  C   UNL     1      -1.315   0.879   4.775  0.00  0.00    +0.043 A 
ATOM      3  C   UNL     1      -1.954   1.323   5.913  0.00  0.00    +0.106 A 
ATOM      4  C   UNL     1      -1.251   1.463   7.097  0.00  0.00    +0.030 A 
ATOM      5  C   UNL     1       0.097   1.159   7.148  0.00  0.00    +0.022 A 
ATOM      6  C   UNL     1       0.750   0.707   6.017  0.00  0.00    +0.053 A 
ATOM      7 CL   UNL     1       2.440   0.319   6.084  0.00  0.00    -0.083 Cl
ENDROOT
BRANCH   1   9
ATOM      8  N   UNL     1       0.056  -0.038   2.447  0.00  0.00    -0.308 N 
ATOM      9  C   UNL     1       0.738   0.093   3.602  0.00  0.00    +0.246 C 
ATOM     10  O   UNL     1       1.922  -0.180   3.644  0.00  0.00    -0.270 OA
ATOM     11  H   UNL     1      -0.888   0.180   2.413  0.00  0.00    +0.149 HD
BRANCH   8  18
ATOM     12  C   UNL     1      -0.019   1.526   0.010  0.00  0.00    +0.009 C 
ATOM     13  C   UNL     1       0.002  -0.004   0.002  0.00  0.00    +0.006 C 
ATOM     14  C   UNL     1      -1.433  -0.534   0.013  0.00  0.00    +0.005 C 
ATOM     15  C   UNL     1      -1.413  -2.063   0.004  0.00  0.00    +0.000 C 
ATOM     16  C   UNL     1      -0.673  -2.570   1.244  0.00  0.00    +0.002 C 
ATOM     17  C   UNL     1       0.763  -2.041   1.233  0.00  0.00    +0.022 C 
ATOM     18  C   UNL     1       0.742  -0.511   1.242  0.00  0.00    +0.076 C 
ENDBRANCH   8  18
ENDBRANCH   1   9
BRANCH   3  19
ATOM     19  S   UNL     1      -3.671   1.714   5.860  0.00  0.00    +0.059 S 
ATOM     20  O   UNL     1      -3.913   2.627   6.921  0.00  0.00    -0.153 OA
ATOM     21  O   UNL     1      -3.977   2.020   4.507  0.00  0.00    -0.153 OA
BRANCH  19  22
ATOM     22  N   UNL     1      -4.500   0.328   6.230  0.00  0.00    -0.187 NA
ATOM     23  H   UNL     1      -5.070  -0.088   5.565  0.00  0.00    +0.148 HD
BRANCH  22  24
ATOM     24  C   UNL     1      -4.374  -0.267   7.563  0.00  0.00    +0.070 C 
ATOM     25  C   UNL     1      -5.520   0.221   8.451  0.00  0.00    +0.025 C 
ATOM     26  C   UNL     1      -4.431  -1.792   7.447  0.00  0.00    +0.025 C 
ENDBRANCH  22  24
ENDBRANCH  19  22
ENDBRANCH   3  19
TORSDOF 5
