REMARK  Name = ZINC09409205
REMARK  10 active torsions:
REMARK  status: ('A' for Active; 'I' for Inactive)
REMARK    1  A    between atoms: C_1  and  O_2
REMARK    2  A    between atoms: O_2  and  C_3
REMARK    3  A    between atoms: C_5  and  C_11
REMARK    4  A    between atoms: C_8  and  O_9
REMARK    5  A    between atoms: C_14  and  C_26
REMARK    6  A    between atoms: N_21  and  C_22
REMARK    7  A    between atoms: C_22  and  C_23
REMARK    8  A    between atoms: C_23  and  C_24
REMARK    9  A    between atoms: C_24  and  O_25
REMARK   10  A    between atoms: C_31  and  O_32
REMARK                            x       y       z     vdW  Elec       q    Type
REMARK                         _______ _______ _______ _____ _____    ______ ____
ROOT
ATOM      1  C   UNL     1       2.461   0.293   4.184  0.00  0.00    +0.141 C 
ATOM      2  C   UNL     1       3.961   0.273   4.084  0.00  0.00    +0.035 A 
ATOM      3  C   UNL     1       5.096   0.568   3.321  0.00  0.00    +0.102 A 
ATOM      4  N   UNL     1       6.150   0.204   4.024  0.00  0.00    -0.173 NA
ATOM      5  N   UNL     1       5.793  -0.291   5.156  0.00  0.00    -0.272 N 
ATOM      6  H   UNL     1       6.401  -0.624   5.835  0.00  0.00    +0.189 HD
ATOM      7  C   UNL     1       4.431  -0.279   5.260  0.00  0.00    +0.126 A 
ATOM      8  C   UNL     1       3.283  -0.613   6.110  0.00  0.00    +0.265 C 
ATOM      9  O   UNL     1       3.360  -1.115   7.215  0.00  0.00    -0.268 OA
ATOM     10  N   UNL     1       2.132  -0.283   5.495  0.00  0.00    -0.285 N 
ENDROOT
BRANCH   1  13
ATOM     11  C   UNL     1       1.482  -2.680   2.068  0.00  0.00    +0.163 A 
ATOM     12  C   UNL     1       2.037  -1.911   3.079  0.00  0.00    +0.055 A 
ATOM     13  C   UNL     1       1.856  -0.541   3.084  0.00  0.00    -0.018 A 
ATOM     14  C   UNL     1       1.120   0.066   2.084  0.00  0.00    +0.025 A 
ATOM     15  C   UNL     1       0.563  -0.695   1.072  0.00  0.00    +0.063 A 
ATOM     16  C   UNL     1       0.746  -2.069   1.058  0.00  0.00    +0.173 A 
ATOM     17 BR   UNL     1      -0.444   0.139  -0.294  0.00  0.00    -0.046 Br
BRANCH  11  19
ATOM     18  C   UNL     1       2.425  -4.587   3.131  0.00  0.00    +0.277 C 
ATOM     19  O   UNL     1       1.659  -4.028   2.062  0.00  0.00    -0.491 OA
ENDBRANCH  11  19
BRANCH  16  20
ATOM     20  O   UNL     1       0.204  -2.819   0.061  0.00  0.00    -0.503 OA
ATOM     21  H   UNL     1      -0.691  -3.135   0.249  0.00  0.00    +0.292 HD
ENDBRANCH  16  20
ENDBRANCH   1  13
BRANCH   3  22
ATOM     22  C   UNL     1       5.111   1.177   1.968  0.00  0.00    +0.044 A 
ATOM     23  C   UNL     1       3.927   1.633   1.393  0.00  0.00    +0.014 A 
ATOM     24  C   UNL     1       3.946   2.199   0.134  0.00  0.00    +0.001 A 
ATOM     25  C   UNL     1       5.138   2.316  -0.559  0.00  0.00    +0.004 A 
ATOM     26  C   UNL     1       6.318   1.867   0.002  0.00  0.00    +0.046 A 
ATOM     27  C   UNL     1       6.314   1.302   1.267  0.00  0.00    +0.126 A 
BRANCH  27  28
ATOM     28  O   UNL     1       7.475   0.866   1.823  0.00  0.00    -0.506 OA
ATOM     29  H   UNL     1       7.684  -0.057   1.624  0.00  0.00    +0.292 HD
ENDBRANCH  27  28
ENDBRANCH   3  22
BRANCH  10  30
ATOM     30  C   UNL     1       0.783  -0.468   6.037  0.00  0.00    +0.111 C 
BRANCH  30  31
ATOM     31  C   UNL     1       0.256  -1.846   5.633  0.00  0.00    +0.047 C 
BRANCH  31  32
ATOM     32  C   UNL     1      -1.152  -2.039   6.200  0.00  0.00    +0.157 C 
BRANCH  32  33
ATOM     33  O   UNL     1      -1.645  -3.326   5.823  0.00  0.00    -0.395 OA
ATOM     34  H   UNL     1      -2.535  -3.518   6.148  0.00  0.00    +0.209 HD
ENDBRANCH  32  33
ENDBRANCH  31  32
ENDBRANCH  30  31
ENDBRANCH  10  30
TORSDOF 9
