REMARK  Name = ZINC20552820
REMARK  10 active torsions:
REMARK  status: ('A' for Active; 'I' for Inactive)
REMARK    1  A    between atoms: C_1  and  C_2
REMARK    2  A    between atoms: C_2  and  C_3
REMARK    3  A    between atoms: C_3  and  C_4
REMARK    4  A    between atoms: C_4  and  N_5
REMARK    5  A    between atoms: N_5  and  C_6
REMARK    6  A    between atoms: N_5  and  C_7
REMARK    7  A    between atoms: C_7  and  C_9
REMARK    8  A    between atoms: C_7  and  C_10
REMARK    9  A    between atoms: N_12  and  C_13
REMARK   10  A    between atoms: C_14  and  N_21
REMARK                            x       y       z     vdW  Elec       q    Type
REMARK                         _______ _______ _______ _____ _____    ______ ____
ROOT
ATOM      1  C   UNL     1      -1.717   2.012  -0.354  0.00  0.00    +0.203 C 
ATOM      2  O   UNL     1      -1.970   3.199  -0.369  0.00  0.00    -0.277 OA
ATOM      3  N   UNL     1      -2.029   1.243  -1.416  0.00  0.00    -0.284 N 
ATOM      4  H   UNL     1      -1.728   0.185  -1.436  0.00  0.00    +0.155 HD
ENDROOT
BRANCH   3   5
ATOM      5  C   UNL     1      -2.739   1.791  -2.494  0.00  0.00    +0.073 A 
ATOM      6  C   UNL     1      -4.133   1.785  -2.489  0.00  0.00    +0.049 A 
ATOM      7  C   UNL     1      -4.830   2.332  -3.557  0.00  0.00    +0.044 A 
ATOM      8  C   UNL     1      -4.141   2.873  -4.628  0.00  0.00    +0.044 A 
ATOM      9  C   UNL     1      -2.757   2.875  -4.635  0.00  0.00    +0.042 A 
ATOM     10  C   UNL     1      -2.055   2.335  -3.572  0.00  0.00    +0.065 A 
ATOM     11 CL   UNL     1      -0.319   2.340  -3.586  0.00  0.00    -0.082 Cl
ATOM     12 CL   UNL     1      -5.015   3.551  -5.966  0.00  0.00    -0.083 Cl
BRANCH   6  13
ATOM     13  N   UNL     1      -4.828   1.233  -1.408  0.00  0.00    -0.356 N 
ATOM     14  H   UNL     1      -5.928   1.228  -1.405  0.00  0.00    +0.142 HD
ATOM     15  H   UNL     1      -4.275   0.802  -0.560  0.00  0.00    +0.142 HD
ENDBRANCH   6  13
ENDBRANCH   3   5
BRANCH   1  16
ATOM     16  C   UNL     1      -1.055   1.399   0.853  0.00  0.00    +0.016 C 
ATOM     17  C   UNL     1      -1.962   0.314   1.436  0.00  0.00    -0.004 C 
BRANCH  16  18
ATOM     18  N   UNL     1      -0.821   2.438   1.864  0.00  0.00    +0.385 N 
ATOM     19  C   UNL     1      -2.091   2.957   2.389  0.00  0.00    -0.095 C 
ATOM     20  H   UNL     1      -0.291   3.270   1.378  0.00  0.00    -0.081 HD
BRANCH  18  21
ATOM     21  C   UNL     1       0.030   1.933   2.950  0.00  0.00    -0.078 C 
BRANCH  21  22
ATOM     22  C   UNL     1       0.456   3.097   3.847  0.00  0.00    -0.019 C 
BRANCH  22  24
ATOM     23  C   UNL     1       1.768   3.736   5.875  0.00  0.00    +0.004 C 
ATOM     24  C   UNL     1       1.343   2.572   4.978  0.00  0.00    -0.005 C 
ENDBRANCH  22  24
ENDBRANCH  21  22
ENDBRANCH  18  21
ENDBRANCH  16  18
ENDBRANCH   1  16
TORSDOF 7
