REMARK  Name = ZINC36559955
REMARK  17 active torsions:
REMARK  status: ('A' for Active; 'I' for Inactive)
REMARK    1  A    between atoms: C_1  and  C_2
REMARK    2  A    between atoms: C_2  and  C_3
REMARK    3  A    between atoms: C_3  and  N_4
REMARK    4  A    between atoms: N_4  and  C_5
REMARK    5  A    between atoms: C_5  and  C_7
REMARK    6  A    between atoms: C_5  and  C_16
REMARK    7  A    between atoms: C_8  and  O_15
REMARK    8  A    between atoms: C_10  and  O_14
REMARK    9  A    between atoms: C_12  and  O_13
REMARK   10  A    between atoms: N_18  and  C_19
REMARK   11  A    between atoms: C_19  and  C_20
REMARK   12  A    between atoms: C_19  and  C_21
REMARK   13  A    between atoms: C_19  and  C_22
REMARK   14  A    between atoms: C_23  and  C_25
REMARK   15  A    between atoms: C_31  and  O_33
REMARK   16  A    between atoms: O_33  and  C_34
REMARK   17  A    between atoms: C_34  and  C_35
REMARK                            x       y       z     vdW  Elec       q    Type
REMARK                         _______ _______ _______ _____ _____    ______ ____
ROOT
ATOM      1  N   UNL     1       0.906  -2.755  -1.355  0.00  0.00    -0.284 N 
ATOM      2  C   UNL     1       1.984  -3.412  -0.884  0.00  0.00    +0.237 C 
ATOM      3  O   UNL     1       1.861  -4.523  -0.415  0.00  0.00    -0.274 OA
ENDROOT
BRANCH   2   4
ATOM      4  C   UNL     1       3.344  -2.765  -0.941  0.00  0.00    +0.165 C 
ATOM      5  C   UNL     1       3.944  -2.927  -2.353  0.00  0.00    +0.033 C 
ATOM      6  C   UNL     1       5.446  -3.188  -2.065  0.00  0.00    +0.021 C 
ATOM      7  C   UNL     1       5.373  -4.021  -0.762  0.00  0.00    +0.112 C 
ATOM      8  N   UNL     1       4.255  -3.431   0.003  0.00  0.00    -0.256 N 
ATOM      9  C   UNL     1       4.094  -3.492   1.339  0.00  0.00    +0.404 C 
ATOM     10  O   UNL     1       3.130  -2.966   1.860  0.00  0.00    -0.226 OA
BRANCH   9  11
ATOM     11  O   UNL     1       5.001  -4.135   2.098  0.00  0.00    -0.445 OA
BRANCH  11  12
ATOM     12  C   UNL     1       4.768  -4.160   3.507  0.00  0.00    +0.269 C 
BRANCH  12  13
ATOM     13  C   UNL     1       5.879  -4.917   4.188  0.00  0.00    -0.010 A 
ATOM     14  C   UNL     1       5.771  -6.283   4.374  0.00  0.00    +0.007 A 
ATOM     15  C   UNL     1       6.791  -6.977   4.997  0.00  0.00    +0.000 A 
ATOM     16  C   UNL     1       7.918  -6.307   5.435  0.00  0.00    +0.000 A 
ATOM     17  C   UNL     1       8.026  -4.941   5.248  0.00  0.00    +0.000 A 
ATOM     18  C   UNL     1       7.008  -4.247   4.620  0.00  0.00    +0.007 A 
ENDBRANCH  12  13
ENDBRANCH  11  12
ENDBRANCH   9  11
ENDBRANCH   2   4
BRANCH   1  19
ATOM     19  C   UNL     1       1.050  -1.398  -1.888  0.00  0.00    +0.108 C 
BRANCH  19  21
ATOM     20  C   UNL     1       1.199   1.021  -1.280  0.00  0.00    +0.005 C 
ATOM     21  C   UNL     1       0.921  -0.386  -0.748  0.00  0.00    +0.016 C 
ENDBRANCH  19  21
ENDBRANCH   1  19
BRANCH   1  22
ATOM     22  C   UNL     1      -0.410  -3.398  -1.334  0.00  0.00    +0.199 C 
BRANCH  22  23
ATOM     23  C   UNL     1      -0.653  -4.089  -2.651  0.00  0.00    +0.065 A 
ATOM     24  C   UNL     1      -1.948  -4.266  -3.113  0.00  0.00    +0.129 A 
ATOM     25  C   UNL     1      -2.171  -4.901  -4.325  0.00  0.00    +0.091 A 
ATOM     26  C   UNL     1      -1.099  -5.360  -5.075  0.00  0.00    +0.124 A 
ATOM     27  C   UNL     1       0.197  -5.183  -4.614  0.00  0.00    +0.091 A 
ATOM     28  C   UNL     1       0.420  -4.543  -3.404  0.00  0.00    +0.129 A 
BRANCH  28  29
ATOM     29  O   UNL     1       1.690  -4.365  -2.954  0.00  0.00    -0.506 OA
ATOM     30  H   UNL     1       1.981  -5.036  -2.321  0.00  0.00    +0.292 HD
ENDBRANCH  28  29
BRANCH  26  31
ATOM     31  O   UNL     1      -1.317  -5.984  -6.263  0.00  0.00    -0.507 OA
ATOM     32  H   UNL     1      -1.339  -5.387  -7.023  0.00  0.00    +0.292 HD
ENDBRANCH  26  31
BRANCH  24  33
ATOM     33  O   UNL     1      -2.999  -3.816  -2.378  0.00  0.00    -0.506 OA
ATOM     34  H   UNL     1      -3.310  -2.937  -2.634  0.00  0.00    +0.292 HD
ENDBRANCH  24  33
ENDBRANCH  22  23
BRANCH  22  35
ATOM     35  C   UNL     1      -0.457  -4.411  -0.219  0.00  0.00    +0.239 C 
ATOM     36  O   UNL     1       0.003  -4.136   0.869  0.00  0.00    -0.273 OA
ATOM     37  N   UNL     1      -1.008  -5.622  -0.432  0.00  0.00    -0.309 N 
ATOM     38  H   UNL     1      -1.298  -5.874  -1.323  0.00  0.00    +0.149 HD
BRANCH  37  39
ATOM     39  C   UNL     1      -1.171  -6.559   0.683  0.00  0.00    +0.026 C 
ATOM     40  C   UNL     1      -2.065  -5.928   1.752  0.00  0.00    +0.031 C 
ATOM     41  C   UNL     1      -1.817  -7.849   0.174  0.00  0.00    +0.031 C 
ATOM     42  C   UNL     1       0.199  -6.877   1.286  0.00  0.00    +0.031 C 
ENDBRANCH  37  39
ENDBRANCH  22  35
ENDBRANCH   1  22
TORSDOF 13
