REMARK  Name = ZINC24733811
REMARK  9 active torsions:
REMARK  status: ('A' for Active; 'I' for Inactive)
REMARK    1  A    between atoms: C_4  and  C_7
REMARK    2  A    between atoms: C_7  and  C_8
REMARK    3  A    between atoms: C_8  and  C_10
REMARK    4  A    between atoms: C_8  and  N_16
REMARK    5  A    between atoms: N_16  and  C_17
REMARK    6  A    between atoms: C_17  and  C_18
REMARK    7  A    between atoms: C_18  and  C_19
REMARK    8  A    between atoms: N_21  and  C_22
REMARK    9  A    between atoms: C_23  and  C_27
REMARK                            x       y       z     vdW  Elec       q    Type
REMARK                         _______ _______ _______ _____ _____    ______ ____
ROOT
ATOM      1  N   UNL     1       4.452   0.319   2.059  0.00  0.00    +0.384 N 
ATOM      2  H   UNL     1       5.233   0.767   1.605  0.00  0.00    -0.085 HD
ATOM      3  H   UNL     1       3.639   0.914   1.997  0.00  0.00    -0.085 HD
ENDROOT
BRANCH   1   4
ATOM      4  C   UNL     1       4.171  -0.963   1.399  0.00  0.00    -0.037 C 
BRANCH   4   5
ATOM      5  C   UNL     1       5.422  -1.804   1.383  0.00  0.00    -0.061 A 
ATOM      6  C   UNL     1       6.648  -1.216   1.138  0.00  0.00    +0.002 A 
ATOM      7  C   UNL     1       7.795  -1.987   1.124  0.00  0.00    +0.000 A 
ATOM      8  C   UNL     1       7.715  -3.348   1.355  0.00  0.00    +0.000 A 
ATOM      9  C   UNL     1       6.489  -3.937   1.602  0.00  0.00    +0.000 A 
ATOM     10  C   UNL     1       5.343  -3.164   1.620  0.00  0.00    +0.002 A 
ENDBRANCH   4   5
BRANCH   4  11
ATOM     11  C   UNL     1       3.711  -0.707  -0.038  0.00  0.00    +0.024 C 
BRANCH  11  15
ATOM     12  C   UNL     1      -0.017   1.378   0.010  0.00  0.00    +0.000 A 
ATOM     13  C   UNL     1       1.171   2.086   0.002  0.00  0.00    +0.000 A 
ATOM     14  C   UNL     1       2.377   1.411  -0.013  0.00  0.00    +0.003 A 
ATOM     15  C   UNL     1       2.396   0.029  -0.020  0.00  0.00    -0.049 A 
ATOM     16  C   UNL     1       1.208  -0.679  -0.012  0.00  0.00    +0.003 A 
ATOM     17  C   UNL     1       0.002  -0.004   0.002  0.00  0.00    +0.000 A 
ENDBRANCH  11  15
ENDBRANCH   4  11
ENDBRANCH   1   4
BRANCH   1  18
ATOM     18  C   UNL     1       4.778   0.081   3.472  0.00  0.00    -0.073 C 
BRANCH  18  19
ATOM     19  C   UNL     1       5.070   1.416   4.159  0.00  0.00    +0.077 C 
BRANCH  19  20
ATOM     20  C   UNL     1       5.404   1.172   5.608  0.00  0.00    +0.216 C 
ATOM     21  O   UNL     1       5.409   0.042   6.048  0.00  0.00    -0.276 OA
ATOM     22  N   UNL     1       5.699   2.210   6.416  0.00  0.00    -0.279 N 
ATOM     23  H   UNL     1       5.695   3.114   6.065  0.00  0.00    +0.155 HD
BRANCH  22  24
ATOM     24  C   UNL     1       6.007   1.986   7.751  0.00  0.00    +0.089 A 
ATOM     25  C   UNL     1       6.326   2.923   8.721  0.00  0.00    +0.080 A 
ATOM     26  C   UNL     1       6.606   2.415  10.044  0.00  0.00    +0.028 A 
ATOM     27  C   UNL     1       6.525   1.078  10.188  0.00  0.00    +0.048 A 
ATOM     28  S   UNL     1       6.071   0.518   8.561  0.00  0.00    -0.081 S 
BRANCH  25  29
ATOM     29  C   UNL     1       6.376   4.323   8.427  0.00  0.00    +0.102 C 
ATOM     30  N   UNL     1       6.416   5.434   8.193  0.00  0.00    -0.191 NA
ENDBRANCH  25  29
ENDBRANCH  22  24
ENDBRANCH  19  20
ENDBRANCH  18  19
ENDBRANCH   1  18
TORSDOF 9
