REMARK  Name = ZINC00713621
REMARK  8 active torsions:
REMARK  status: ('A' for Active; 'I' for Inactive)
REMARK    1  A    between atoms: C_1  and  C_2
REMARK    2  A    between atoms: C_4  and  C_27
REMARK    3  A    between atoms: C_6  and  S_8
REMARK    4  A    between atoms: S_8  and  C_9
REMARK    5  A    between atoms: C_9  and  C_11
REMARK    6  A    between atoms: C_9  and  C_12
REMARK    7  A    between atoms: N_14  and  N_15
REMARK    8  A    between atoms: C_16  and  C_17
REMARK                            x       y       z     vdW  Elec       q    Type
REMARK                         _______ _______ _______ _____ _____    ______ ____
ROOT
ATOM      1  C   UNL     1      -0.724   2.012   1.250  0.00  0.00    +0.245 C 
ATOM      2  O   UNL     1      -0.080   2.389   2.206  0.00  0.00    -0.273 OA
ATOM      3  N   UNL     1      -2.071   2.027   1.297  0.00  0.00    -0.206 N 
ATOM      4  H   UNL     1      -2.586   1.725   0.533  0.00  0.00    +0.177 HD
ENDROOT
BRANCH   1   5
ATOM      5  C   UNL     1      -0.019   1.526   0.010  0.00  0.00    +0.139 C 
ATOM      6  C   UNL     1       0.002  -0.004   0.002  0.00  0.00    +0.029 C 
BRANCH   5   7
ATOM      7  S   UNL     1       1.679   2.152  -0.002  0.00  0.00    -0.074 S 
BRANCH   7  13
ATOM      8  C   UNL     1       0.750  -0.326  -4.382  0.00  0.00    +0.066 C 
ATOM      9  C   UNL     1       1.720   0.450  -3.530  0.00  0.00    +0.043 A 
ATOM     10  C   UNL     1       3.004   0.707  -3.985  0.00  0.00    +0.046 A 
ATOM     11  C   UNL     1       3.865   1.425  -3.170  0.00  0.00    +0.043 A 
ATOM     12  N   UNL     1       3.439   1.841  -1.989  0.00  0.00    -0.227 NA
ATOM     13  C   UNL     1       2.205   1.579  -1.583  0.00  0.00    +0.189 A 
ATOM     14  N   UNL     1       1.359   0.890  -2.336  0.00  0.00    -0.227 NA
ATOM     15  C   UNL     1       5.270   1.728  -3.624  0.00  0.00    +0.066 C 
ENDBRANCH   7  13
ENDBRANCH   5   7
ENDBRANCH   1   5
BRANCH   3  16
ATOM     16  N   UNL     1      -2.727   2.479   2.450  0.00  0.00    -0.188 NA
ATOM     17  C   UNL     1      -4.024   2.493   2.495  0.00  0.00    +0.139 C 
BRANCH  17  18
ATOM     18  C   UNL     1      -4.714   2.968   3.708  0.00  0.00    +0.012 A 
ATOM     19  C   UNL     1      -6.110   2.990   3.757  0.00  0.00    +0.060 A 
ATOM     20  C   UNL     1      -6.753   3.431   4.897  0.00  0.00    +0.167 A 
ATOM     21  C   UNL     1      -6.008   3.865   5.995  0.00  0.00    +0.167 A 
ATOM     22  C   UNL     1      -4.622   3.849   5.944  0.00  0.00    +0.065 A 
ATOM     23  C   UNL     1      -3.973   3.404   4.810  0.00  0.00    +0.030 A 
ATOM     24 BR   UNL     1      -2.083   3.385   4.748  0.00  0.00    -0.050 Br
ATOM     25  O   UNL     1      -6.870   4.250   6.980  0.00  0.00    -0.453 OA
ATOM     26  C   UNL     1      -8.139   3.666   6.633  0.00  0.00    +0.466 C 
ATOM     27  O   UNL     1      -8.080   3.546   5.199  0.00  0.00    -0.453 OA
ENDBRANCH  17  18
ENDBRANCH   3  16
TORSDOF 5
