REMARK  Name = ZINC55893973
REMARK  6 active torsions:
REMARK  status: ('A' for Active; 'I' for Inactive)
REMARK    1  A    between atoms: C_3  and  N_11
REMARK    2  A    between atoms: N_11  and  C_12
REMARK    3  A    between atoms: C_12  and  C_13
REMARK    4  A    between atoms: N_18  and  C_19
REMARK    5  A    between atoms: C_19  and  C_20
REMARK    6  A    between atoms: C_20  and  C_21
REMARK                            x       y       z     vdW  Elec       q    Type
REMARK                         _______ _______ _______ _____ _____    ______ ____
ROOT
ATOM      1  C   UNL     1       4.971   4.125  -0.027  0.00  0.00    +0.237 C 
ATOM      2  O   UNL     1       5.905   3.353  -0.041  0.00  0.00    -0.274 OA
ATOM      3  N   UNL     1       5.195   5.454  -0.023  0.00  0.00    -0.239 N 
ATOM      4  C   UNL     1       6.458   5.924  -0.034  0.00  0.00    +0.306 C 
ATOM      5  O   UNL     1       7.395   5.150  -0.048  0.00  0.00    -0.252 OA
ATOM      6  N   UNL     1       6.683   7.253  -0.029  0.00  0.00    -0.299 N 
ATOM      7  H   UNL     1       4.448   6.072  -0.011  0.00  0.00    +0.159 HD
ATOM      8  H   UNL     1       5.935   7.871  -0.018  0.00  0.00    +0.150 HD
ENDROOT
BRANCH   1   9
ATOM      9  C   UNL     1       3.558   3.599  -0.015  0.00  0.00    +0.198 C 
BRANCH   9  10
ATOM     10  N   UNL     1       3.583   2.135  -0.023  0.00  0.00    -0.332 N 
ATOM     11  H   UNL     1       4.430   1.663  -0.035  0.00  0.00    +0.147 HD
BRANCH  10  14
ATOM     12  C   UNL     1      -0.017   1.377   0.010  0.00  0.00    +0.006 A 
ATOM     13  C   UNL     1       1.169   2.088   0.002  0.00  0.00    +0.027 A 
ATOM     14  C   UNL     1       2.382   1.415  -0.014  0.00  0.00    +0.073 A 
ATOM     15  C   UNL     1       2.404   0.022  -0.023  0.00  0.00    +0.183 A 
ATOM     16  C   UNL     1       1.212  -0.686  -0.013  0.00  0.00    +0.164 A 
ATOM     17  C   UNL     1       0.002  -0.004   0.002  0.00  0.00    +0.049 A 
ATOM     18  O   UNL     1       1.210  -2.048  -0.012  0.00  0.00    -0.485 OA
ATOM     19  C   UNL     1       2.427  -2.693  -0.403  0.00  0.00    +0.270 C 
ATOM     20  C   UNL     1       3.590  -2.010   0.329  0.00  0.00    +0.270 C 
ATOM     21  O   UNL     1       3.602  -0.627  -0.043  0.00  0.00    -0.483 OA
ENDBRANCH  10  14
ENDBRANCH   9  10
ENDBRANCH   1   9
BRANCH   6  22
ATOM     22  C   UNL     1       8.056   7.764  -0.041  0.00  0.00    +0.111 C 
BRANCH  22  23
ATOM     23  C   UNL     1       8.031   9.294  -0.032  0.00  0.00    +0.061 C 
BRANCH  23  24
ATOM     24  C   UNL     1       9.443   9.819  -0.044  0.00  0.00    -0.009 A 
ATOM     25  C   UNL     1      10.230  10.128  -1.104  0.00  0.00    +0.011 A 
ATOM     26  C   UNL     1      11.508  10.601  -0.875  0.00  0.00    +0.008 A 
ATOM     27  C   UNL     1      11.937  10.742   0.404  0.00  0.00    +0.045 A 
ATOM     28  S   UNL     1      10.511  10.205   1.333  0.00  0.00    -0.102 S 
ENDBRANCH  23  24
ENDBRANCH  22  23
ENDBRANCH   6  22
TORSDOF 6
