REMARK  Name = ZINC21243582
REMARK  7 active torsions:
REMARK  status: ('A' for Active; 'I' for Inactive)
REMARK    1  A    between atoms: C_1  and  C_2
REMARK    2  A    between atoms: C_5  and  C_8
REMARK    3  A    between atoms: C_9  and  C_32
REMARK    4  A    between atoms: C_17  and  C_19
REMARK    5  A    between atoms: C_19  and  S_20
REMARK    6  A    between atoms: S_20  and  C_21
REMARK    7  A    between atoms: N_25  and  C_26
REMARK                            x       y       z     vdW  Elec       q    Type
REMARK                         _______ _______ _______ _____ _____    ______ ____
ROOT
ATOM      1  C   UNL     1       0.060  -4.255  -0.021  0.00  0.00    +0.007 A 
ATOM      2  C   UNL     1      -0.988  -4.956  -0.517  0.00  0.00    -0.003 A 
ATOM      3  S   UNL     1      -0.486  -6.653  -0.304  0.00  0.00    -0.073 S 
ATOM      4  C   UNL     1       1.102  -6.384   0.439  0.00  0.00    +0.116 A 
ATOM      5  C   UNL     1       1.209  -4.985   0.499  0.00  0.00    +0.080 A 
ATOM      6  C   UNL     1       2.424  -4.480   1.063  0.00  0.00    +0.260 A 
ATOM      7  O   UNL     1       2.607  -3.279   1.162  0.00  0.00    -0.267 OA
ATOM      8  N   UNL     1       3.360  -5.351   1.484  0.00  0.00    -0.310 N 
ATOM      9  H   UNL     1       4.184  -5.014   1.868  0.00  0.00    +0.170 HD
ATOM     10  C   UNL     1       3.171  -6.692   1.383  0.00  0.00    +0.121 A 
ATOM     11  N   UNL     1       2.070  -7.183   0.881  0.00  0.00    -0.226 NA
ATOM     12  C   UNL     1      -2.270  -4.428  -1.108  0.00  0.00    +0.052 C 
ENDROOT
BRANCH   1  17
ATOM     13  C   UNL     1      -0.018   1.503   0.010  0.00  0.00    +0.044 C 
ATOM     14  C   UNL     1       0.002  -0.004   0.002  0.00  0.00    -0.050 A 
ATOM     15  C   UNL     1       0.006  -0.686  -1.201  0.00  0.00    +0.004 A 
ATOM     16  C   UNL     1       0.024  -2.066  -1.215  0.00  0.00    +0.009 A 
ATOM     17  C   UNL     1       0.040  -2.772  -0.013  0.00  0.00    -0.016 A 
ATOM     18  C   UNL     1       0.037  -2.079   1.196  0.00  0.00    +0.009 A 
ATOM     19  C   UNL     1       0.023  -0.699   1.198  0.00  0.00    +0.004 A 
ENDBRANCH   1  17
BRANCH  10  20
ATOM     20  C   UNL     1       4.247  -7.629   1.867  0.00  0.00    +0.151 C 
BRANCH  20  21
ATOM     21  S   UNL     1       3.718  -9.344   1.605  0.00  0.00    -0.076 S 
BRANCH  21  22
ATOM     22  C   UNL     1       5.064 -10.304   2.214  0.00  0.00    +0.214 A 
ATOM     23  N   UNL     1       6.179  -9.843   2.738  0.00  0.00    -0.101 NA
ATOM     24  N   UNL     1       6.949 -10.812   3.081  0.00  0.00    -0.022 NA
ATOM     25  N   UNL     1       6.397 -11.944   2.807  0.00  0.00    -0.038 NA
ATOM     26  N   UNL     1       5.145 -11.658   2.236  0.00  0.00    -0.187 N 
BRANCH  26  27
ATOM     27  C   UNL     1       4.186 -12.576   1.784  0.00  0.00    +0.070 A 
ATOM     28  C   UNL     1       2.833 -12.292   1.918  0.00  0.00    +0.028 A 
ATOM     29  C   UNL     1       1.891 -13.197   1.472  0.00  0.00    +0.002 A 
ATOM     30  C   UNL     1       2.293 -14.387   0.892  0.00  0.00    +0.000 A 
ATOM     31  C   UNL     1       3.639 -14.673   0.757  0.00  0.00    +0.002 A 
ATOM     32  C   UNL     1       4.586 -13.768   1.196  0.00  0.00    +0.028 A 
ENDBRANCH  26  27
ENDBRANCH  21  22
ENDBRANCH  20  21
ENDBRANCH  10  20
TORSDOF 5
