REMARK  Name = ZINC22915335
REMARK  5 active torsions:
REMARK  status: ('A' for Active; 'I' for Inactive)
REMARK    1  A    between atoms: C_6  and  C_7
REMARK    2  A    between atoms: C_13  and  C_15
REMARK    3  A    between atoms: C_15  and  N_16
REMARK    4  A    between atoms: N_19  and  C_22
REMARK    5  A    between atoms: C_22  and  C_23
REMARK                            x       y       z     vdW  Elec       q    Type
REMARK                         _______ _______ _______ _____ _____    ______ ____
ROOT
ATOM      1  C   UNL     1      -2.876   0.525  -2.973  0.00  0.00    +0.180 C 
ENDROOT
BRANCH   1   7
ATOM      2  C   UNL     1      -0.767  -1.234  -0.242  0.00  0.00    +0.106 C 
ATOM      3  C   UNL     1      -1.252  -1.322   1.221  0.00  0.00    +0.029 C 
ATOM      4  C   UNL     1      -2.786  -1.129   1.091  0.00  0.00    +0.021 C 
ATOM      5  C   UNL     1      -2.873  -0.111  -0.074  0.00  0.00    +0.108 C 
ATOM      6  N   UNL     1      -1.792  -0.504  -1.001  0.00  0.00    -0.293 N 
ATOM      7  C   UNL     1      -1.750  -0.237  -2.322  0.00  0.00    +0.230 C 
ATOM      8  O   UNL     1      -0.807  -0.610  -2.986  0.00  0.00    -0.274 OA
BRANCH   2  14
ATOM      9  C   UNL     1       0.558   0.887  -0.222  0.00  0.00    +0.009 A 
ATOM     10  C   UNL     1       1.758   1.572  -0.280  0.00  0.00    +0.050 A 
ATOM     11  C   UNL     1       2.949   0.876  -0.420  0.00  0.00    +0.162 A 
ATOM     12  C   UNL     1       2.933  -0.512  -0.500  0.00  0.00    +0.162 A 
ATOM     13  C   UNL     1       1.726  -1.192  -0.442  0.00  0.00    +0.055 A 
ATOM     14  C   UNL     1       0.543  -0.492  -0.304  0.00  0.00    -0.023 A 
ATOM     15  O   UNL     1       4.091  -1.215  -0.630  0.00  0.00    -0.485 OA
ATOM     16  C   UNL     1       5.245  -0.483  -1.058  0.00  0.00    +0.270 C 
ATOM     17  C   UNL     1       5.319   0.815  -0.243  0.00  0.00    +0.270 C 
ATOM     18  O   UNL     1       4.122   1.563  -0.480  0.00  0.00    -0.485 OA
ENDBRANCH   2  14
ENDBRANCH   1   7
BRANCH   1  19
ATOM     19  N   UNL     1      -2.594   0.685  -4.406  0.00  0.00    -0.292 NA
ATOM     20  C   UNL     1      -1.423   1.547  -4.619  0.00  0.00    +0.100 C 
ATOM     21  C   UNL     1      -1.116   1.624  -6.117  0.00  0.00    +0.100 C 
ATOM     22  N   UNL     1      -2.290   2.149  -6.828  0.00  0.00    -0.294 NA
ATOM     23  C   UNL     1      -3.461   1.287  -6.615  0.00  0.00    +0.100 C 
ATOM     24  C   UNL     1      -3.768   1.210  -5.117  0.00  0.00    +0.100 C 
BRANCH  22  25
ATOM     25  C   UNL     1      -2.008   2.309  -8.261  0.00  0.00    +0.137 C 
BRANCH  25  26
ATOM     26  C   UNL     1      -1.148   3.529  -8.471  0.00  0.00    +0.037 A 
ATOM     27  C   UNL     1       0.136   3.406  -8.959  0.00  0.00    +0.093 A 
ATOM     28  C   UNL     1       0.917   4.547  -9.147  0.00  0.00    +0.259 A 
ATOM     29  O   UNL     1       2.054   4.444  -9.580  0.00  0.00    -0.267 OA
ATOM     30  N   UNL     1       0.408   5.779  -8.847  0.00  0.00    -0.264 N 
ATOM     31  C   UNL     1       1.049   6.987  -8.977  0.00  0.00    +0.104 A 
ATOM     32  C   UNL     1       0.442   8.127  -8.649  0.00  0.00    +0.067 A 
ATOM     33  S   UNL     1      -1.158   7.547  -8.107  0.00  0.00    -0.059 S 
ATOM     34  C   UNL     1      -0.875   5.809  -8.367  0.00  0.00    +0.158 A 
ATOM     35  N   UNL     1      -1.615   4.743  -8.193  0.00  0.00    -0.338 N 
ATOM     36  H   UNL     1      -2.519   4.840  -7.853  0.00  0.00    +0.168 HD
ENDBRANCH  25  26
ENDBRANCH  22  25
ENDBRANCH   1  19
TORSDOF 5
