REMARK  Name = ZINC05228703
REMARK  5 active torsions:
REMARK  status: ('A' for Active; 'I' for Inactive)
REMARK    1  A    between atoms: C_4  and  C_7
REMARK    2  A    between atoms: C_15  and  S_16
REMARK    3  A    between atoms: S_16  and  C_17
REMARK    4  A    between atoms: C_17  and  C_18
REMARK    5  A    between atoms: C_23  and  C_24
REMARK                            x       y       z     vdW  Elec       q    Type
REMARK                         _______ _______ _______ _____ _____    ______ ____
ROOT
ATOM      1  C   UNL     1       3.657   2.160  -0.023  0.00  0.00    +0.022 A 
ATOM      2  C   UNL     1       3.837   3.503  -0.018  0.00  0.00    +0.029 A 
ATOM      3  C   UNL     1       5.187   4.030  -0.028  0.00  0.00    +0.040 A 
ATOM      4  C   UNL     1       6.209   3.053  -0.042  0.00  0.00    +0.113 A 
ATOM      5  S   UNL     1       5.320   1.519  -0.035  0.00  0.00    -0.069 S 
ATOM      6  N   UNL     1       7.483   3.393  -0.053  0.00  0.00    -0.228 NA
ATOM      7  C   UNL     1       7.836   4.664  -0.050  0.00  0.00    +0.223 A 
ATOM      8  N   UNL     1       6.936   5.630  -0.037  0.00  0.00    -0.229 NA
ATOM      9  C   UNL     1       5.635   5.382  -0.026  0.00  0.00    +0.109 A 
ENDROOT
BRANCH   1  13
ATOM     10  C   UNL     1       0.002  -0.004   0.002  0.00  0.00    +0.000 A 
ATOM     11  C   UNL     1      -0.017   1.379   0.010  0.00  0.00    +0.001 A 
ATOM     12  C   UNL     1       1.167   2.088   0.002  0.00  0.00    +0.009 A 
ATOM     13  C   UNL     1       2.385   1.407  -0.014  0.00  0.00    -0.011 A 
ATOM     14  C   UNL     1       2.397   0.011  -0.021  0.00  0.00    +0.009 A 
ATOM     15  C   UNL     1       1.206  -0.686  -0.013  0.00  0.00    +0.001 A 
ENDBRANCH   1  13
BRANCH   9  16
ATOM     16  S   UNL     1       4.474   6.707  -0.008  0.00  0.00    -0.100 S 
BRANCH  16  17
ATOM     17  C   UNL     1       5.607   8.118  -0.013  0.00  0.00    +0.112 C 
BRANCH  17  18
ATOM     18  C   UNL     1       4.814   9.399   0.001  0.00  0.00    -0.020 A 
ATOM     19  C   UNL     1       4.443   9.996  -1.186  0.00  0.00    +0.006 A 
ATOM     20  C   UNL     1       3.711  11.170  -1.175  0.00  0.00    +0.000 A 
ATOM     21  C   UNL     1       3.354  11.759   0.025  0.00  0.00    +0.001 A 
ATOM     22  C   UNL     1       3.722  11.176   1.219  0.00  0.00    +0.019 A 
ATOM     23  C   UNL     1       4.457   9.989   1.216  0.00  0.00    +0.056 A 
BRANCH  23  24
ATOM     24  C   UNL     1       4.844   9.378   2.452  0.00  0.00    +0.099 C 
ATOM     25  N   UNL     1       5.150   8.894   3.433  0.00  0.00    -0.191 NA
ENDBRANCH  23  24
ENDBRANCH  17  18
ENDBRANCH  16  17
ENDBRANCH   9  16
TORSDOF 5
