REMARK  Name = ZINC67625881
REMARK  8 active torsions:
REMARK  status: ('A' for Active; 'I' for Inactive)
REMARK    1  A    between atoms: C_1  and  C_2
REMARK    2  A    between atoms: N_5  and  C_8
REMARK    3  A    between atoms: C_8  and  C_9
REMARK    4  A    between atoms: C_9  and  C_11
REMARK    5  A    between atoms: C_9  and  O_23
REMARK    6  A    between atoms: C_11  and  N_12
REMARK    7  A    between atoms: N_15  and  C_16
REMARK    8  A    between atoms: C_16  and  C_17
REMARK                            x       y       z     vdW  Elec       q    Type
REMARK                         _______ _______ _______ _____ _____    ______ ____
ROOT
ATOM      1  C   UNL     1      -0.065  -5.914   2.804  0.00  0.00    +0.135 C 
ENDROOT
BRANCH   1   2
ATOM      2  N   UNL     1       0.526  -6.331   4.079  0.00  0.00    -0.297 N 
ATOM      3  C   UNL     1       0.687  -7.641   4.351  0.00  0.00    +0.300 C 
ATOM      4  O   UNL     1       0.343  -8.477   3.538  0.00  0.00    -0.253 OA
ATOM      5  N   UNL     1       1.230  -8.024   5.523  0.00  0.00    -0.295 N 
ATOM      6  H   UNL     1       0.800  -5.664   4.727  0.00  0.00    +0.150 HD
ATOM      7  H   UNL     1       1.505  -7.357   6.171  0.00  0.00    +0.151 HD
BRANCH   5   8
ATOM      8  C   UNL     1       1.405  -9.449   5.818  0.00  0.00    +0.148 C 
BRANCH   8   9
ATOM      9  C   UNL     1       2.028  -9.606   7.182  0.00  0.00    +0.008 A 
ATOM     10  C   UNL     1       1.422  -9.729   8.388  0.00  0.00    +0.028 A 
ATOM     11  C   UNL     1       2.204  -9.863   9.520  0.00  0.00    +0.025 A 
ATOM     12  C   UNL     1       3.554  -9.869   9.390  0.00  0.00    +0.060 A 
ATOM     13  S   UNL     1       3.756  -9.687   7.626  0.00  0.00    -0.099 S 
ATOM     14 BR   UNL     1       1.403 -10.037  11.225  0.00  0.00    -0.050 Br
ENDBRANCH   8   9
ENDBRANCH   5   8
ENDBRANCH   1   2
BRANCH   1  15
ATOM     15  C   UNL     1      -0.134  -4.387   2.750  0.00  0.00    +0.115 C 
BRANCH  15  16
ATOM     16  O   UNL     1      -0.941  -3.908   3.828  0.00  0.00    -0.392 OA
ATOM     17  H   UNL     1      -1.850  -4.235   3.814  0.00  0.00    +0.210 HD
ENDBRANCH  15  16
BRANCH  15  18
ATOM     18  C   UNL     1      -0.750  -3.952   1.419  0.00  0.00    -0.046 C 
BRANCH  18  23
ATOM     19  C   UNL     1      -0.019   1.526   0.010  0.00  0.00    +0.007 C 
ATOM     20  C   UNL     1       0.002  -0.004   0.002  0.00  0.00    -0.018 C 
ATOM     21  C   UNL     1      -1.434  -0.536   0.023  0.00  0.00    -0.016 C 
ATOM     22  C   UNL     1      -1.405  -2.064   0.095  0.00  0.00    -0.078 C 
ATOM     23  N   UNL     1      -0.707  -2.487   1.315  0.00  0.00    +0.381 N 
ATOM     24  C   UNL     1       0.691  -2.042   1.269  0.00  0.00    -0.078 C 
ATOM     25  C   UNL     1       0.743  -0.513   1.242  0.00  0.00    -0.016 C 
ATOM     26  H   UNL     1      -1.162  -2.082   2.119  0.00  0.00    -0.082 HD
ENDBRANCH  18  23
ENDBRANCH  15  18
ENDBRANCH   1  15
TORSDOF 7
