REMARK  Name = ZINC04264823
REMARK  8 active torsions:
REMARK  status: ('A' for Active; 'I' for Inactive)
REMARK    1  A    between atoms: C_1  and  C_2
REMARK    2  A    between atoms: C_2  and  C_4
REMARK    3  A    between atoms: C_2  and  O_30
REMARK    4  A    between atoms: C_4  and  O_29
REMARK    5  A    between atoms: C_9  and  C_28
REMARK    6  A    between atoms: C_18  and  C_27
REMARK    7  A    between atoms: C_19  and  C_26
REMARK    8  A    between atoms: C_22  and  O_25
REMARK                            x       y       z     vdW  Elec       q    Type
REMARK                         _______ _______ _______ _____ _____    ______ ____
ROOT
ATOM      1  C   UNL     1       1.677  -0.659   0.579  0.00  0.00    +0.097 C 
ATOM      2  C   UNL     1       0.604  -0.281   1.623  0.00  0.00    +0.038 C 
ATOM      3  C   UNL     1       0.000  -1.614   2.124  0.00  0.00    +0.007 C 
ATOM      4  C   UNL     1       1.163  -2.628   1.946  0.00  0.00    +0.001 C 
ATOM      5  C   UNL     1       1.770  -2.186   0.601  0.00  0.00    +0.002 C 
ATOM      6  C   UNL     1       3.148  -2.743   0.348  0.00  0.00    +0.010 C 
ATOM      7  C   UNL     1       4.099  -2.571   1.533  0.00  0.00    +0.005 C 
ATOM      8  C   UNL     1       3.440  -3.156   2.783  0.00  0.00    -0.001 C 
ATOM      9  C   UNL     1       2.170  -2.375   3.083  0.00  0.00    -0.004 C 
ATOM     10  C   UNL     1       1.555  -2.808   4.404  0.00  0.00    +0.004 C 
ATOM     11  C   UNL     1       2.539  -2.805   5.563  0.00  0.00    +0.007 C 
ATOM     12  C   UNL     1       3.951  -2.396   5.147  0.00  0.00    -0.024 C 
ATOM     13  C   UNL     1       4.409  -3.220   3.953  0.00  0.00    -0.023 C 
ATOM     14  C   UNL     1       5.809  -2.774   3.534  0.00  0.00    +0.010 C 
ATOM     15  C   UNL     1       6.802  -2.979   4.672  0.00  0.00    +0.032 C 
ATOM     16  C   UNL     1       6.348  -2.362   5.983  0.00  0.00    +0.115 C 
ATOM     17  C   UNL     1       4.898  -2.651   6.329  0.00  0.00    +0.038 C 
ATOM     18  C   UNL     1       4.498  -4.706   4.371  0.00  0.00    +0.012 C 
ATOM     19  C   UNL     1       3.982  -0.891   4.859  0.00  0.00    +0.012 C 
ATOM     20  C   UNL     1       0.853  -2.723  -0.517  0.00  0.00    +0.014 C 
ENDROOT
BRANCH   1  22
ATOM     21  C   UNL     1       1.137   1.342  -0.822  0.00  0.00    +0.040 C 
ATOM     22  C   UNL     1       1.228  -0.185  -0.809  0.00  0.00    +0.144 C 
BRANCH  22  23
ATOM     23  O   UNL     1       2.175  -0.614  -1.789  0.00  0.00    -0.389 OA
ATOM     24  H   UNL     1       1.955  -0.349  -2.692  0.00  0.00    +0.210 HD
ENDBRANCH  22  23
ENDBRANCH   1  22
BRANCH  16  25
ATOM     25  O   UNL     1       6.614  -0.958   5.991  0.00  0.00    -0.392 OA
ATOM     26  H   UNL     1       7.549  -0.734   5.890  0.00  0.00    +0.210 HD
ENDBRANCH  16  25
BRANCH   1  27
ATOM     27  O   UNL     1       2.923  -0.052   0.913  0.00  0.00    -0.385 OA
ATOM     28  H   UNL     1       2.897   0.915   0.928  0.00  0.00    +0.210 HD
ENDBRANCH   1  27
TORSDOF 4
