REMARK  Name = ZINC59310162
REMARK  7 active torsions:
REMARK  status: ('A' for Active; 'I' for Inactive)
REMARK    1  A    between atoms: C_1  and  C_2
REMARK    2  A    between atoms: C_4  and  C_33
REMARK    3  A    between atoms: C_7  and  C_9
REMARK    4  A    between atoms: C_9  and  S_10
REMARK    5  A    between atoms: S_10  and  C_11
REMARK    6  A    between atoms: N_16  and  N_17
REMARK    7  A    between atoms: C_18  and  C_19
REMARK                            x       y       z     vdW  Elec       q    Type
REMARK                         _______ _______ _______ _____ _____    ______ ____
ROOT
ATOM      1  C   UNL     1       0.143  -4.321   5.429  0.00  0.00    +0.211 A 
ATOM      2  N   UNL     1       0.153  -5.232   6.407  0.00  0.00    -0.186 NA
ATOM      3  C   UNL     1       0.133  -4.627   7.577  0.00  0.00    +0.232 A 
ATOM      4  N   UNL     1       0.109  -3.295   7.356  0.00  0.00    -0.245 N 
ATOM      5  N   UNL     1       0.122  -3.123   5.963  0.00  0.00    -0.144 NA
ATOM      6  N   UNL     1       0.136  -5.246   8.813  0.00  0.00    -0.205 N 
ATOM      7  H   UNL     1       0.119  -4.713   9.622  0.00  0.00    +0.177 HD
ATOM      8  H   UNL     1       0.091  -2.596   8.027  0.00  0.00    +0.192 HD
ENDROOT
BRANCH   6   9
ATOM      9  N   UNL     1       0.162  -6.645   8.896  0.00  0.00    -0.188 NA
ATOM     10  C   UNL     1       0.165  -7.228  10.060  0.00  0.00    +0.139 C 
BRANCH  10  11
ATOM     11  C   UNL     1       0.193  -8.690  10.147  0.00  0.00    +0.010 A 
ATOM     12  C   UNL     1       0.311  -9.329  11.399  0.00  0.00    -0.009 A 
ATOM     13  C   UNL     1       0.406  -8.584  12.587  0.00  0.00    +0.009 A 
ATOM     14  C   UNL     1       0.519  -9.231  13.778  0.00  0.00    +0.001 A 
ATOM     15  C   UNL     1       0.545 -10.622  13.855  0.00  0.00    +0.001 A 
ATOM     16  C   UNL     1       0.459 -11.399  12.745  0.00  0.00    +0.008 A 
ATOM     17  C   UNL     1       0.338 -10.791  11.477  0.00  0.00    -0.017 A 
ATOM     18  C   UNL     1       0.246 -11.560  10.317  0.00  0.00    +0.017 A 
ATOM     19  C   UNL     1       0.129 -10.937   9.074  0.00  0.00    -0.017 A 
ATOM     20  C   UNL     1       0.095  -9.476   8.980  0.00  0.00    -0.009 A 
ATOM     21  C   UNL     1      -0.030  -8.881   7.712  0.00  0.00    +0.009 A 
ATOM     22  C   UNL     1      -0.122  -9.668   6.607  0.00  0.00    +0.001 A 
ATOM     23  C   UNL     1      -0.095 -11.059   6.694  0.00  0.00    +0.001 A 
ATOM     24  C   UNL     1       0.035 -11.695   7.887  0.00  0.00    +0.008 A 
ENDBRANCH  10  11
ENDBRANCH   6   9
BRANCH   1  25
ATOM     25  S   UNL     1       0.163  -4.673   3.703  0.00  0.00    -0.075 S 
BRANCH  25  26
ATOM     26  C   UNL     1       0.146  -3.036   2.921  0.00  0.00    +0.178 C 
BRANCH  26  33
ATOM     27  C   UNL     1       0.105   1.505   0.011  0.00  0.00    +0.067 C 
ATOM     28  C   UNL     1       0.127  -0.002   0.003  0.00  0.00    +0.061 A 
ATOM     29  C   UNL     1       0.148  -0.815  -1.140  0.00  0.00    +0.048 A 
ATOM     30  C   UNL     1       0.163  -2.103  -0.734  0.00  0.00    +0.045 A 
ATOM     31  N   UNL     1       0.151  -2.105   0.629  0.00  0.00    -0.204 N 
ATOM     32  N   UNL     1       0.135  -0.771   1.058  0.00  0.00    -0.169 NA
ATOM     33  C   UNL     1       0.161  -3.195   1.422  0.00  0.00    +0.258 C 
ATOM     34  O   UNL     1       0.180  -4.299   0.932  0.00  0.00    -0.270 OA
ATOM     35  C   UNL     1       0.188  -3.317  -1.626  0.00  0.00    +0.066 C 
ENDBRANCH  26  33
ENDBRANCH  25  26
ENDBRANCH   1  25
TORSDOF 5
