REMARK  Name = ZINC29006095
REMARK  9 active torsions:
REMARK  status: ('A' for Active; 'I' for Inactive)
REMARK    1  A    between atoms: C_1  and  C_2
REMARK    2  A    between atoms: C_2  and  N_3
REMARK    3  A    between atoms: N_3  and  C_4
REMARK    4  A    between atoms: N_3  and  C_6
REMARK    5  A    between atoms: C_4  and  C_5
REMARK    6  A    between atoms: C_6  and  C_8
REMARK    7  A    between atoms: C_6  and  C_20
REMARK    8  A    between atoms: C_8  and  N_9
REMARK    9  A    between atoms: N_9  and  C_10
REMARK                            x       y       z     vdW  Elec       q    Type
REMARK                         _______ _______ _______ _____ _____    ______ ____
ROOT
ATOM      1  C   UNL     1       0.916   3.466   1.098  0.00  0.00    +0.090 C 
ENDROOT
BRANCH   1   2
ATOM      2  N   UNL     1       1.452   2.714   2.235  0.00  0.00    -0.350 N 
ATOM      3  H   UNL     1       0.810   2.006   2.778  0.00  0.00    +0.145 HD
BRANCH   2   4
ATOM      4  C   UNL     1       2.734   2.890   2.615  0.00  0.00    +0.085 C 
ATOM      5  C   UNL     1       3.274   2.099   3.612  0.00  0.00    +0.112 C 
ATOM      6  C   UNL     1       2.526   0.965   4.184  0.00  0.00    +0.256 C 
ATOM      7  O   UNL     1       1.407   0.693   3.791  0.00  0.00    -0.270 OA
ATOM      8  N   UNL     1       3.119   0.233   5.150  0.00  0.00    -0.263 N 
ATOM      9  C   UNL     1       4.348   0.526   5.596  0.00  0.00    +0.143 C 
ATOM     10  S   UNL     1       5.017  -0.453   6.831  0.00  0.00    -0.018 S 
ATOM     11  N   UNL     1       5.082   1.544   5.127  0.00  0.00    -0.263 N 
ATOM     12  C   UNL     1       4.620   2.357   4.154  0.00  0.00    +0.256 C 
ATOM     13  O   UNL     1       5.296   3.279   3.736  0.00  0.00    -0.270 OA
ATOM     14  H   UNL     1       2.591  -0.626   5.591  0.00  0.00    +0.157 HD
ATOM     15  H   UNL     1       6.086   1.733   5.535  0.00  0.00    +0.157 HD
ENDBRANCH   2   4
ENDBRANCH   1   2
BRANCH   1  16
ATOM     16  C   UNL     1      -0.579   3.173   0.952  0.00  0.00    -0.019 C 
BRANCH  16  17
ATOM     17  C   UNL     1      -1.145   3.999  -0.174  0.00  0.00    -0.041 A 
ATOM     18  C   UNL     1      -1.442   3.404  -1.386  0.00  0.00    +0.003 A 
ATOM     19  C   UNL     1      -1.965   4.161  -2.418  0.00  0.00    +0.000 A 
ATOM     20  C   UNL     1      -2.183   5.514  -2.241  0.00  0.00    +0.001 A 
ATOM     21  C   UNL     1      -1.882   6.111  -1.032  0.00  0.00    +0.020 A 
ATOM     22  C   UNL     1      -1.363   5.353   0.003  0.00  0.00    +0.043 A 
ATOM     23 CL   UNL     1      -0.984   6.102   1.523  0.00  0.00    -0.083 Cl
ENDBRANCH  16  17
BRANCH  16  24
ATOM     24  N   UNL     1      -0.771   1.746   0.658  0.00  0.00    +0.385 N 
ATOM     25  H   UNL     1      -1.570   1.661  -0.093  0.00  0.00    -0.081 HD
BRANCH  24  27
ATOM     26  C   UNL     1       0.639   1.661  -1.342  0.00  0.00    -0.017 C 
ATOM     27  C   UNL     1       0.448   1.156   0.090  0.00  0.00    -0.081 C 
ENDBRANCH  24  27
BRANCH  24  28
ATOM     28  C   UNL     1      -1.200   1.015   1.858  0.00  0.00    -0.081 C 
ATOM     29  C   UNL     1      -2.649   1.381   2.187  0.00  0.00    -0.017 C 
ENDBRANCH  24  28
ENDBRANCH  16  24
ENDBRANCH   1  16
TORSDOF 7
