REMARK  Name = ZINC25376255
REMARK  6 active torsions:
REMARK  status: ('A' for Active; 'I' for Inactive)
REMARK    1  A    between atoms: C_3  and  S_11
REMARK    2  A    between atoms: C_6  and  S_7
REMARK    3  A    between atoms: S_7  and  N_10
REMARK    4  A    between atoms: S_11  and  N_14
REMARK    5  A    between atoms: N_14  and  C_15
REMARK    6  A    between atoms: C_20  and  C_23
REMARK                            x       y       z     vdW  Elec       q    Type
REMARK                         _______ _______ _______ _____ _____    ______ ____
ROOT
ATOM      1  S   UNL     1      -4.229   3.828   0.669  0.00  0.00    +0.059 S 
ATOM      2  O   UNL     1      -3.939   5.215   0.559  0.00  0.00    -0.153 OA
ATOM      3  O   UNL     1      -5.385   3.243   0.086  0.00  0.00    -0.153 OA
ENDROOT
BRANCH   1   6
ATOM      4  C   UNL     1      -3.677   3.980   4.646  0.00  0.00    +0.030 A 
ATOM      5  C   UNL     1      -3.625   4.267   3.295  0.00  0.00    +0.030 A 
ATOM      6  C   UNL     1      -4.294   3.462   2.392  0.00  0.00    +0.105 A 
ATOM      7  C   UNL     1      -5.019   2.374   2.840  0.00  0.00    +0.030 A 
ATOM      8  C   UNL     1      -5.067   2.084   4.191  0.00  0.00    +0.030 A 
ATOM      9  C   UNL     1      -4.397   2.888   5.094  0.00  0.00    +0.105 A 
BRANCH   9  10
ATOM     10  S   UNL     1      -4.462   2.522   6.816  0.00  0.00    +0.056 S 
ATOM     11  O   UNL     1      -4.752   1.135   6.926  0.00  0.00    -0.153 OA
ATOM     12  O   UNL     1      -3.306   3.108   7.400  0.00  0.00    -0.153 OA
BRANCH  10  13
ATOM     13  N   UNL     1      -5.767   3.329   7.439  0.00  0.00    -0.204 NA
ATOM     14  H   UNL     1      -5.843   3.126   8.518  0.00  0.00    +0.144 HD
ATOM     15  H   UNL     1      -6.684   2.988   6.936  0.00  0.00    +0.144 HD
ENDBRANCH  10  13
ENDBRANCH   9  10
ENDBRANCH   1   6
BRANCH   1  16
ATOM     16  N   UNL     1      -2.924   3.021   0.046  0.00  0.00    -0.187 NA
ATOM     17  H   UNL     1      -2.014   3.585  -0.206  0.00  0.00    +0.148 HD
BRANCH  16  18
ATOM     18  C   UNL     1      -2.904   1.556   0.038  0.00  0.00    +0.077 C 
ATOM     19  C   UNL     1      -2.164   1.050   1.278  0.00  0.00    +0.020 C 
ATOM     20  C   UNL     1      -0.729   1.579   1.267  0.00  0.00    +0.002 C 
ATOM     21  C   UNL     1      -0.013   1.086   0.008  0.00  0.00    +0.012 C 
ATOM     22  C   UNL     1      -0.753   1.593  -1.232  0.00  0.00    +0.095 C 
ATOM     23  C   UNL     1      -2.188   1.063  -1.221  0.00  0.00    +0.032 C 
BRANCH  22  24
ATOM     24  C   UNL     1      -0.037   1.099  -2.490  0.00  0.00    +0.393 C 
ATOM     25  F   UNL     1      -0.018  -0.300  -2.498  0.00  0.00    -0.170 F 
ATOM     26  F   UNL     1      -0.713   1.563  -3.624  0.00  0.00    -0.170 F 
ATOM     27  F   UNL     1       1.276   1.583  -2.500  0.00  0.00    -0.170 F 
ENDBRANCH  22  24
ENDBRANCH  16  18
ENDBRANCH   1  16
TORSDOF 6
