REMARK  Name = ZINC55389459
REMARK  6 active torsions:
REMARK  status: ('A' for Active; 'I' for Inactive)
REMARK    1  A    between atoms: C_1  and  O_2
REMARK    2  A    between atoms: O_2  and  C_3
REMARK    3  A    between atoms: C_6  and  C_9
REMARK    4  A    between atoms: N_13  and  N_14
REMARK    5  A    between atoms: C_15  and  C_16
REMARK    6  A    between atoms: C_21  and  O_22
REMARK                            x       y       z     vdW  Elec       q    Type
REMARK                         _______ _______ _______ _____ _____    ______ ____
ROOT
ATOM      1  C   UNL     1      -5.806  -3.254   0.610  0.00  0.00    +0.184 A 
ATOM      2  N   UNL     1      -7.091  -3.045   0.690  0.00  0.00    -0.152 NA
ATOM      3  N   UNL     1      -7.744  -4.265   0.469  0.00  0.00    -0.253 N 
ATOM      4  C   UNL     1      -6.796  -5.200   0.254  0.00  0.00    +0.197 A 
ATOM      5  N   UNL     1      -5.596  -4.592   0.333  0.00  0.00    -0.188 N 
ATOM      6  S   UNL     1      -7.069  -6.860  -0.067  0.00  0.00    -0.010 S 
ATOM      7  H   UNL     1      -8.703  -4.411   0.469  0.00  0.00    +0.191 HD
ENDROOT
BRANCH   1  11
ATOM      8  C   UNL     1      -2.777  -0.315   1.098  0.00  0.00    +0.120 A 
ATOM      9  C   UNL     1      -4.113   0.042   1.216  0.00  0.00    +0.046 A 
ATOM     10  C   UNL     1      -5.099  -0.908   1.058  0.00  0.00    +0.015 A 
ATOM     11  C   UNL     1      -4.752  -2.231   0.779  0.00  0.00    +0.021 A 
ATOM     12  C   UNL     1      -3.407  -2.586   0.661  0.00  0.00    +0.015 A 
ATOM     13  C   UNL     1      -2.428  -1.629   0.816  0.00  0.00    +0.046 A 
BRANCH   8  15
ATOM     14  C   UNL     1      -2.237   1.957   1.543  0.00  0.00    +0.277 C 
ATOM     15  O   UNL     1      -1.808   0.625   1.254  0.00  0.00    -0.495 OA
ENDBRANCH   8  15
ENDBRANCH   1  11
BRANCH   5  16
ATOM     16  N   UNL     1      -4.350  -5.209   0.165  0.00  0.00    -0.170 NA
ATOM     17  C   UNL     1      -4.068  -5.810  -0.952  0.00  0.00    +0.145 C 
BRANCH  17  18
ATOM     18  C   UNL     1      -4.980  -5.691  -2.103  0.00  0.00    +0.037 A 
ATOM     19  C   UNL     1      -5.851  -4.603  -2.200  0.00  0.00    +0.028 A 
ATOM     20  C   UNL     1      -6.702  -4.498  -3.280  0.00  0.00    +0.019 A 
ATOM     21  C   UNL     1      -6.697  -5.468  -4.270  0.00  0.00    +0.019 A 
ATOM     22  C   UNL     1      -5.841  -6.549  -4.185  0.00  0.00    +0.047 A 
ATOM     23  C   UNL     1      -4.975  -6.666  -3.110  0.00  0.00    +0.126 A 
ATOM     24 BR   UNL     1      -7.881  -3.025  -3.411  0.00  0.00    -0.050 Br
BRANCH  23  25
ATOM     25  O   UNL     1      -4.128  -7.725  -3.028  0.00  0.00    -0.506 OA
ATOM     26  H   UNL     1      -4.468  -8.461  -2.501  0.00  0.00    +0.292 HD
ENDBRANCH  23  25
ENDBRANCH  17  18
ENDBRANCH   5  16
TORSDOF 5
