REMARK  Name = ZINC33911033
REMARK  6 active torsions:
REMARK  status: ('A' for Active; 'I' for Inactive)
REMARK    1  A    between atoms: C_1  and  C_2
REMARK    2  A    between atoms: C_12  and  C_14
REMARK    3  A    between atoms: C_14  and  C_16
REMARK    4  A    between atoms: C_14  and  N_28
REMARK    5  A    between atoms: N_20  and  C_21
REMARK    6  A    between atoms: C_21  and  C_22
REMARK                            x       y       z     vdW  Elec       q    Type
REMARK                         _______ _______ _______ _____ _____    ______ ____
ROOT
ATOM      1  C   UNL     1       0.085  -2.864   4.922  0.00  0.00    +0.039 C 
ENDROOT
BRANCH   1  13
ATOM      2  C   UNL     1      -0.018   1.503   0.010  0.00  0.00    +0.046 C 
ATOM      3  C   UNL     1       0.002  -0.004   0.002  0.00  0.00    -0.026 A 
ATOM      4  C   UNL     1       0.006  -0.689  -1.194  0.00  0.00    +0.005 A 
ATOM      5  C   UNL     1       0.024  -2.077  -1.215  0.00  0.00    +0.001 A 
ATOM      6  C   UNL     1       0.039  -2.790  -0.050  0.00  0.00    +0.010 A 
ATOM      7  C   UNL     1       0.036  -2.116   1.175  0.00  0.00    -0.001 A 
ATOM      8  C   UNL     1       0.023  -0.709   1.201  0.00  0.00    +0.052 A 
ATOM      9  N   UNL     1       0.025  -0.049   2.412  0.00  0.00    -0.322 N 
ATOM     10  H   UNL     1       0.012   0.921   2.428  0.00  0.00    +0.169 HD
ATOM     11  C   UNL     1       0.044  -0.730   3.570  0.00  0.00    +0.251 A 
ATOM     12  O   UNL     1       0.045  -0.114   4.622  0.00  0.00    -0.268 OA
ATOM     13  C   UNL     1       0.064  -2.141   3.600  0.00  0.00    +0.011 A 
ATOM     14  C   UNL     1       0.052  -2.849   2.443  0.00  0.00    +0.017 A 
ENDBRANCH   1  13
BRANCH   1  15
ATOM     15  N   UNL     1      -1.048  -2.418   5.742  0.00  0.00    +0.390 N 
ATOM     16  C   UNL     1      -1.021  -3.116   7.033  0.00  0.00    -0.077 C 
ATOM     17  C   UNL     1      -2.152  -2.597   7.923  0.00  0.00    -0.018 C 
ATOM     18  C   UNL     1      -3.495  -2.850   7.232  0.00  0.00    +0.003 C 
ATOM     19  C   UNL     1      -3.484  -2.179   5.856  0.00  0.00    -0.044 C 
ATOM     20  C   UNL     1      -2.304  -2.714   5.042  0.00  0.00    -0.071 C 
ATOM     21  C   UNL     1      -3.341  -0.666   6.029  0.00  0.00    +0.005 C 
ATOM     22  C   UNL     1      -4.519  -0.133   6.847  0.00  0.00    +0.000 C 
ATOM     23  C   UNL     1      -5.828  -0.442   6.117  0.00  0.00    +0.000 C 
ATOM     24  C   UNL     1      -5.971  -1.956   5.944  0.00  0.00    +0.000 C 
ATOM     25  C   UNL     1      -4.792  -2.489   5.127  0.00  0.00    +0.005 C 
ATOM     26  H   UNL     1      -0.978  -1.423   5.899  0.00  0.00    -0.080 HD
ENDBRANCH   1  15
BRANCH   1  27
ATOM     27  C   UNL     1       1.375  -2.561   5.639  0.00  0.00    +0.143 A 
ATOM     28  N   UNL     1       1.685  -1.446   6.255  0.00  0.00    -0.115 NA
ATOM     29  N   UNL     1       2.871  -1.577   6.742  0.00  0.00    -0.023 NA
ATOM     30  N   UNL     1       3.326  -2.745   6.452  0.00  0.00    -0.044 NA
ATOM     31  N   UNL     1       2.431  -3.385   5.778  0.00  0.00    -0.228 N 
BRANCH  31  32
ATOM     32  C   UNL     1       2.544  -4.750   5.257  0.00  0.00    +0.178 C 
BRANCH  32  33
ATOM     33  C   UNL     1       3.144  -4.711   3.850  0.00  0.00    +0.140 C 
ATOM     34  C   UNL     1       3.357  -6.150   3.316  0.00  0.00    +0.035 C 
ATOM     35  C   UNL     1       3.322  -5.903   1.783  0.00  0.00    +0.031 C 
ATOM     36  C   UNL     1       2.298  -4.755   1.659  0.00  0.00    +0.160 C 
ATOM     37  O   UNL     1       2.224  -4.099   2.932  0.00  0.00    -0.375 OA
ENDBRANCH  32  33
ENDBRANCH  31  32
ENDBRANCH   1  27
TORSDOF 5
