REMARK  Name = ZINC14825963
REMARK  9 active torsions:
REMARK  status: ('A' for Active; 'I' for Inactive)
REMARK    1  A    between atoms: C_4  and  C_7
REMARK    2  A    between atoms: C_7  and  C_8
REMARK    3  A    between atoms: C_7  and  C_14
REMARK    4  A    between atoms: C_7  and  O_20
REMARK    5  A    between atoms: O_20  and  C_21
REMARK    6  A    between atoms: C_21  and  C_22
REMARK    7  A    between atoms: C_24  and  O_41
REMARK    8  A    between atoms: C_26  and  O_40
REMARK    9  A    between atoms: C_28  and  N_31
REMARK                            x       y       z     vdW  Elec       q    Type
REMARK                         _______ _______ _______ _____ _____    ______ ____
ROOT
ATOM      1  O   UNL     1      -2.299   3.687  -3.208  0.00  0.00    -0.357 OA
ENDROOT
BRANCH   1   2
ATOM      2  C   UNL     1      -1.918   3.819  -4.579  0.00  0.00    +0.144 C 
BRANCH   2   6
ATOM      3  C   UNL     1       1.398   6.496  -4.882  0.00  0.00    +0.000 A 
ATOM      4  C   UNL     1       0.119   6.995  -4.717  0.00  0.00    +0.000 A 
ATOM      5  C   UNL     1      -0.954   6.129  -4.619  0.00  0.00    +0.007 A 
ATOM      6  C   UNL     1      -0.748   4.764  -4.686  0.00  0.00    -0.007 A 
ATOM      7  C   UNL     1       0.531   4.264  -4.846  0.00  0.00    +0.007 A 
ATOM      8  C   UNL     1       1.603   5.131  -4.949  0.00  0.00    +0.000 A 
ENDBRANCH   2   6
BRANCH   2   9
ATOM      9  C   UNL     1      -1.525   2.470  -5.123  0.00  0.00    -0.007 A 
ATOM     10  C   UNL     1      -0.823   2.381  -6.311  0.00  0.00    +0.007 A 
ATOM     11  C   UNL     1      -0.459   1.144  -6.807  0.00  0.00    +0.000 A 
ATOM     12  C   UNL     1      -0.806  -0.005  -6.123  0.00  0.00    +0.000 A 
ATOM     13  C   UNL     1      -1.513   0.083  -4.938  0.00  0.00    +0.000 A 
ATOM     14  C   UNL     1      -1.873   1.321  -4.438  0.00  0.00    +0.007 A 
ENDBRANCH   2   9
BRANCH   2  15
ATOM     15  C   UNL     1      -3.077   4.364  -5.373  0.00  0.00    -0.007 A 
ATOM     16  C   UNL     1      -2.844   5.145  -6.489  0.00  0.00    +0.007 A 
ATOM     17  C   UNL     1      -3.908   5.640  -7.220  0.00  0.00    +0.000 A 
ATOM     18  C   UNL     1      -5.204   5.363  -6.829  0.00  0.00    +0.000 A 
ATOM     19  C   UNL     1      -5.437   4.586  -5.709  0.00  0.00    +0.000 A 
ATOM     20  C   UNL     1      -4.374   4.086  -4.981  0.00  0.00    +0.007 A 
ENDBRANCH   2  15
ENDBRANCH   1   2
BRANCH   1  21
ATOM     21  C   UNL     1      -1.266   3.176  -2.364  0.00  0.00    +0.196 C 
BRANCH  21  22
ATOM     22  C   UNL     1      -1.783   3.077  -0.927  0.00  0.00    +0.178 C 
ATOM     23  C   UNL     1      -0.646   2.645   0.034  0.00  0.00    +0.178 C 
ATOM     24  C   UNL     1      -1.435   2.002   1.200  0.00  0.00    +0.195 C 
ATOM     25  C   UNL     1      -2.801   1.647   0.583  0.00  0.00    +0.255 C 
ATOM     26  O   UNL     1      -2.750   2.012  -0.807  0.00  0.00    -0.346 OA
BRANCH  25  27
ATOM     27  N   UNL     1      -3.864   2.396   1.258  0.00  0.00    -0.271 N 
ATOM     28  C   UNL     1      -4.647   3.257   0.540  0.00  0.00    +0.098 A 
ATOM     29  C   UNL     1      -5.627   3.947   1.163  0.00  0.00    +0.088 A 
ATOM     30  C   UNL     1      -5.822   3.763   2.553  0.00  0.00    +0.254 A 
ATOM     31  O   UNL     1      -6.699   4.375   3.137  0.00  0.00    -0.268 OA
ATOM     32  N   UNL     1      -5.029   2.905   3.225  0.00  0.00    -0.275 N 
ATOM     33  H   UNL     1      -5.158   2.772   4.207  0.00  0.00    +0.173 HD
ATOM     34  C   UNL     1      -4.063   2.226   2.578  0.00  0.00    +0.331 A 
ATOM     35  O   UNL     1      -3.358   1.452   3.196  0.00  0.00    -0.246 OA
ENDBRANCH  25  27
BRANCH  24  36
ATOM     36  O   UNL     1      -1.598   2.935   2.271  0.00  0.00    -0.385 OA
ATOM     37  H   UNL     1      -0.769   3.193   2.697  0.00  0.00    +0.210 HD
ENDBRANCH  24  36
BRANCH  23  38
ATOM     38  O   UNL     1       0.212   1.687  -0.590  0.00  0.00    -0.386 OA
ATOM     39  H   UNL     1       0.885   1.319  -0.001  0.00  0.00    +0.210 HD
ENDBRANCH  23  38
ENDBRANCH  21  22
ENDBRANCH   1  21
TORSDOF 9
