REMARK  Name = ZINC63162810
REMARK  2 active torsions:
REMARK  status: ('A' for Active; 'I' for Inactive)
REMARK    1  A    between atoms: C_5  and  C_7
REMARK    2  A    between atoms: C_24  and  C_26
REMARK                            x       y       z     vdW  Elec       q    Type
REMARK                         _______ _______ _______ _____ _____    ______ ____
ROOT
ATOM      1  C   UNL     1       1.143  -2.015   0.048  0.00  0.00    +0.218 C 
ATOM      2  C   UNL     1       1.438  -2.598   1.429  0.00  0.00    +0.113 C 
ATOM      3  C   UNL     1       1.349  -4.106   1.259  0.00  0.00    +0.065 C 
ATOM      4  C   UNL     1       0.201  -4.618   0.503  0.00  0.00    +0.039 A 
ATOM      5  C   UNL     1      -0.179  -5.958   0.570  0.00  0.00    +0.013 A 
ATOM      6  C   UNL     1      -1.260  -6.397  -0.165  0.00  0.00    +0.001 A 
ATOM      7  C   UNL     1      -1.965  -5.511  -0.965  0.00  0.00    +0.004 A 
ATOM      8  C   UNL     1      -1.600  -4.181  -1.036  0.00  0.00    +0.046 A 
ATOM      9  C   UNL     1      -0.518  -3.716  -0.303  0.00  0.00    +0.130 A 
ATOM     10  O   UNL     1      -0.169  -2.409  -0.361  0.00  0.00    -0.483 OA
ATOM     11  N   UNL     1       2.292  -4.863   1.714  0.00  0.00    -0.215 NA
ATOM     12  C   UNL     1       3.446  -4.410   2.262  0.00  0.00    +0.249 A 
ATOM     13  N   UNL     1       4.465  -5.082   2.788  0.00  0.00    -0.198 NA
ATOM     14  C   UNL     1       5.413  -4.237   3.178  0.00  0.00    +0.247 A 
ATOM     15  N   UNL     1       5.032  -3.010   2.926  0.00  0.00    -0.156 NA
ATOM     16  N   UNL     1       3.757  -3.092   2.353  0.00  0.00    -0.221 N 
ATOM     17  C   UNL     1       2.801  -2.067   1.908  0.00  0.00    +0.155 C 
ENDROOT
BRANCH  17  18
ATOM     18  C   UNL     1       3.431  -1.292   0.779  0.00  0.00    -0.004 A 
ATOM     19  C   UNL     1       3.698  -1.919  -0.424  0.00  0.00    +0.008 A 
ATOM     20  C   UNL     1       4.275  -1.209  -1.460  0.00  0.00    +0.020 A 
ATOM     21  C   UNL     1       4.585   0.129  -1.294  0.00  0.00    +0.042 A 
ATOM     22  C   UNL     1       4.317   0.757  -0.091  0.00  0.00    +0.040 A 
ATOM     23  C   UNL     1       3.735   0.047   0.944  0.00  0.00    +0.048 A 
ATOM     24 CL   UNL     1       3.393   0.836   2.452  0.00  0.00    -0.083 Cl
ATOM     25 CL   UNL     1       5.310   1.020  -2.596  0.00  0.00    -0.083 Cl
ENDBRANCH  17  18
BRANCH   1  30
ATOM     26  C   UNL     1       0.995   1.528   1.343  0.00  0.00    +0.001 A 
ATOM     27  C   UNL     1       1.362   2.249   0.222  0.00  0.00    +0.003 A 
ATOM     28  C   UNL     1       1.659   1.591  -0.957  0.00  0.00    +0.039 A 
ATOM     29  C   UNL     1       1.589   0.209  -1.014  0.00  0.00    +0.130 A 
ATOM     30  C   UNL     1       1.220  -0.511   0.109  0.00  0.00    +0.029 A 
ATOM     31  C   UNL     1       0.924   0.149   1.287  0.00  0.00    +0.010 A 
ATOM     32  F   UNL     1       1.878  -0.435  -2.166  0.00  0.00    -0.205 F 
ENDBRANCH   1  30
TORSDOF 2
