REMARK  Name = ZINC09383721
REMARK  12 active torsions:
REMARK  status: ('A' for Active; 'I' for Inactive)
REMARK    1  A    between atoms: C_1  and  C_2
REMARK    2  A    between atoms: C_2  and  S_3
REMARK    3  A    between atoms: S_3  and  C_4
REMARK    4  A    between atoms: C_7  and  C_10
REMARK    5  A    between atoms: N_12  and  C_13
REMARK    6  A    between atoms: C_14  and  C_25
REMARK    7  A    between atoms: C_18  and  C_23
REMARK    8  A    between atoms: C_18  and  C_24
REMARK    9  A    between atoms: C_19  and  C_21
REMARK   10  A    between atoms: C_19  and  C_22
REMARK   11  A    between atoms: C_25  and  O_27
REMARK   12  A    between atoms: O_27  and  C_28
REMARK                            x       y       z     vdW  Elec       q    Type
REMARK                         _______ _______ _______ _____ _____    ______ ____
ROOT
ATOM      1  C   UNL     1       2.414   0.245  -0.028  0.00  0.00    +0.086 A 
ATOM      2  C   UNL     1       1.316  -0.611  -0.021  0.00  0.00    +0.091 A 
ATOM      3  C   UNL     1       0.002  -0.004   0.002  0.00  0.00    -0.024 A 
ATOM      4  C   UNL     1      -0.016   1.349   0.009  0.00  0.00    -0.016 A 
ATOM      5  S   UNL     1       1.689   1.819  -0.004  0.00  0.00    -0.079 S 
ATOM      6  C   UNL     1      -1.229   2.221   0.017  0.00  0.00    -0.041 C 
ATOM      7  C   UNL     1      -2.328   0.118   0.796  0.00  0.00    -0.069 C 
ATOM      8  C   UNL     1      -1.326  -0.749   0.024  0.00  0.00    +0.024 C 
ATOM      9  C   UNL     1      -3.703  -0.574   0.724  0.00  0.00    -0.010 C 
ATOM     10  C   UNL     1      -1.911   0.183   2.268  0.00  0.00    -0.010 C 
ATOM     11  C   UNL     1      -1.079   3.292   1.106  0.00  0.00    -0.005 C 
ATOM     12  C   UNL     1      -1.319   2.938  -1.344  0.00  0.00    -0.005 C 
ATOM     13  N   UNL     1      -2.504   1.474   0.214  0.00  0.00    +0.389 N 
ATOM     14  H   UNL     1      -2.965   1.375  -0.699  0.00  0.00    -0.084 HD
ATOM     15  H   UNL     1      -3.104   2.019   0.843  0.00  0.00    -0.084 HD
ENDROOT
BRANCH   1  18
ATOM     16  C   UNL     1       4.691   0.890  -0.051  0.00  0.00    +0.249 C 
ATOM     17  O   UNL     1       4.350   2.057  -0.035  0.00  0.00    -0.270 OA
ATOM     18  N   UNL     1       3.759  -0.084  -0.048  0.00  0.00    -0.275 N 
ATOM     19  H   UNL     1       4.030  -1.015  -0.061  0.00  0.00    +0.156 HD
BRANCH  16  23
ATOM     20  C   UNL     1       8.810  -0.118  -0.114  0.00  0.00    +0.008 A 
ATOM     21  C   UNL     1       8.421   1.220  -0.097  0.00  0.00    +0.015 A 
ATOM     22  C   UNL     1       7.091   1.548  -0.076  0.00  0.00    +0.014 A 
ATOM     23  C   UNL     1       6.122   0.539  -0.073  0.00  0.00    +0.037 A 
ATOM     24  C   UNL     1       6.515  -0.803  -0.085  0.00  0.00    +0.014 A 
ATOM     25  C   UNL     1       7.847  -1.126  -0.111  0.00  0.00    +0.015 A 
BRANCH  20  26
ATOM     26  S   UNL     1      10.521  -0.537  -0.141  0.00  0.00    -0.125 S 
BRANCH  26  28
ATOM     27  C   UNL     1      11.973  -2.854  -0.181  0.00  0.00    +0.015 C 
ATOM     28  C   UNL     1      10.529  -2.351  -0.158  0.00  0.00    +0.071 C 
ENDBRANCH  26  28
ENDBRANCH  20  26
ENDBRANCH  16  23
ENDBRANCH   1  18
BRANCH   2  29
ATOM     29  C   UNL     1       1.497  -2.064  -0.041  0.00  0.00    +0.342 C 
ATOM     30  O   UNL     1       1.559  -2.655  -1.103  0.00  0.00    -0.245 OA
BRANCH  29  31
ATOM     31  O   UNL     1       1.595  -2.747   1.118  0.00  0.00    -0.464 OA
ATOM     32  C   UNL     1       1.773  -4.185   1.022  0.00  0.00    +0.280 C 
ENDBRANCH  29  31
ENDBRANCH   2  29
TORSDOF 6
