REMARK  Name = ZINC12116810
REMARK  8 active torsions:
REMARK  status: ('A' for Active; 'I' for Inactive)
REMARK    1  A    between atoms: C_1  and  C_2
REMARK    2  A    between atoms: C_2  and  C_3
REMARK    3  A    between atoms: C_2  and  C_4
REMARK    4  A    between atoms: C_2  and  C_5
REMARK    5  A    between atoms: C_6  and  C_11
REMARK    6  A    between atoms: C_11  and  N_53
REMARK    7  A    between atoms: C_14  and  C_17
REMARK    8  A    between atoms: C_14  and  O_26
REMARK                            x       y       z     vdW  Elec       q    Type
REMARK                         _______ _______ _______ _____ _____    ______ ____
ROOT
ATOM      1  C   UNL     1       2.023  -1.003   1.098  0.00  0.00    -0.075 C 
ATOM      2  C   UNL     1       2.595  -1.885   2.210  0.00  0.00    +0.021 C 
ATOM      3  C   UNL     1       3.512  -1.042   3.101  0.00  0.00    +0.088 C 
ATOM      4  C   UNL     1       4.620  -0.426   2.243  0.00  0.00    +0.021 C 
ATOM      5  C   UNL     1       3.989   0.413   1.129  0.00  0.00    -0.075 C 
ATOM      6  N   UNL     1       3.138  -0.461   0.293  0.00  0.00    +0.383 N 
ATOM      7  H   UNL     1       3.706  -1.241  -0.058  0.00  0.00    -0.081 HD
ENDROOT
BRANCH   3   8
ATOM      8  C   UNL     1       4.126  -1.918   4.163  0.00  0.00    -0.013 A 
ATOM      9  C   UNL     1       5.327  -2.559   3.919  0.00  0.00    +0.010 A 
ATOM     10  C   UNL     1       5.894  -3.363   4.889  0.00  0.00    +0.050 A 
ATOM     11  C   UNL     1       5.260  -3.529   6.110  0.00  0.00    +0.166 A 
ATOM     12  C   UNL     1       4.051  -2.884   6.356  0.00  0.00    +0.167 A 
ATOM     13  C   UNL     1       3.491  -2.075   5.380  0.00  0.00    +0.056 A 
ATOM     14  O   UNL     1       3.634  -3.204   7.615  0.00  0.00    -0.453 OA
ATOM     15  C   UNL     1       4.798  -3.721   8.286  0.00  0.00    +0.466 C 
ATOM     16  O   UNL     1       5.601  -4.253   7.216  0.00  0.00    -0.453 OA
ENDBRANCH   3   8
BRANCH   3  17
ATOM     17  O   UNL     1       2.752  -0.002   3.720  0.00  0.00    -0.384 OA
ATOM     18  H   UNL     1       2.032  -0.321   4.280  0.00  0.00    +0.211 HD
ENDBRANCH   3  17
BRANCH   6  19
ATOM     19  C   UNL     1       2.607   0.302  -0.856  0.00  0.00    -0.040 C 
BRANCH  19  21
ATOM     20  C   UNL     1       2.804  -1.391  -2.806  0.00  0.00    +0.069 A 
ATOM     21  C   UNL     1       2.058  -0.670  -1.868  0.00  0.00    -0.023 A 
ATOM     22  C   UNL     1       0.755  -0.999  -2.030  0.00  0.00    +0.107 A 
ATOM     23  N   UNL     1       0.680  -1.897  -3.035  0.00  0.00    -0.284 N 
ATOM     24  H   UNL     1      -0.155  -2.325  -3.380  0.00  0.00    +0.188 HD
ATOM     25  N   UNL     1       1.978  -2.122  -3.510  0.00  0.00    -0.178 NA
BRANCH  20  27
ATOM     26  C   UNL     1       4.981  -1.626  -1.643  0.00  0.00    +0.017 C 
ATOM     27  C   UNL     1       4.300  -1.330  -2.980  0.00  0.00    +0.006 C 
ATOM     28  C   UNL     1       4.701   0.066  -3.460  0.00  0.00    +0.017 C 
ATOM     29  C   UNL     1       4.735  -2.369  -4.015  0.00  0.00    +0.017 C 
ENDBRANCH  20  27
ENDBRANCH  19  21
ENDBRANCH   6  19
TORSDOF 5
