REMARK  Name = ZINC15386085
REMARK  5 active torsions:
REMARK  status: ('A' for Active; 'I' for Inactive)
REMARK    1  A    between atoms: C_8  and  C_9
REMARK    2  A    between atoms: N_14  and  S_17
REMARK    3  A    between atoms: S_17  and  C_20
REMARK    4  A    between atoms: C_22  and  C_30
REMARK    5  A    between atoms: C_24  and  C_26
REMARK                            x       y       z     vdW  Elec       q    Type
REMARK                         _______ _______ _______ _____ _____    ______ ____
ROOT
ATOM      1  S   UNL     1       4.988   2.763  -0.061  0.00  0.00    +0.061 S 
ATOM      2  O   UNL     1       5.029   4.103   0.409  0.00  0.00    -0.153 OA
ATOM      3  O   UNL     1       5.919   1.777   0.366  0.00  0.00    -0.153 OA
ENDROOT
BRANCH   1   9
ATOM      4  C   UNL     1       4.245   2.582  -5.600  0.00  0.00    +0.267 C 
ATOM      5  O   UNL     1       4.791   1.685  -6.213  0.00  0.00    -0.268 OA
ATOM      6  N   UNL     1       4.154   2.522  -4.256  0.00  0.00    -0.294 N 
ATOM      7  C   UNL     1       3.651   3.670  -3.489  0.00  0.00    +0.125 C 
ATOM      8  C   UNL     1       4.698   4.051  -2.434  0.00  0.00    +0.128 C 
ATOM      9  N   UNL     1       5.100   2.836  -1.711  0.00  0.00    -0.174 NA
ATOM     10  C   UNL     1       5.608   1.690  -2.479  0.00  0.00    +0.128 C 
ATOM     11  C   UNL     1       4.556   1.307  -3.533  0.00  0.00    +0.125 C 
BRANCH   4  19
ATOM     12  C   UNL     1       3.945   3.900  -7.710  0.00  0.00    +0.040 A 
ATOM     13  C   UNL     1       3.408   4.979  -8.348  0.00  0.00    +0.074 A 
ATOM     14  C   UNL     1       2.621   5.872  -7.588  0.00  0.00    +0.265 A 
ATOM     15  O   UNL     1       2.121   6.851  -8.117  0.00  0.00    -0.266 OA
ATOM     16  N   UNL     1       2.426   5.636  -6.277  0.00  0.00    -0.243 N 
ATOM     17  H   UNL     1       1.885   6.254  -5.762  0.00  0.00    +0.192 HD
ATOM     18  N   UNL     1       2.934   4.613  -5.692  0.00  0.00    -0.166 NA
ATOM     19  C   UNL     1       3.682   3.739  -6.328  0.00  0.00    +0.146 A 
ENDBRANCH   4  19
ENDBRANCH   1   9
BRANCH   1  20
ATOM     20  C   UNL     1       3.385   2.142   0.326  0.00  0.00    +0.107 A 
ATOM     21  C   UNL     1       2.329   3.016   0.501  0.00  0.00    +0.041 A 
ATOM     22  C   UNL     1       1.071   2.529   0.803  0.00  0.00    +0.057 A 
ATOM     23  C   UNL     1       0.870   1.168   0.933  0.00  0.00    +0.024 A 
ATOM     24  C   UNL     1       1.927   0.293   0.760  0.00  0.00    +0.057 A 
ATOM     25  C   UNL     1       3.184   0.780   0.457  0.00  0.00    +0.041 A 
BRANCH  24  26
ATOM     26  C   UNL     1       1.707  -1.191   0.902  0.00  0.00    +0.417 C 
ATOM     27  F   UNL     1       0.365  -1.437   1.208  0.00  0.00    -0.166 F 
ATOM     28  F   UNL     1       2.036  -1.828  -0.299  0.00  0.00    -0.166 F 
ATOM     29  F   UNL     1       2.518  -1.686   1.930  0.00  0.00    -0.166 F 
ENDBRANCH  24  26
BRANCH  22  30
ATOM     30  C   UNL     1      -0.082   3.482   0.986  0.00  0.00    +0.417 C 
ATOM     31  F   UNL     1      -1.243   2.758   1.277  0.00  0.00    -0.166 F 
ATOM     32  F   UNL     1       0.199   4.358   2.040  0.00  0.00    -0.166 F 
ATOM     33  F   UNL     1      -0.272   4.215  -0.191  0.00  0.00    -0.166 F 
ENDBRANCH  22  30
ENDBRANCH   1  20
TORSDOF 5
