REMARK  Name = ZINC49504642
REMARK  11 active torsions:
REMARK  status: ('A' for Active; 'I' for Inactive)
REMARK    1  A    between atoms: C_1  and  N_2
REMARK    2  A    between atoms: N_2  and  C_3
REMARK    3  A    between atoms: N_2  and  C_4
REMARK    4  A    between atoms: C_7  and  C_10
REMARK    5  A    between atoms: C_10  and  C_12
REMARK    6  A    between atoms: C_10  and  N_24
REMARK    7  A    between atoms: C_12  and  N_13
REMARK    8  A    between atoms: C_14  and  C_16
REMARK    9  A    between atoms: N_18  and  C_19
REMARK   10  A    between atoms: C_19  and  C_20
REMARK   11  A    between atoms: N_27  and  C_30
REMARK                            x       y       z     vdW  Elec       q    Type
REMARK                         _______ _______ _______ _____ _____    ______ ____
ROOT
ATOM      1  C   UNL     1      -4.812  -2.950   0.044  0.00  0.00    +0.104 C 
ENDROOT
BRANCH   1   5
ATOM      2  C   UNL     1      -1.533  -0.210   0.083  0.00  0.00    +0.029 A 
ATOM      3  C   UNL     1      -1.313  -1.561   0.318  0.00  0.00    +0.023 A 
ATOM      4  C   UNL     1      -2.376  -2.444   0.305  0.00  0.00    +0.007 A 
ATOM      5  C   UNL     1      -3.656  -1.984   0.058  0.00  0.00    -0.029 A 
ATOM      6  C   UNL     1      -3.878  -0.639  -0.176  0.00  0.00    +0.007 A 
ATOM      7  C   UNL     1      -2.821   0.250  -0.159  0.00  0.00    +0.023 A 
BRANCH   2   9
ATOM      8  C   UNL     1      -0.695   2.112  -0.146  0.00  0.00    +0.129 C 
ATOM      9  N   UNL     1      -0.461   0.686   0.096  0.00  0.00    -0.336 N 
ATOM     10  C   UNL     1       0.897   0.199   0.351  0.00  0.00    +0.129 C 
ENDBRANCH   2   9
ENDBRANCH   1   5
BRANCH   1  11
ATOM     11  N   UNL     1      -5.974  -2.334   0.698  0.00  0.00    -0.291 NA
ATOM     12  C   UNL     1      -5.629  -1.859   2.045  0.00  0.00    +0.104 C 
ATOM     13  C   UNL     1      -6.806  -1.066   2.621  0.00  0.00    +0.120 C 
ATOM     14  N   UNL     1      -8.014  -1.903   2.547  0.00  0.00    -0.327 N 
ATOM     15  C   UNL     1      -8.350  -2.527   1.259  0.00  0.00    +0.120 C 
ATOM     16  C   UNL     1      -7.111  -3.263   0.736  0.00  0.00    +0.104 C 
BRANCH  14  17
ATOM     17  C   UNL     1      -8.820  -2.100   3.672  0.00  0.00    +0.030 A 
ATOM     18  C   UNL     1      -8.430  -1.593   4.905  0.00  0.00    +0.026 A 
ATOM     19  C   UNL     1      -9.229  -1.788   6.015  0.00  0.00    +0.040 A 
ATOM     20  C   UNL     1     -10.417  -2.489   5.899  0.00  0.00    +0.124 A 
ATOM     21  C   UNL     1     -10.808  -2.996   4.671  0.00  0.00    +0.040 A 
ATOM     22  C   UNL     1     -10.015  -2.798   3.558  0.00  0.00    +0.026 A 
ATOM     23  F   UNL     1     -11.197  -2.680   6.986  0.00  0.00    -0.205 F 
ENDBRANCH  14  17
ENDBRANCH   1  11
BRANCH   1  24
ATOM     24  C   UNL     1      -5.168  -3.299  -1.403  0.00  0.00    +0.128 C 
BRANCH  24  25
ATOM     25  N   UNL     1      -4.045  -4.005  -2.025  0.00  0.00    -0.306 N 
ATOM     26  C   UNL     1      -4.090  -4.321  -3.335  0.00  0.00    +0.299 C 
ATOM     27  O   UNL     1      -5.061  -4.020  -3.998  0.00  0.00    -0.265 OA
ATOM     28  H   UNL     1      -3.270  -4.246  -1.495  0.00  0.00    +0.149 HD
BRANCH  26  29
ATOM     29  C   UNL     1      -2.945  -5.042  -3.970  0.00  0.00    +0.299 C 
ATOM     30  O   UNL     1      -1.975  -5.342  -3.306  0.00  0.00    -0.265 OA
ATOM     31  N   UNL     1      -2.990  -5.357  -5.279  0.00  0.00    -0.299 N 
ATOM     32  H   UNL     1      -3.766  -5.117  -5.809  0.00  0.00    +0.149 HD
BRANCH  31  33
ATOM     33  C   UNL     1      -1.868  -6.064  -5.901  0.00  0.00    +0.217 C 
BRANCH  33  34
ATOM     34  C   UNL     1      -2.171  -6.298  -7.382  0.00  0.00    +0.405 C 
ATOM     35  F   UNL     1      -2.358  -5.067  -8.021  0.00  0.00    -0.169 F 
ATOM     36  F   UNL     1      -1.099  -6.973  -7.976  0.00  0.00    -0.169 F 
ATOM     37  F   UNL     1      -3.332  -7.069  -7.505  0.00  0.00    -0.169 F 
ENDBRANCH  33  34
ENDBRANCH  31  33
ENDBRANCH  26  29
ENDBRANCH  24  25
ENDBRANCH   1  24
TORSDOF 9
