REMARK  Name = ZINC18244947
REMARK  7 active torsions:
REMARK  status: ('A' for Active; 'I' for Inactive)
REMARK    1  A    between atoms: C_1  and  C_2
REMARK    2  A    between atoms: N_13  and  N_16
REMARK    3  A    between atoms: N_16  and  C_17
REMARK    4  A    between atoms: C_17  and  C_18
REMARK    5  A    between atoms: C_18  and  C_20
REMARK    6  A    between atoms: C_23  and  N_26
REMARK    7  A    between atoms: C_29  and  C_31
REMARK                            x       y       z     vdW  Elec       q    Type
REMARK                         _______ _______ _______ _____ _____    ______ ____
ROOT
ATOM      1  N   UNL     1       0.183  -1.508   4.658  0.00  0.00    -0.199 N 
ATOM      2  C   UNL     1       1.248  -1.401   5.478  0.00  0.00    +0.265 C 
ATOM      3  O   UNL     1       1.189  -1.836   6.611  0.00  0.00    -0.268 OA
ENDROOT
BRANCH   1  13
ATOM      4  C   UNL     1      -0.129   2.561   0.770  0.00  0.00    +0.012 C 
ATOM      5  C   UNL     1      -0.296   1.066   0.491  0.00  0.00    +0.021 C 
ATOM      6  C   UNL     1       0.255   0.730  -0.878  0.00  0.00    -0.027 C 
ATOM      7  C   UNL     1       0.975  -0.319  -1.142  0.00  0.00    -0.030 C 
ATOM      8  C   UNL     1       1.348  -1.376  -0.125  0.00  0.00    +0.040 C 
ATOM      9  C   UNL     1       0.390  -1.226   1.038  0.00  0.00    +0.093 C 
ATOM     10  C   UNL     1       0.498   0.261   1.498  0.00  0.00    +0.096 C 
ATOM     11  C   UNL     1      -0.035   0.145   2.894  0.00  0.00    +0.243 C 
ATOM     12  O   UNL     1      -0.633   0.996   3.517  0.00  0.00    -0.273 OA
ATOM     13  N   UNL     1       0.286  -1.104   3.321  0.00  0.00    -0.152 N 
ATOM     14  C   UNL     1       0.709  -1.939   2.317  0.00  0.00    +0.243 C 
ATOM     15  O   UNL     1       1.237  -3.024   2.434  0.00  0.00    -0.273 OA
ENDBRANCH   1  13
BRANCH   2  16
ATOM     16  C   UNL     1       2.487  -0.755   4.999  0.00  0.00    +0.057 A 
ATOM     17  C   UNL     1       2.438   0.521   4.431  0.00  0.00    +0.016 A 
ATOM     18  C   UNL     1       3.597   1.119   3.986  0.00  0.00    +0.021 A 
ATOM     19  C   UNL     1       4.810   0.458   4.100  0.00  0.00    +0.042 A 
ATOM     20  C   UNL     1       4.866  -0.806   4.661  0.00  0.00    +0.040 A 
ATOM     21  C   UNL     1       3.713  -1.414   5.116  0.00  0.00    +0.054 A 
ATOM     22 CL   UNL     1       3.786  -2.996   5.827  0.00  0.00    -0.083 Cl
ATOM     23 CL   UNL     1       6.265   1.218   3.535  0.00  0.00    -0.083 Cl
ENDBRANCH   2  16
BRANCH   1  24
ATOM     24  C   UNL     1      -1.080  -2.048   5.166  0.00  0.00    +0.211 C 
BRANCH  24  25
ATOM     25  C   UNL     1      -1.927  -0.923   5.705  0.00  0.00    +0.182 C 
ATOM     26  O   UNL     1      -1.514   0.216   5.668  0.00  0.00    -0.290 OA
BRANCH  25  27
ATOM     27  C   UNL     1      -3.253  -1.208   6.275  0.00  0.00    +0.019 A 
ATOM     28  C   UNL     1      -3.729  -2.522   6.324  0.00  0.00    +0.013 A 
ATOM     29  C   UNL     1      -4.973  -2.781   6.860  0.00  0.00    +0.033 A 
ATOM     30  C   UNL     1      -5.750  -1.745   7.348  0.00  0.00    +0.126 A 
ATOM     31  C   UNL     1      -5.285  -0.442   7.303  0.00  0.00    +0.033 A 
ATOM     32  C   UNL     1      -4.041  -0.167   6.776  0.00  0.00    +0.013 A 
BRANCH  30  33
ATOM     33  N   UNL     1      -7.084  -2.031   7.921  0.00  0.00    +0.056 N 
ATOM     34  O   UNL     1      -7.493  -3.168   7.961  0.00  0.00    -0.126 OA
ATOM     35  O   UNL     1      -7.765  -1.129   8.348  0.00  0.00    -0.126 OA
ENDBRANCH  30  33
ENDBRANCH  25  27
ENDBRANCH  24  25
ENDBRANCH   1  24
TORSDOF 6
