REMARK  Name = ZINC54948405
REMARK  9 active torsions:
REMARK  status: ('A' for Active; 'I' for Inactive)
REMARK    1  A    between atoms: C_1  and  C_2
REMARK    2  A    between atoms: C_5  and  C_7
REMARK    3  A    between atoms: C_7  and  C_9
REMARK    4  A    between atoms: C_7  and  N_10
REMARK    5  A    between atoms: C_11  and  C_13
REMARK    6  A    between atoms: N_15  and  C_16
REMARK    7  A    between atoms: C_18  and  C_25
REMARK    8  A    between atoms: C_21  and  O_22
REMARK    9  A    between atoms: O_22  and  C_23
REMARK                            x       y       z     vdW  Elec       q    Type
REMARK                         _______ _______ _______ _____ _____    ______ ____
ROOT
ATOM      1  C   UNL     1       3.739  -5.414   2.311  0.00  0.00    +0.303 C 
ATOM      2  O   UNL     1       4.399  -4.422   2.542  0.00  0.00    -0.265 OA
ATOM      3  N   UNL     1       4.085  -6.597   2.856  0.00  0.00    -0.275 N 
ATOM      4  H   UNL     1       3.522  -7.375   2.724  0.00  0.00    +0.155 HD
ENDROOT
BRANCH   3   5
ATOM      5  C   UNL     1       5.257  -6.702   3.613  0.00  0.00    +0.076 A 
ATOM      6  C   UNL     1       5.674  -5.638   4.401  0.00  0.00    +0.031 A 
ATOM      7  C   UNL     1       6.831  -5.743   5.148  0.00  0.00    -0.030 A 
ATOM      8  C   UNL     1       7.578  -6.908   5.112  0.00  0.00    +0.047 A 
ATOM      9  C   UNL     1       7.169  -7.973   4.329  0.00  0.00    +0.067 A 
ATOM     10  C   UNL     1       6.006  -7.877   3.582  0.00  0.00    +0.143 A 
ATOM     11 CL   UNL     1       9.032  -7.034   6.053  0.00  0.00    -0.083 Cl
ATOM     12  C   UNL     1       7.282  -4.587   6.003  0.00  0.00    +0.045 C 
BRANCH  10  13
ATOM     13  O   UNL     1       5.600  -8.924   2.816  0.00  0.00    -0.493 OA
ATOM     14  C   UNL     1       6.417 -10.096   2.833  0.00  0.00    +0.277 C 
ENDBRANCH  10  13
ENDBRANCH   3   5
BRANCH   1  16
ATOM     15  N   UNL     1       2.196  -4.141   0.875  0.00  0.00    -0.301 N 
ATOM     16  C   UNL     1       2.542  -5.324   1.421  0.00  0.00    +0.300 C 
ATOM     17  O   UNL     1       1.883  -6.316   1.189  0.00  0.00    -0.265 OA
ATOM     18  H   UNL     1       2.724  -3.349   1.061  0.00  0.00    +0.150 HD
BRANCH  15  19
ATOM     19  C   UNL     1       1.023  -4.053   0.003  0.00  0.00    +0.107 C 
ATOM     20  C   UNL     1       1.420  -4.429  -1.426  0.00  0.00    +0.033 C 
BRANCH  19  25
ATOM     21  C   UNL     1      -0.035   1.512   0.062  0.00  0.00    +0.051 C 
ATOM     22  C   UNL     1      -0.015   0.005   0.050  0.00  0.00    -0.013 A 
ATOM     23  C   UNL     1      -1.057  -0.862   0.055  0.00  0.00    +0.011 A 
ATOM     24  C   UNL     1      -0.799  -2.220   0.041  0.00  0.00    +0.013 A 
ATOM     25  C   UNL     1       0.488  -2.644   0.021  0.00  0.00    +0.010 A 
ATOM     26  S   UNL     1       1.385  -1.101   0.016  0.00  0.00    -0.097 S 
ENDBRANCH  19  25
ENDBRANCH  15  19
ENDBRANCH   1  16
TORSDOF 5
