REMARK  Name = ZINC24726385
REMARK  9 active torsions:
REMARK  status: ('A' for Active; 'I' for Inactive)
REMARK    1  A    between atoms: C_1  and  C_2
REMARK    2  A    between atoms: C_2  and  O_3
REMARK    3  A    between atoms: O_3  and  C_4
REMARK    4  A    between atoms: C_7  and  C_10
REMARK    5  A    between atoms: C_12  and  C_15
REMARK    6  A    between atoms: C_15  and  S_16
REMARK    7  A    between atoms: S_16  and  C_17
REMARK    8  A    between atoms: C_20  and  C_24
REMARK    9  A    between atoms: C_21  and  N_23
REMARK                            x       y       z     vdW  Elec       q    Type
REMARK                         _______ _______ _______ _____ _____    ______ ____
ROOT
ATOM      1  C   UNL     1       5.709   6.338  -1.184  0.00  0.00    +0.109 A 
ATOM      2  N   UNL     1       4.716   5.460  -1.151  0.00  0.00    -0.243 NA
ATOM      3  C   UNL     1       4.235   5.018  -0.012  0.00  0.00    +0.059 A 
ATOM      4  C   UNL     1       4.753   5.466   1.161  0.00  0.00    +0.071 A 
ATOM      5  S   UNL     1       6.015   6.583   0.560  0.00  0.00    -0.075 S 
ENDROOT
BRANCH   1   9
ATOM      6  C   UNL     1       7.644   8.095  -4.534  0.00  0.00    +0.121 A 
ATOM      7  C   UNL     1       8.045   8.431  -3.247  0.00  0.00    +0.046 A 
ATOM      8  C   UNL     1       7.420   7.863  -2.158  0.00  0.00    +0.014 A 
ATOM      9  C   UNL     1       6.382   6.949  -2.349  0.00  0.00    +0.007 A 
ATOM     10  C   UNL     1       5.986   6.610  -3.644  0.00  0.00    +0.014 A 
ATOM     11  C   UNL     1       6.612   7.186  -4.728  0.00  0.00    +0.046 A 
BRANCH   6  12
ATOM     12  O   UNL     1       8.263   8.657  -5.605  0.00  0.00    -0.492 OA
BRANCH  12  14
ATOM     13  C   UNL     1       8.612   8.997  -7.972  0.00  0.00    +0.048 C 
ATOM     14  C   UNL     1       7.801   8.266  -6.899  0.00  0.00    +0.225 C 
ENDBRANCH  12  14
ENDBRANCH   6  12
ENDBRANCH   1   9
BRANCH   3  15
ATOM     15  C   UNL     1       3.106   4.020  -0.006  0.00  0.00    +0.133 C 
BRANCH  15  16
ATOM     16  S   UNL     1       3.783   2.342  -0.022  0.00  0.00    -0.080 S 
BRANCH  16  17
ATOM     17  C   UNL     1       2.289   1.408  -0.012  0.00  0.00    +0.190 A 
ATOM     18  N   UNL     1       1.128   2.053   0.002  0.00  0.00    -0.229 NA
ATOM     19  C   UNL     1      -0.017   1.395   0.010  0.00  0.00    +0.136 A 
ATOM     20  C   UNL     1       0.002  -0.004   0.002  0.00  0.00    +0.109 A 
ATOM     21  C   UNL     1       1.256  -0.654  -0.013  0.00  0.00    +0.138 A 
ATOM     22  N   UNL     1       2.359   0.085  -0.020  0.00  0.00    -0.206 NA
BRANCH  21  23
ATOM     23  N   UNL     1       1.333  -2.031  -0.021  0.00  0.00    -0.342 N 
ATOM     24  H   UNL     1       2.315  -2.527  -0.033  0.00  0.00    +0.144 HD
ATOM     25  H   UNL     1       0.412  -2.634  -0.015  0.00  0.00    +0.144 HD
ENDBRANCH  21  23
BRANCH  20  26
ATOM     26  C   UNL     1      -1.216  -0.756   0.009  0.00  0.00    +0.104 C 
ATOM     27  N   UNL     1      -2.183  -1.353   0.015  0.00  0.00    -0.191 NA
ENDBRANCH  20  26
ENDBRANCH  16  17
ENDBRANCH  15  16
ENDBRANCH   3  15
TORSDOF 8
