REMARK  Name = ZINC29767340
REMARK  7 active torsions:
REMARK  status: ('A' for Active; 'I' for Inactive)
REMARK    1  A    between atoms: C_1  and  N_2
REMARK    2  A    between atoms: C_3  and  C_5
REMARK    3  A    between atoms: C_16  and  C_18
REMARK    4  A    between atoms: C_18  and  C_19
REMARK    5  A    between atoms: C_19  and  C_20
REMARK    6  A    between atoms: C_20  and  O_21
REMARK    7  A    between atoms: O_21  and  C_22
REMARK                            x       y       z     vdW  Elec       q    Type
REMARK                         _______ _______ _______ _____ _____    ______ ____
ROOT
ATOM      1  C   UNL     1       0.262   2.330   7.125  0.00  0.00    +0.276 C 
ATOM      2  C   UNL     1      -0.824   1.777   6.191  0.00  0.00    +0.168 C 
ATOM      3  N   UNL     1      -0.160   1.316   4.960  0.00  0.00    -0.264 N 
ATOM      4  C   UNL     1       1.048   0.610   5.095  0.00  0.00    +0.078 A 
ATOM      5  C   UNL     1       1.573  -0.083   4.016  0.00  0.00    +0.027 A 
ATOM      6  C   UNL     1       2.766  -0.768   4.153  0.00  0.00    +0.002 A 
ATOM      7  C   UNL     1       3.435  -0.760   5.363  0.00  0.00    +0.004 A 
ATOM      8  C   UNL     1       2.918  -0.068   6.441  0.00  0.00    +0.047 A 
ATOM      9  C   UNL     1       1.722   0.623   6.314  0.00  0.00    +0.143 A 
ATOM     10  O   UNL     1       1.218   1.298   7.380  0.00  0.00    -0.476 OA
ATOM     11  C   UNL     1      -0.694   1.558   3.746  0.00  0.00    +0.220 C 
ATOM     12  O   UNL     1      -0.171   1.104   2.751  0.00  0.00    -0.275 OA
ENDROOT
BRANCH   1  15
ATOM     13  C   UNL     1      -1.844   4.229   9.696  0.00  0.00    +0.128 C 
ATOM     14  N   UNL     1      -1.235   3.799   8.435  0.00  0.00    -0.315 N 
ATOM     15  C   UNL     1      -0.364   2.771   8.422  0.00  0.00    +0.255 C 
ATOM     16  O   UNL     1      -0.084   2.201   9.456  0.00  0.00    -0.272 OA
ATOM     17  H   UNL     1      -1.489   4.316   7.498  0.00  0.00    +0.148 HD
ENDBRANCH   1  15
BRANCH  11  18
ATOM     18  C   UNL     1      -1.942   2.394   3.626  0.00  0.00    +0.099 C 
BRANCH  18  19
ATOM     19  C   UNL     1      -2.265   2.619   2.147  0.00  0.00    +0.050 C 
BRANCH  19  20
ATOM     20  C   UNL     1      -3.533   3.467   2.025  0.00  0.00    +0.229 C 
BRANCH  20  21
ATOM     21  O   UNL     1      -3.834   3.677   0.644  0.00  0.00    -0.492 OA
BRANCH  21  22
ATOM     22  C   UNL     1      -4.938   4.417   0.359  0.00  0.00    +0.122 A 
ATOM     23  C   UNL     1      -5.718   4.926   1.387  0.00  0.00    +0.046 A 
ATOM     24  C   UNL     1      -6.837   5.681   1.096  0.00  0.00    +0.005 A 
ATOM     25  C   UNL     1      -7.186   5.923  -0.220  0.00  0.00    +0.015 A 
ATOM     26  C   UNL     1      -6.413   5.412  -1.248  0.00  0.00    +0.021 A 
ATOM     27  C   UNL     1      -5.289   4.659  -0.961  0.00  0.00    +0.061 A 
ATOM     28 BR   UNL     1      -6.894   5.743  -3.046  0.00  0.00    -0.050 Br
ENDBRANCH  21  22
ENDBRANCH  20  21
ENDBRANCH  19  20
ENDBRANCH  18  19
ENDBRANCH  11  18
TORSDOF 6
