REMARK  Name = ZINC10244651
REMARK  10 active torsions:
REMARK  status: ('A' for Active; 'I' for Inactive)
REMARK    1  A    between atoms: C_1  and  C_2
REMARK    2  A    between atoms: C_6  and  N_9
REMARK    3  A    between atoms: C_7  and  C_8
REMARK    4  A    between atoms: C_23  and  S_24
REMARK    5  A    between atoms: S_24  and  C_25
REMARK    6  A    between atoms: C_25  and  C_27
REMARK    7  A    between atoms: C_25  and  C_30
REMARK    8  A    between atoms: C_27  and  C_29
REMARK    9  A    between atoms: N_32  and  C_33
REMARK   10  A    between atoms: N_32  and  C_34
REMARK                            x       y       z     vdW  Elec       q    Type
REMARK                         _______ _______ _______ _____ _____    ______ ____
ROOT
ATOM      1  N   UNL     1       2.694   5.960   0.008  0.00  0.00    -0.254 N 
ATOM      2  C   UNL     1       3.496   4.874  -0.006  0.00  0.00    +0.283 A 
ATOM      3  O   UNL     1       4.710   4.997  -0.018  0.00  0.00    -0.265 OA
ATOM      4  C   UNL     1       2.902   3.595  -0.007  0.00  0.00    +0.132 A 
ATOM      5  C   UNL     1       1.511   3.507   0.007  0.00  0.00    +0.104 A 
ATOM      6  C   UNL     1       1.184   2.074   0.002  0.00  0.00    +0.026 A 
ATOM      7  C   UNL     1      -0.017   1.362   0.009  0.00  0.00    +0.012 A 
ATOM      8  C   UNL     1       0.002  -0.004   0.002  0.00  0.00    +0.001 A 
ATOM      9  C   UNL     1       1.208  -0.691  -0.014  0.00  0.00    +0.002 A 
ATOM     10  C   UNL     1       2.404  -0.009  -0.022  0.00  0.00    +0.026 A 
ATOM     11  C   UNL     1       2.408   1.384  -0.014  0.00  0.00    +0.049 A 
ATOM     12  N   UNL     1       3.427   2.312  -0.019  0.00  0.00    -0.349 N 
ATOM     13  H   UNL     1       4.374   2.099  -0.030  0.00  0.00    +0.166 HD
ATOM     14  N   UNL     1       0.771   4.627   0.020  0.00  0.00    -0.221 NA
ATOM     15  C   UNL     1       1.335   5.814   0.021  0.00  0.00    +0.178 A 
ENDROOT
BRANCH   1  21
ATOM     16  C   UNL     1       4.370   9.849  -2.491  0.00  0.00    +0.044 C 
ATOM     17  C   UNL     1       4.079   9.150  -1.188  0.00  0.00    -0.046 A 
ATOM     18  C   UNL     1       4.369   9.776   0.011  0.00  0.00    +0.004 A 
ATOM     19  C   UNL     1       4.104   9.138   1.208  0.00  0.00    +0.002 A 
ATOM     20  C   UNL     1       3.548   7.873   1.211  0.00  0.00    +0.026 A 
ATOM     21  C   UNL     1       3.256   7.242   0.009  0.00  0.00    +0.055 A 
ATOM     22  C   UNL     1       3.529   7.884  -1.193  0.00  0.00    -0.024 A 
ATOM     23  C   UNL     1       3.220   7.200  -2.500  0.00  0.00    +0.046 C 
ENDBRANCH   1  21
BRANCH  15  24
ATOM     24  S   UNL     1       0.316   7.251   0.038  0.00  0.00    -0.067 S 
BRANCH  24  25
ATOM     25  C   UNL     1      -1.320   6.476   0.051  0.00  0.00    +0.205 C 
BRANCH  25  26
ATOM     26  C   UNL     1      -2.378   7.539   0.191  0.00  0.00    +0.236 C 
ATOM     27  O   UNL     1      -2.149   8.674  -0.171  0.00  0.00    -0.274 OA
ATOM     28  N   UNL     1      -3.580   7.229   0.717  0.00  0.00    -0.306 N 
ATOM     29  C   UNL     1      -4.609   8.263   0.853  0.00  0.00    +0.131 C 
ATOM     30  C   UNL     1      -3.856   5.858   1.153  0.00  0.00    +0.131 C 
ENDBRANCH  25  26
BRANCH  25  31
ATOM     31  C   UNL     1      -1.529   5.725  -1.239  0.00  0.00    +0.152 C 
ATOM     32  O   UNL     1      -2.157   4.693  -1.242  0.00  0.00    -0.296 OA
ATOM     33  C   UNL     1      -0.956   6.261  -2.525  0.00  0.00    +0.087 C 
ENDBRANCH  25  31
ENDBRANCH  24  25
ENDBRANCH  15  24
TORSDOF 5
