REMARK  Name = ZINC13371033
REMARK  5 active torsions:
REMARK  status: ('A' for Active; 'I' for Inactive)
REMARK    1  A    between atoms: C_1  and  C_2
REMARK    2  A    between atoms: C_7  and  C_8
REMARK    3  A    between atoms: N_33  and  C_36
REMARK    4  A    between atoms: C_36  and  C_37
REMARK    5  A    between atoms: C_37  and  C_38
REMARK                            x       y       z     vdW  Elec       q    Type
REMARK                         _______ _______ _______ _____ _____    ______ ____
ROOT
ATOM      1  C   UNL     1      -2.511   3.875  -0.424  0.00  0.00    +0.063 C 
ATOM      2  C   UNL     1      -3.067   3.395  -1.699  0.00  0.00    +0.032 A 
ATOM      3  C   UNL     1      -4.274   2.851  -1.938  0.00  0.00    +0.087 A 
ATOM      4  N   UNL     1      -4.550   2.535  -3.249  0.00  0.00    -0.311 N 
ATOM      5  H   UNL     1      -5.418   2.175  -3.487  0.00  0.00    +0.170 HD
ATOM      6  C   UNL     1      -3.618   2.724  -4.204  0.00  0.00    +0.289 A 
ATOM      7  O   UNL     1      -3.684   2.482  -5.396  0.00  0.00    -0.260 OA
ATOM      8  S   UNL     1      -2.299   3.401  -3.303  0.00  0.00    -0.030 S 
ATOM      9  S   UNL     1      -5.388   2.544  -0.599  0.00  0.00    -0.103 S 
ATOM     10  C   UNL     1      -4.846   3.620   0.750  0.00  0.00    +0.061 C 
ATOM     11  C   UNL     1      -3.305   3.773   0.830  0.00  0.00    +0.019 C 
ATOM     12  C   UNL     1      -2.919   2.519   1.713  0.00  0.00    +0.007 C 
ATOM     13  C   UNL     1      -3.849   3.074   2.911  0.00  0.00    +0.010 C 
ATOM     14  C   UNL     1      -5.213   2.891   2.100  0.00  0.00    +0.015 C 
ATOM     15  C   UNL     1      -5.054   1.371   1.974  0.00  0.00    +0.092 C 
ATOM     16  C   UNL     1      -3.681   1.369   1.204  0.00  0.00    +0.091 C 
ATOM     17  C   UNL     1      -3.599   0.030   0.702  0.00  0.00    +0.226 C 
ATOM     18  O   UNL     1      -2.593  -0.610   0.484  0.00  0.00    -0.275 OA
ATOM     19  N   UNL     1      -4.899  -0.379   0.519  0.00  0.00    -0.241 N 
ATOM     20  C   UNL     1      -5.814   0.500   1.039  0.00  0.00    +0.226 C 
ATOM     21  O   UNL     1      -6.999   0.556   0.787  0.00  0.00    -0.275 OA
ENDROOT
BRANCH   1  28
ATOM     22  C   UNL     1      -0.099   5.341   0.192  0.00  0.00    +0.044 C 
ATOM     23  C   UNL     1      -0.064   3.837   0.100  0.00  0.00    -0.047 A 
ATOM     24  C   UNL     1       1.123   3.159   0.310  0.00  0.00    +0.003 A 
ATOM     25  C   UNL     1       1.155   1.780   0.225  0.00  0.00    +0.000 A 
ATOM     26  C   UNL     1       0.001   1.079  -0.069  0.00  0.00    +0.000 A 
ATOM     27  C   UNL     1      -1.184   1.757  -0.284  0.00  0.00    +0.004 A 
ATOM     28  C   UNL     1      -1.218   3.136  -0.195  0.00  0.00    -0.036 A 
ENDBRANCH   1  28
BRANCH  19  29
ATOM     29  C   UNL     1      -5.267  -1.625  -0.159  0.00  0.00    +0.127 C 
BRANCH  29  30
ATOM     30  C   UNL     1      -5.440  -1.359  -1.656  0.00  0.00    +0.144 C 
BRANCH  30  31
ATOM     31  C   UNL     1      -5.819  -2.640  -2.353  0.00  0.00    +0.358 C 
ATOM     32  O   UNL     1      -5.939  -3.661  -1.718  0.00  0.00    -0.246 OA
ATOM     33  O   UNL     1      -6.023  -2.646  -3.680  0.00  0.00    -0.246 OA
ENDBRANCH  30  31
ENDBRANCH  29  30
ENDBRANCH  19  29
TORSDOF 4
