REMARK  Name = ZINC63648861
REMARK  12 active torsions:
REMARK  status: ('A' for Active; 'I' for Inactive)
REMARK    1  A    between atoms: C_1  and  C_2
REMARK    2  A    between atoms: C_2  and  C_3
REMARK    3  A    between atoms: C_7  and  N_9
REMARK    4  A    between atoms: C_12  and  C_28
REMARK    5  A    between atoms: N_16  and  C_17
REMARK    6  A    between atoms: N_16  and  C_22
REMARK    7  A    between atoms: C_17  and  C_18
REMARK    8  A    between atoms: C_18  and  N_19
REMARK    9  A    between atoms: N_19  and  C_20
REMARK   10  A    between atoms: N_19  and  C_21
REMARK   11  A    between atoms: C_22  and  C_23
REMARK   12  A    between atoms: C_28  and  C_29
REMARK                            x       y       z     vdW  Elec       q    Type
REMARK                         _______ _______ _______ _____ _____    ______ ____
ROOT
ATOM      1  N   UNL     1      -3.834  -1.167  -2.100  0.00  0.00    -0.212 N 
ATOM      2  C   UNL     1      -3.207  -0.732  -3.213  0.00  0.00    +0.249 C 
ATOM      3  O   UNL     1      -2.126  -0.188  -3.284  0.00  0.00    -0.273 OA
ATOM      4  C   UNL     1      -4.146  -1.070  -4.354  0.00  0.00    +0.173 C 
ATOM      5  N   UNL     1      -5.292  -1.713  -3.691  0.00  0.00    -0.349 N 
ATOM      6  C   UNL     1      -5.044  -1.738  -2.418  0.00  0.00    +0.171 C 
ATOM      7  N   UNL     1      -5.900  -2.275  -1.486  0.00  0.00    -0.299 N 
ATOM      8  H   UNL     1      -6.087  -2.058  -4.127  0.00  0.00    +0.163 HD
ENDROOT
BRANCH   1  13
ATOM      9  C   UNL     1      -2.665   0.297   1.066  0.00  0.00    -0.046 A 
ATOM     10  C   UNL     1      -2.307  -0.842   1.765  0.00  0.00    +0.004 A 
ATOM     11  C   UNL     1      -2.455  -2.088   1.184  0.00  0.00    +0.002 A 
ATOM     12  C   UNL     1      -2.961  -2.199  -0.096  0.00  0.00    +0.024 A 
ATOM     13  C   UNL     1      -3.321  -1.058  -0.800  0.00  0.00    +0.044 A 
ATOM     14  C   UNL     1      -3.176   0.192  -0.212  0.00  0.00    +0.027 A 
BRANCH   9  16
ATOM     15  C   UNL     1      -3.781   2.018   2.459  0.00  0.00    +0.009 C 
ATOM     16  C   UNL     1      -2.502   1.653   1.703  0.00  0.00    +0.032 C 
ENDBRANCH   9  16
ENDBRANCH   1  13
BRANCH   7  17
ATOM     17  C   UNL     1      -6.651  -3.494  -1.798  0.00  0.00    +0.089 C 
BRANCH  17  18
ATOM     18  C   UNL     1      -5.835  -4.718  -1.377  0.00  0.00    -0.060 C 
BRANCH  18  19
ATOM     19  N   UNL     1      -6.588  -5.940  -1.690  0.00  0.00    +0.377 N 
ATOM     20  C   UNL     1      -5.757  -7.115  -1.397  0.00  0.00    -0.097 C 
ATOM     21  C   UNL     1      -7.808  -5.986  -0.873  0.00  0.00    -0.097 C 
ATOM     22  H   UNL     1      -6.838  -5.940  -2.667  0.00  0.00    -0.083 HD
ENDBRANCH  18  19
ENDBRANCH  17  18
ENDBRANCH   7  17
BRANCH   7  23
ATOM     23  C   UNL     1      -6.062  -1.629  -0.182  0.00  0.00    +0.181 C 
BRANCH  23  24
ATOM     24  C   UNL     1      -7.262  -0.718  -0.218  0.00  0.00    +0.122 A 
ATOM     25  C   UNL     1      -8.505  -1.037   0.185  0.00  0.00    +0.046 A 
ATOM     26  C   UNL     1      -9.310   0.106  -0.025  0.00  0.00    +0.041 A 
ATOM     27  C   UNL     1      -8.511   1.055  -0.544  0.00  0.00    +0.195 A 
ATOM     28  O   UNL     1      -7.271   0.553  -0.653  0.00  0.00    -0.466 OA
ENDBRANCH  23  24
ENDBRANCH   7  23
BRANCH   4  29
ATOM     29  C   UNL     1      -3.476  -2.038  -5.331  0.00  0.00    +0.069 C 
BRANCH  29  30
ATOM     30  C   UNL     1      -4.396  -2.290  -6.498  0.00  0.00    -0.045 A 
ATOM     31  C   UNL     1      -5.308  -3.327  -6.449  0.00  0.00    +0.004 A 
ATOM     32  C   UNL     1      -6.151  -3.558  -7.519  0.00  0.00    +0.000 A 
ATOM     33  C   UNL     1      -6.083  -2.751  -8.640  0.00  0.00    +0.000 A 
ATOM     34  C   UNL     1      -5.171  -1.713  -8.689  0.00  0.00    +0.000 A 
ATOM     35  C   UNL     1      -4.331  -1.480  -7.617  0.00  0.00    +0.004 A 
ENDBRANCH  29  30
ENDBRANCH   4  29
TORSDOF 9
