REMARK  Name = ZINC63526296
REMARK  9 active torsions:
REMARK  status: ('A' for Active; 'I' for Inactive)
REMARK    1  A    between atoms: C_1  and  O_2
REMARK    2  A    between atoms: O_2  and  C_3
REMARK    3  A    between atoms: C_10  and  C_18
REMARK    4  A    between atoms: C_21  and  O_26
REMARK    5  A    between atoms: C_22  and  O_24
REMARK    6  A    between atoms: O_24  and  C_25
REMARK    7  A    between atoms: O_26  and  C_27
REMARK    8  A    between atoms: C_27  and  C_28
REMARK    9  A    between atoms: C_31  and  N_34
REMARK                            x       y       z     vdW  Elec       q    Type
REMARK                         _______ _______ _______ _____ _____    ______ ____
ROOT
ATOM      1  C   UNL     1      -6.367  -5.149  -0.849  0.00  0.00    -0.024 A 
ATOM      2  C   UNL     1      -6.809  -6.114   0.037  0.00  0.00    +0.009 A 
ATOM      3  C   UNL     1      -8.162  -6.342   0.199  0.00  0.00    +0.050 A 
ATOM      4  C   UNL     1      -9.081  -5.602  -0.528  0.00  0.00    +0.162 A 
ATOM      5  C   UNL     1      -8.637  -4.630  -1.420  0.00  0.00    +0.162 A 
ATOM      6  C   UNL     1      -7.279  -4.404  -1.573  0.00  0.00    +0.054 A 
ENDROOT
BRANCH   1  13
ATOM      7  C   UNL     1      -1.200  -0.637   0.010  0.00  0.00    +0.121 A 
ATOM      8  C   UNL     1      -2.375   0.136   0.020  0.00  0.00    +0.047 A 
ATOM      9  C   UNL     1      -3.606  -0.417   0.033  0.00  0.00    +0.029 A 
ATOM     10  C   UNL     1      -3.753  -1.875   0.037  0.00  0.00    +0.043 A 
ATOM     11  N   UNL     1      -4.814  -2.649   0.026  0.00  0.00    -0.376 N 
ATOM     12  C   UNL     1      -4.374  -4.036   0.129  0.00  0.00    +0.128 C 
ATOM     13  C   UNL     1      -4.890  -4.905  -1.021  0.00  0.00    +0.111 C 
ATOM     14  N   UNL     1      -4.169  -6.187  -0.992  0.00  0.00    -0.307 NA
ATOM     15  C   UNL     1      -2.743  -6.055  -1.306  0.00  0.00    +0.086 C 
ATOM     16  C   UNL     1      -2.035  -5.237  -0.210  0.00  0.00    +0.048 C 
ATOM     17  C   UNL     1      -2.859  -3.987   0.008  0.00  0.00    -0.035 C 
ATOM     18  C   UNL     1      -2.514  -2.694   0.017  0.00  0.00    +0.003 A 
ATOM     19  C   UNL     1      -1.226  -1.991   0.003  0.00  0.00    +0.055 A 
ATOM     20  H   UNL     1      -4.303  -6.658  -0.110  0.00  0.00    +0.123 HD
ATOM     21  H   UNL     1      -5.734  -2.349  -0.039  0.00  0.00    +0.160 HD
BRANCH   7  23
ATOM     22  C   UNL     1      -0.017   1.425   0.010  0.00  0.00    +0.277 C 
ATOM     23  O   UNL     1       0.002  -0.004   0.002  0.00  0.00    -0.495 OA
ENDBRANCH   7  23
ENDBRANCH   1  13
BRANCH   5  24
ATOM     24  O   UNL     1      -9.534  -3.901  -2.136  0.00  0.00    -0.491 OA
ATOM     25  C   UNL     1      -9.007  -2.921  -3.032  0.00  0.00    +0.277 C 
ENDBRANCH   5  24
BRANCH   4  26
ATOM     26  O   UNL     1     -10.413  -5.825  -0.371  0.00  0.00    -0.484 OA
BRANCH  26  27
ATOM     27  C   UNL     1     -10.796  -6.838   0.561  0.00  0.00    +0.264 C 
BRANCH  27  28
ATOM     28  C   UNL     1     -12.299  -6.943   0.601  0.00  0.00    -0.010 A 
ATOM     29  C   UNL     1     -13.022  -6.169   1.490  0.00  0.00    +0.009 A 
ATOM     30  C   UNL     1     -14.400  -6.265   1.526  0.00  0.00    +0.033 A 
ATOM     31  C   UNL     1     -15.056  -7.134   0.674  0.00  0.00    +0.126 A 
ATOM     32  C   UNL     1     -14.333  -7.907  -0.216  0.00  0.00    +0.033 A 
ATOM     33  C   UNL     1     -12.954  -7.808  -0.255  0.00  0.00    +0.009 A 
BRANCH  31  34
ATOM     34  N   UNL     1     -16.532  -7.237   0.713  0.00  0.00    +0.056 N 
ATOM     35  O   UNL     1     -17.164  -6.561   1.491  0.00  0.00    -0.126 OA
ATOM     36  O   UNL     1     -17.105  -7.997  -0.032  0.00  0.00    -0.126 OA
ENDBRANCH  31  34
ENDBRANCH  27  28
ENDBRANCH  26  27
ENDBRANCH   4  26
TORSDOF 7
