REMARK  Name = ZINC09220432
REMARK  9 active torsions:
REMARK  status: ('A' for Active; 'I' for Inactive)
REMARK    1  A    between atoms: C_1  and  C_2
REMARK    2  A    between atoms: C_5  and  C_8
REMARK    3  A    between atoms: C_8  and  C_10
REMARK    4  A    between atoms: C_8  and  N_15
REMARK    5  A    between atoms: C_16  and  C_18
REMARK    6  A    between atoms: C_18  and  N_19
REMARK    7  A    between atoms: N_19  and  C_20
REMARK    8  A    between atoms: C_25  and  C_26
REMARK    9  A    between atoms: C_26  and  C_28
REMARK                            x       y       z     vdW  Elec       q    Type
REMARK                         _______ _______ _______ _____ _____    ______ ____
ROOT
ATOM      1  N   UNL     1       0.515  -0.662  -1.062  0.00  0.00    -0.303 N 
ATOM      2  C   UNL     1      -0.049  -0.003  -0.031  0.00  0.00    +0.231 C 
ATOM      3  O   UNL     1      -0.546  -0.622   0.886  0.00  0.00    -0.274 OA
ATOM      4  H   UNL     1       0.913  -0.167  -1.795  0.00  0.00    +0.150 HD
ENDROOT
BRANCH   1   5
ATOM      5  C   UNL     1       0.527  -2.127  -1.076  0.00  0.00    +0.140 C 
BRANCH   5  10
ATOM      6  C   UNL     1       4.926  -3.987  -4.329  0.00  0.00    +0.044 C 
ATOM      7  C   UNL     1       3.779  -3.502  -3.481  0.00  0.00    -0.050 A 
ATOM      8  C   UNL     1       3.470  -4.150  -2.299  0.00  0.00    +0.004 A 
ATOM      9  C   UNL     1       2.418  -3.705  -1.521  0.00  0.00    +0.006 A 
ATOM     10  C   UNL     1       1.674  -2.612  -1.924  0.00  0.00    -0.022 A 
ATOM     11  C   UNL     1       1.979  -1.968  -3.109  0.00  0.00    +0.006 A 
ATOM     12  C   UNL     1       3.034  -2.410  -3.885  0.00  0.00    +0.004 A 
ENDBRANCH   5  10
BRANCH   5  13
ATOM     13  C   UNL     1      -0.771  -2.635  -1.649  0.00  0.00    +0.014 A 
ATOM     14  C   UNL     1      -1.522  -3.693  -1.256  0.00  0.00    +0.013 A 
ATOM     15  C   UNL     1      -2.693  -3.973  -1.935  0.00  0.00    +0.008 A 
ATOM     16  C   UNL     1      -3.050  -3.188  -2.981  0.00  0.00    +0.045 A 
ATOM     17  S   UNL     1      -1.716  -2.003  -3.026  0.00  0.00    -0.099 S 
ENDBRANCH   5  13
ENDBRANCH   1   5
BRANCH   2  18
ATOM     18  C   UNL     1      -0.061   1.504  -0.017  0.00  0.00    +0.197 C 
BRANCH  18  19
ATOM     19  N   UNL     1      -0.726   1.976   1.201  0.00  0.00    -0.335 N 
ATOM     20  H   UNL     1      -1.073   1.336   1.843  0.00  0.00    +0.147 HD
BRANCH  19  21
ATOM     21  C   UNL     1      -0.858   3.336   1.437  0.00  0.00    +0.038 A 
ATOM     22  C   UNL     1      -0.259   4.255   0.583  0.00  0.00    +0.023 A 
ATOM     23  C   UNL     1      -0.396   5.607   0.816  0.00  0.00    +0.002 A 
ATOM     24  C   UNL     1      -1.122   6.063   1.907  0.00  0.00    +0.001 A 
ATOM     25  C   UNL     1      -1.719   5.171   2.768  0.00  0.00    +0.013 A 
ATOM     26  C   UNL     1      -1.595   3.794   2.544  0.00  0.00    +0.038 A 
BRANCH  26  27
ATOM     27  C   UNL     1      -2.228   2.837   3.457  0.00  0.00    +0.162 C 
ATOM     28  O   UNL     1      -2.034   1.647   3.318  0.00  0.00    -0.292 OA
ATOM     29  C   UNL     1      -3.119   3.330   4.567  0.00  0.00    +0.091 C 
ENDBRANCH  26  27
ENDBRANCH  19  21
ENDBRANCH  18  19
ENDBRANCH   2  18
TORSDOF 7
