REMARK  Name = ZINC13546728
REMARK  5 active torsions:
REMARK  status: ('A' for Active; 'I' for Inactive)
REMARK    1  A    between atoms: C_5  and  C_7
REMARK    2  A    between atoms: C_7  and  N_8
REMARK    3  A    between atoms: C_12  and  C_13
REMARK    4  A    between atoms: C_15  and  N_20
REMARK    5  A    between atoms: C_18  and  O_19
REMARK                            x       y       z     vdW  Elec       q    Type
REMARK                         _______ _______ _______ _____ _____    ______ ____
ROOT
ATOM      1  N   UNL     1       1.629  -1.791   1.755  0.00  0.00    -0.216 N 
ATOM      2  C   UNL     1       2.822  -2.236   2.197  0.00  0.00    +0.269 C 
ATOM      3  O   UNL     1       3.917  -1.981   1.730  0.00  0.00    -0.268 OA
ATOM      4  C   UNL     1       2.535  -3.092   3.358  0.00  0.00    +0.098 C 
ATOM      5  C   UNL     1       3.428  -3.761   4.131  0.00  0.00    +0.040 C 
ATOM      6  N   UNL     1       1.140  -3.069   3.496  0.00  0.00    -0.265 N 
ATOM      7  C   UNL     1       0.646  -2.280   2.526  0.00  0.00    +0.313 C 
ATOM      8  O   UNL     1      -0.536  -2.044   2.366  0.00  0.00    -0.252 OA
ATOM      9  H   UNL     1       0.624  -3.536   4.172  0.00  0.00    +0.157 HD
ENDROOT
BRANCH   5  10
ATOM     10  C   UNL     1       4.843  -3.807   3.743  0.00  0.00    +0.020 A 
ATOM     11  C   UNL     1       5.201  -3.997   2.404  0.00  0.00    +0.044 A 
ATOM     12  C   UNL     1       6.532  -4.039   2.048  0.00  0.00    +0.127 A 
ATOM     13  C   UNL     1       7.518  -3.894   3.010  0.00  0.00    +0.036 A 
ATOM     14  C   UNL     1       7.180  -3.707   4.337  0.00  0.00    +0.048 A 
ATOM     15  C   UNL     1       5.847  -3.656   4.714  0.00  0.00    +0.124 A 
BRANCH  12  16
ATOM     16  N   UNL     1       6.909  -4.240   0.631  0.00  0.00    +0.056 N 
ATOM     17  O   UNL     1       6.051  -4.366  -0.211  0.00  0.00    -0.126 OA
ATOM     18  O   UNL     1       8.076  -4.277   0.315  0.00  0.00    -0.126 OA
ENDBRANCH  12  16
BRANCH  15  19
ATOM     19  O   UNL     1       5.514  -3.466   6.016  0.00  0.00    -0.506 OA
ATOM     20  H   UNL     1       5.424  -4.284   6.522  0.00  0.00    +0.292 HD
ENDBRANCH  15  19
ENDBRANCH   5  10
BRANCH   1  21
ATOM     21  C   UNL     1       1.436  -0.901   0.607  0.00  0.00    +0.156 C 
BRANCH  21  26
ATOM     22  C   UNL     1       0.343   2.547   1.691  0.00  0.00    +0.000 A 
ATOM     23  C   UNL     1       1.558   3.164   1.920  0.00  0.00    +0.003 A 
ATOM     24  C   UNL     1       2.736   2.467   1.725  0.00  0.00    +0.038 A 
ATOM     25  C   UNL     1       2.697   1.150   1.300  0.00  0.00    +0.128 A 
ATOM     26  C   UNL     1       1.479   0.533   1.071  0.00  0.00    +0.006 A 
ATOM     27  C   UNL     1       0.303   1.232   1.266  0.00  0.00    +0.008 A 
ATOM     28  F   UNL     1       3.847   0.467   1.109  0.00  0.00    -0.205 F 
ENDBRANCH  21  26
ENDBRANCH   1  21
TORSDOF 5
