REMARK  Name = ZINC08780668
REMARK  6 active torsions:
REMARK  status: ('A' for Active; 'I' for Inactive)
REMARK    1  A    between atoms: C_3  and  N_25
REMARK    2  A    between atoms: C_6  and  C_7
REMARK    3  A    between atoms: C_7  and  N_49
REMARK    4  A    between atoms: C_10  and  C_13
REMARK    5  A    between atoms: N_15  and  N_16
REMARK    6  A    between atoms: C_17  and  C_18
REMARK                            x       y       z     vdW  Elec       q    Type
REMARK                         _______ _______ _______ _____ _____    ______ ____
ROOT
ATOM      1  C   UNL     1       0.002  -0.004   0.002  0.00  0.00    -0.078 C 
ATOM      2  C   UNL     1      -0.019   1.526   0.010  0.00  0.00    -0.006 C 
ATOM      3  C   UNL     1       1.420   2.051  -0.001  0.00  0.00    +0.073 C 
ATOM      4  C   UNL     1       2.169   1.490   1.211  0.00  0.00    -0.006 C 
ATOM      5  C   UNL     1       2.126  -0.039   1.168  0.00  0.00    -0.078 C 
ATOM      6  N   UNL     1       0.716  -0.481   1.206  0.00  0.00    +0.382 N 
ATOM      7  H   UNL     1       0.265  -0.085   2.039  0.00  0.00    -0.081 HD
ENDROOT
BRANCH   3   8
ATOM      8  C   UNL     1       1.407   3.557   0.068  0.00  0.00    +0.235 C 
ATOM      9  O   UNL     1       0.351   4.152   0.121  0.00  0.00    -0.274 OA
ATOM     10  N   UNL     1       2.568   4.241   0.071  0.00  0.00    -0.207 N 
ATOM     11  H   UNL     1       3.412   3.765   0.029  0.00  0.00    +0.177 HD
BRANCH  10  12
ATOM     12  N   UNL     1       2.555   5.641   0.135  0.00  0.00    -0.188 NA
ATOM     13  C   UNL     1       3.673   6.300   0.138  0.00  0.00    +0.138 C 
BRANCH  13  14
ATOM     14  C   UNL     1       3.661   7.773   0.205  0.00  0.00    -0.005 A 
ATOM     15  C   UNL     1       2.447   8.462   0.260  0.00  0.00    +0.010 A 
ATOM     16  C   UNL     1       2.442   9.840   0.328  0.00  0.00    +0.016 A 
ATOM     17  C   UNL     1       3.637  10.540   0.331  0.00  0.00    +0.018 A 
ATOM     18  C   UNL     1       4.843   9.863   0.272  0.00  0.00    +0.016 A 
ATOM     19  C   UNL     1       4.862   8.485   0.209  0.00  0.00    +0.010 A 
ATOM     20 BR   UNL     1       3.620  12.429   0.416  0.00  0.00    -0.050 Br
ENDBRANCH  13  14
ENDBRANCH  10  12
ENDBRANCH   3   8
BRANCH   6  21
ATOM     21  C   UNL     1       0.651  -1.955   1.280  0.00  0.00    -0.043 C 
BRANCH  21  27
ATOM     22  C   UNL     1       2.901  -2.767   2.015  0.00  0.00    +0.004 A 
ATOM     23  C   UNL     1       3.774  -3.206   2.994  0.00  0.00    +0.033 A 
ATOM     24  C   UNL     1       3.342  -3.325   4.302  0.00  0.00    +0.126 A 
ATOM     25  C   UNL     1       2.039  -3.001   4.632  0.00  0.00    +0.033 A 
ATOM     26  C   UNL     1       1.168  -2.558   3.654  0.00  0.00    +0.004 A 
ATOM     27  C   UNL     1       1.600  -2.438   2.346  0.00  0.00    -0.064 A 
BRANCH  24  28
ATOM     28  N   UNL     1       4.274  -3.799   5.349  0.00  0.00    +0.056 N 
ATOM     29  O   UNL     1       3.894  -3.904   6.501  0.00  0.00    -0.126 OA
ATOM     30  O   UNL     1       5.422  -4.085   5.058  0.00  0.00    -0.126 OA
ENDBRANCH  24  28
ENDBRANCH  21  27
ENDBRANCH   6  21
TORSDOF 6
