REMARK  Name = ZINC39606735
REMARK  8 active torsions:
REMARK  status: ('A' for Active; 'I' for Inactive)
REMARK    1  A    between atoms: C_1  and  C_2
REMARK    2  A    between atoms: C_2  and  C_3
REMARK    3  A    between atoms: C_3  and  C_5
REMARK    4  A    between atoms: C_3  and  C_6
REMARK    5  A    between atoms: C_6  and  N_7
REMARK    6  A    between atoms: C_8  and  C_10
REMARK    7  A    between atoms: C_21  and  C_23
REMARK    8  A    between atoms: C_24  and  C_28
REMARK                            x       y       z     vdW  Elec       q    Type
REMARK                         _______ _______ _______ _____ _____    ______ ____
ROOT
ATOM      1  C   UNL     1       1.839  -4.269  -4.166  0.00  0.00    +0.100 C 
ATOM      2  C   UNL     1       3.310  -3.814  -4.300  0.00  0.00    +0.121 C 
ATOM      3  N   UNL     1       4.103  -4.957  -3.790  0.00  0.00    -0.296 N 
ATOM      4  C   UNL     1       3.395  -6.155  -4.302  0.00  0.00    +0.115 C 
ATOM      5  C   UNL     1       1.899  -5.806  -4.171  0.00  0.00    -0.004 C 
ATOM      6  C   UNL     1       1.121  -6.361  -5.361  0.00  0.00    -0.010 C 
ATOM      7  C   UNL     1       1.146  -7.891  -5.312  0.00  0.00    -0.082 C 
ATOM      8  N   UNL     1       0.549  -8.353  -4.053  0.00  0.00    +0.379 N 
ATOM      9  C   UNL     1       1.357  -7.892  -2.917  0.00  0.00    -0.082 C 
ATOM     10  C   UNL     1       1.341  -6.362  -2.865  0.00  0.00    -0.010 C 
ATOM     11  C   UNL     1       5.218  -4.917  -3.033  0.00  0.00    +0.254 C 
ATOM     12  O   UNL     1       5.624  -3.853  -2.605  0.00  0.00    -0.269 OA
ATOM     13  H   UNL     1      -0.386  -7.983  -3.971  0.00  0.00    -0.086 HD
ATOM     14  H   UNL     1       0.511  -9.361  -4.050  0.00  0.00    -0.086 HD
ENDROOT
BRANCH  11  15
ATOM     15  C   UNL     1       5.940  -6.155  -2.726  0.00  0.00    +0.077 A 
ATOM     16  C   UNL     1       7.029  -6.347  -1.890  0.00  0.00    -0.031 A 
ATOM     17  C   UNL     1       7.494  -7.637  -1.801  0.00  0.00    +0.011 A 
ATOM     18  C   UNL     1       6.876  -8.611  -2.515  0.00  0.00    +0.046 A 
ATOM     19  S   UNL     1       5.641  -7.808  -3.322  0.00  0.00    -0.092 S 
ATOM     20  C   UNL     1       7.664  -5.212  -1.128  0.00  0.00    +0.045 C 
ENDBRANCH  11  15
BRANCH   1  22
ATOM     21  N   UNL     1      -0.064  -3.495  -2.789  0.00  0.00    -0.315 N 
ATOM     22  C   UNL     1       1.252  -3.772  -2.870  0.00  0.00    +0.218 C 
ATOM     23  O   UNL     1       1.964  -3.621  -1.900  0.00  0.00    -0.275 OA
ATOM     24  H   UNL     1      -0.634  -3.615  -3.564  0.00  0.00    +0.149 HD
BRANCH  21  25
ATOM     25  C   UNL     1      -0.635  -3.011  -1.529  0.00  0.00    +0.107 C 
BRANCH  25  26
ATOM     26  C   UNL     1      -2.136  -2.775  -1.706  0.00  0.00    +0.003 C 
ATOM     27  C   UNL     1      -2.359  -1.644  -2.712  0.00  0.00    +0.009 C 
BRANCH  26  29
ATOM     28  C   UNL     1      -4.273  -2.276  -0.511  0.00  0.00    +0.004 C 
ATOM     29  C   UNL     1      -2.755  -2.391  -0.361  0.00  0.00    +0.001 C 
ENDBRANCH  26  29
ENDBRANCH  25  26
ENDBRANCH  21  25
ENDBRANCH   1  22
TORSDOF 5
