REMARK  Name = ZINC08738587
REMARK  5 active torsions:
REMARK  status: ('A' for Active; 'I' for Inactive)
REMARK    1  A    between atoms: C_1  and  C_2
REMARK    2  A    between atoms: C_2  and  O_4
REMARK    3  A    between atoms: O_4  and  C_5
REMARK    4  A    between atoms: C_8  and  N_11
REMARK    5  A    between atoms: C_27  and  C_33
REMARK                            x       y       z     vdW  Elec       q    Type
REMARK                         _______ _______ _______ _____ _____    ______ ____
ROOT
ATOM      1  N   UNL     1      -1.202  -6.216   0.260  0.00  0.00    -0.210 N 
ATOM      2  C   UNL     1      -0.092  -6.947   0.444  0.00  0.00    +0.232 C 
ATOM      3  O   UNL     1       1.042  -6.520   0.458  0.00  0.00    -0.274 OA
ATOM      4  C   UNL     1      -0.493  -8.396   0.634  0.00  0.00    +0.114 C 
ATOM      5  C   UNL     1       0.317  -9.287  -0.308  0.00  0.00    +0.110 C 
ATOM      6  C   UNL     1       0.774 -10.547   0.376  0.00  0.00    -0.003 C 
ATOM      7  C   UNL     1       0.870 -11.688  -0.302  0.00  0.00    +0.007 C 
ATOM      8  C   UNL     1       0.528 -11.752  -1.736  0.00  0.00    -0.004 A 
ATOM      9  C   UNL     1       0.931 -12.810  -2.542  0.00  0.00    +0.010 A 
ATOM     10  C   UNL     1       0.571 -12.828  -3.876  0.00  0.00    +0.001 A 
ATOM     11  C   UNL     1      -0.187 -11.804  -4.416  0.00  0.00    +0.002 A 
ATOM     12  C   UNL     1      -0.590 -10.739  -3.627  0.00  0.00    +0.024 A 
ATOM     13  C   UNL     1      -0.232 -10.706  -2.298  0.00  0.00    +0.038 A 
ATOM     14  N   UNL     1      -0.558  -9.665  -1.435  0.00  0.00    -0.310 N 
ATOM     15  C   UNL     1      -1.753  -8.828  -1.408  0.00  0.00    +0.177 C 
ATOM     16  C   UNL     1      -1.949  -8.409   0.083  0.00  0.00    +0.119 C 
ATOM     17  C   UNL     1      -2.325  -6.940   0.148  0.00  0.00    +0.232 C 
ATOM     18  O   UNL     1      -3.452  -6.495   0.103  0.00  0.00    -0.274 OA
ENDROOT
BRANCH  15  19
ATOM     19  C   UNL     1      -1.553  -7.609  -2.272  0.00  0.00    +0.270 C 
ATOM     20  O   UNL     1      -0.447  -7.318  -2.659  0.00  0.00    -0.269 OA
ATOM     21  N   UNL     1      -2.610  -6.844  -2.612  0.00  0.00    -0.178 N 
ATOM     22  C   UNL     1      -2.588  -5.708  -3.396  0.00  0.00    +0.098 A 
ATOM     23  C   UNL     1      -1.584  -5.007  -4.053  0.00  0.00    +0.030 A 
ATOM     24  C   UNL     1      -1.900  -3.877  -4.774  0.00  0.00    +0.002 A 
ATOM     25  C   UNL     1      -3.214  -3.434  -4.847  0.00  0.00    +0.002 A 
ATOM     26  C   UNL     1      -4.214  -4.109  -4.208  0.00  0.00    +0.032 A 
ATOM     27  C   UNL     1      -3.918  -5.261  -3.470  0.00  0.00    +0.113 A 
ATOM     28  N   UNL     1      -4.679  -6.119  -2.747  0.00  0.00    -0.129 NA
ATOM     29  N   UNL     1      -3.947  -7.050  -2.244  0.00  0.00    -0.057 NA
ENDBRANCH  15  19
BRANCH   1  33
ATOM     30  C   UNL     1      -1.165  -2.049   0.072  0.00  0.00    +0.132 A 
ATOM     31  C   UNL     1      -0.549  -2.794  -0.924  0.00  0.00    +0.048 A 
ATOM     32  C   UNL     1      -0.561  -4.173  -0.862  0.00  0.00    +0.027 A 
ATOM     33  C   UNL     1      -1.189  -4.815   0.197  0.00  0.00    +0.044 A 
ATOM     34  C   UNL     1      -1.804  -4.069   1.193  0.00  0.00    +0.027 A 
ATOM     35  C   UNL     1      -1.788  -2.690   1.133  0.00  0.00    +0.048 A 
BRANCH  30  36
ATOM     36  O   UNL     1      -1.153  -0.691   0.010  0.00  0.00    -0.426 OA
BRANCH  36  38
ATOM     37  C   UNL     1      -2.104   1.412  -0.866  0.00  0.00    +0.136 C 
ATOM     38  C   UNL     1      -2.000  -0.091  -0.841  0.00  0.00    +0.309 C 
ATOM     39  O   UNL     1      -2.679  -0.757  -1.587  0.00  0.00    -0.251 OA
ENDBRANCH  36  38
ENDBRANCH  30  36
ENDBRANCH   1  33
TORSDOF 4
