REMARK  Name = ZINC14551539
REMARK  6 active torsions:
REMARK  status: ('A' for Active; 'I' for Inactive)
REMARK    1  A    between atoms: C_4  and  C_7
REMARK    2  A    between atoms: C_7  and  C_8
REMARK    3  A    between atoms: C_8  and  C_9
REMARK    4  A    between atoms: C_9  and  O_10
REMARK    5  A    between atoms: O_10  and  C_11
REMARK    6  A    between atoms: C_18  and  C_27
REMARK                            x       y       z     vdW  Elec       q    Type
REMARK                         _______ _______ _______ _____ _____    ______ ____
ROOT
ATOM      1  C   UNL     1       7.054  -2.577  -3.052  0.00  0.00    +0.142 A 
ATOM      2  C   UNL     1       7.793  -2.990  -1.961  0.00  0.00    +0.047 A 
ATOM      3  C   UNL     1       8.990  -3.658  -2.145  0.00  0.00    +0.004 A 
ATOM      4  C   UNL     1       9.447  -3.902  -3.426  0.00  0.00    +0.006 A 
ATOM      5  C   UNL     1       8.717  -3.490  -4.523  0.00  0.00    -0.016 A 
ATOM      6  C   UNL     1       7.497  -2.832  -4.355  0.00  0.00    +0.074 A 
ATOM      7  N   UNL     1       6.683  -2.412  -5.409  0.00  0.00    -0.334 N 
ATOM      8  C   UNL     1       7.211  -2.603  -6.769  0.00  0.00    +0.105 C 
ATOM      9  C   UNL     1       7.924  -3.939  -6.786  0.00  0.00    +0.029 C 
ATOM     10  C   UNL     1       9.194  -3.720  -5.904  0.00  0.00    +0.049 C 
ATOM     11  C   UNL     1      10.057  -4.870  -6.270  0.00  0.00    -0.023 C 
ATOM     12  C   UNL     1       9.773  -5.232  -7.516  0.00  0.00    -0.030 C 
ATOM     13  C   UNL     1       8.648  -4.354  -8.071  0.00  0.00    +0.033 C 
ATOM     14  H   UNL     1       5.757  -2.802  -5.322  0.00  0.00    +0.147 HD
ENDROOT
BRANCH   8  15
ATOM     15  C   UNL     1       6.079  -2.613  -7.763  0.00  0.00    -0.027 A 
ATOM     16  C   UNL     1       4.879  -3.217  -7.438  0.00  0.00    +0.005 A 
ATOM     17  C   UNL     1       3.838  -3.223  -8.348  0.00  0.00    +0.000 A 
ATOM     18  C   UNL     1       4.001  -2.631  -9.587  0.00  0.00    +0.000 A 
ATOM     19  C   UNL     1       5.202  -2.031  -9.914  0.00  0.00    +0.000 A 
ATOM     20  C   UNL     1       6.241  -2.022  -9.002  0.00  0.00    +0.005 A 
ENDBRANCH   8  15
BRANCH   1  21
ATOM     21  O   UNL     1       5.879  -1.920  -2.858  0.00  0.00    -0.490 OA
BRANCH  21  22
ATOM     22  C   UNL     1       5.477  -1.695  -1.505  0.00  0.00    +0.229 C 
BRANCH  22  23
ATOM     23  C   UNL     1       4.142  -0.948  -1.488  0.00  0.00    +0.046 C 
BRANCH  23  24
ATOM     24  C   UNL     1       3.711  -0.707  -0.039  0.00  0.00    +0.038 C 
BRANCH  24  28
ATOM     25  C   UNL     1      -0.017   1.378   0.010  0.00  0.00    +0.000 A 
ATOM     26  C   UNL     1       1.171   2.086   0.002  0.00  0.00    +0.000 A 
ATOM     27  C   UNL     1       2.377   1.411  -0.014  0.00  0.00    +0.003 A 
ATOM     28  C   UNL     1       2.396   0.029  -0.022  0.00  0.00    -0.047 A 
ATOM     29  C   UNL     1       1.208  -0.679  -0.014  0.00  0.00    +0.003 A 
ATOM     30  C   UNL     1       0.002  -0.004   0.002  0.00  0.00    +0.000 A 
ENDBRANCH  24  28
ENDBRANCH  23  24
ENDBRANCH  22  23
ENDBRANCH  21  22
ENDBRANCH   1  21
TORSDOF 6
