REMARK  Name = ZINC12347118
REMARK  5 active torsions:
REMARK  status: ('A' for Active; 'I' for Inactive)
REMARK    1  A    between atoms: C_4  and  C_7
REMARK    2  A    between atoms: C_7  and  O_8
REMARK    3  A    between atoms: O_8  and  C_9
REMARK    4  A    between atoms: C_13  and  C_15
REMARK    5  A    between atoms: C_22  and  O_23
REMARK                            x       y       z     vdW  Elec       q    Type
REMARK                         _______ _______ _______ _____ _____    ______ ____
ROOT
ATOM      1  C   UNL     1      -0.171   9.671  -4.326  0.00  0.00    +0.092 C 
ATOM      2  C   UNL     1      -1.412  10.499  -4.500  0.00  0.00    +0.067 A 
ATOM      3  C   UNL     1      -1.384  11.867  -4.527  0.00  0.00    +0.126 A 
ATOM      4  N   UNL     1      -2.648  12.302  -4.690  0.00  0.00    -0.260 N 
ATOM      5  H   UNL     1      -2.941  13.256  -4.744  0.00  0.00    +0.190 HD
ATOM      6  N   UNL     1      -3.480  11.177  -4.772  0.00  0.00    -0.134 NA
ATOM      7  C   UNL     1      -2.735  10.098  -4.658  0.00  0.00    +0.237 A 
ATOM      8  N   UNL     1      -0.192  12.569  -4.397  0.00  0.00    -0.303 N 
ATOM      9  C   UNL     1       0.989  11.887  -4.552  0.00  0.00    +0.017 C 
ATOM     10  C   UNL     1       1.053  10.538  -4.526  0.00  0.00    +0.024 C 
ATOM     11  C   UNL     1       2.281   9.871  -4.684  0.00  0.00    +0.162 C 
ATOM     12  O   UNL     1       2.304   8.656  -4.664  0.00  0.00    -0.292 OA
ATOM     13  C   UNL     1       3.566  10.627  -4.876  0.00  0.00    +0.080 C 
ATOM     14  C   UNL     1       3.447  11.989  -4.183  0.00  0.00    +0.014 C 
ATOM     15  C   UNL     1       2.234  12.718  -4.763  0.00  0.00    +0.051 C 
ATOM     16  H   UNL     1      -0.194  13.519  -4.201  0.00  0.00    +0.153 HD
ENDROOT
BRANCH   1  21
ATOM     17  C   UNL     1      -0.110   7.178  -1.487  0.00  0.00    +0.121 A 
ATOM     18  C   UNL     1      -0.111   8.019  -0.383  0.00  0.00    +0.045 A 
ATOM     19  C   UNL     1      -0.131   9.388  -0.560  0.00  0.00    +0.004 A 
ATOM     20  C   UNL     1      -0.150   9.922  -1.836  0.00  0.00    +0.005 A 
ATOM     21  C   UNL     1      -0.150   9.086  -2.937  0.00  0.00    -0.032 A 
ATOM     22  C   UNL     1      -0.124   7.715  -2.765  0.00  0.00    +0.050 A 
BRANCH  17  23
ATOM     23  O   UNL     1      -0.090   5.830  -1.315  0.00  0.00    -0.487 OA
BRANCH  23  24
ATOM     24  C   UNL     1      -0.070   5.347   0.030  0.00  0.00    +0.264 C 
BRANCH  24  28
ATOM     25  C   UNL     1      -0.013   1.076   0.008  0.00  0.00    +0.000 A 
ATOM     26  C   UNL     1      -1.219   1.751   0.017  0.00  0.00    +0.000 A 
ATOM     27  C   UNL     1      -1.238   3.133   0.030  0.00  0.00    +0.007 A 
ATOM     28  C   UNL     1      -0.050   3.840   0.022  0.00  0.00    -0.010 A 
ATOM     29  C   UNL     1       1.156   3.165   0.008  0.00  0.00    +0.007 A 
ATOM     30  C   UNL     1       1.175   1.783   0.000  0.00  0.00    +0.000 A 
ENDBRANCH  24  28
ENDBRANCH  23  24
ENDBRANCH  17  23
ENDBRANCH   1  21
BRANCH   7  31
ATOM     31  O   UNL     1      -3.181   8.814  -4.689  0.00  0.00    -0.491 OA
ATOM     32  H   UNL     1      -4.174   8.809  -4.814  0.00  0.00    +0.294 HD
ENDBRANCH   7  31
TORSDOF 5
