REMARK  Name = ZINC66271518
REMARK  8 active torsions:
REMARK  status: ('A' for Active; 'I' for Inactive)
REMARK    1  A    between atoms: C_1  and  C_2
REMARK    2  A    between atoms: C_2  and  C_4
REMARK    3  A    between atoms: C_2  and  N_18
REMARK    4  A    between atoms: C_4  and  C_5
REMARK    5  A    between atoms: N_7  and  C_8
REMARK    6  A    between atoms: C_8  and  C_10
REMARK    7  A    between atoms: C_8  and  C_11
REMARK    8  A    between atoms: C_19  and  C_21
REMARK                            x       y       z     vdW  Elec       q    Type
REMARK                         _______ _______ _______ _____ _____    ______ ____
ROOT
ATOM      1  C   UNL     1       0.718  -0.497  -1.257  0.00  0.00    +0.117 C 
ENDROOT
BRANCH   1   2
ATOM      2  C   UNL     1       0.632  -2.000  -1.327  0.00  0.00    +0.215 C 
ATOM      3  O   UNL     1       0.054  -2.616  -0.457  0.00  0.00    -0.276 OA
ATOM      4  N   UNL     1       1.196  -2.660  -2.358  0.00  0.00    -0.309 N 
ATOM      5  H   UNL     1       1.658  -2.168  -3.055  0.00  0.00    +0.149 HD
BRANCH   4   6
ATOM      6  C   UNL     1       1.112  -4.121  -2.427  0.00  0.00    +0.100 C 
ATOM      7  C   UNL     1       2.245  -4.737  -1.604  0.00  0.00    +0.033 C 
BRANCH   6   8
ATOM      8  C   UNL     1       1.236  -4.564  -3.862  0.00  0.00    -0.027 A 
ATOM      9  C   UNL     1       2.143  -3.944  -4.701  0.00  0.00    +0.008 A 
ATOM     10  C   UNL     1       2.257  -4.350  -6.017  0.00  0.00    +0.038 A 
ATOM     11  C   UNL     1       1.463  -5.378  -6.495  0.00  0.00    +0.123 A 
ATOM     12  C   UNL     1       0.555  -5.999  -5.654  0.00  0.00    +0.038 A 
ATOM     13  C   UNL     1       0.446  -5.595  -4.337  0.00  0.00    +0.008 A 
ATOM     14  F   UNL     1       1.574  -5.776  -7.782  0.00  0.00    -0.205 F 
ENDBRANCH   6   8
ENDBRANCH   4   6
ENDBRANCH   1   2
BRANCH   1  16
ATOM     15  C   UNL     1      -0.019   1.526   0.010  0.00  0.00    +0.028 C 
ATOM     16  C   UNL     1       0.002  -0.004   0.002  0.00  0.00    +0.079 C 
BRANCH  16  17
ATOM     17  N   UNL     1       0.711  -0.489   1.189  0.00  0.00    -0.312 N 
ATOM     18  C   UNL     1       0.051  -0.633   2.355  0.00  0.00    +0.216 C 
ATOM     19  O   UNL     1      -1.129  -0.361   2.423  0.00  0.00    -0.276 OA
ATOM     20  H   UNL     1       1.654  -0.707   1.135  0.00  0.00    +0.149 HD
BRANCH  18  21
ATOM     21  C   UNL     1       0.780  -1.133   3.576  0.00  0.00    +0.075 C 
ATOM     22  C   UNL     1       1.347  -2.526   3.298  0.00  0.00    +0.013 C 
ATOM     23  C   UNL     1       2.087  -3.033   4.537  0.00  0.00    +0.001 C 
ATOM     24  C   UNL     1       1.116  -3.104   5.717  0.00  0.00    +0.000 C 
ATOM     25  C   UNL     1       0.549  -1.711   5.996  0.00  0.00    +0.001 C 
ATOM     26  C   UNL     1      -0.191  -1.204   4.756  0.00  0.00    +0.013 C 
ENDBRANCH  18  21
ENDBRANCH  16  17
ENDBRANCH   1  16
TORSDOF 6
