REMARK  Name = ZINC11572496
REMARK  8 active torsions:
REMARK  status: ('A' for Active; 'I' for Inactive)
REMARK    1  A    between atoms: C_1  and  C_2
REMARK    2  A    between atoms: C_4  and  C_27
REMARK    3  A    between atoms: C_5  and  C_9
REMARK    4  A    between atoms: C_6  and  C_8
REMARK    5  A    between atoms: C_9  and  O_11
REMARK    6  A    between atoms: O_11  and  C_12
REMARK    7  A    between atoms: C_12  and  C_13
REMARK    8  A    between atoms: N_15  and  C_16
REMARK                            x       y       z     vdW  Elec       q    Type
REMARK                         _______ _______ _______ _____ _____    ______ ____
ROOT
ATOM      1  C   UNL     1      -0.014   1.208   0.003  0.00  0.00    +0.255 C 
ATOM      2  O   UNL     1       0.003  -0.004   0.000  0.00  0.00    -0.272 OA
ATOM      3  N   UNL     1       1.143   1.898   0.001  0.00  0.00    -0.282 N 
ATOM      4  H   UNL     1       1.131   2.866  -0.062  0.00  0.00    +0.155 HD
ENDROOT
BRANCH   3   5
ATOM      5  C   UNL     1       2.365   1.218   0.092  0.00  0.00    +0.051 A 
ATOM      6  C   UNL     1       2.514  -0.025  -0.508  0.00  0.00    +0.073 A 
ATOM      7  C   UNL     1       3.722  -0.698  -0.419  0.00  0.00    +0.164 A 
ATOM      8  C   UNL     1       4.785  -0.126   0.270  0.00  0.00    +0.163 A 
ATOM      9  C   UNL     1       4.634   1.116   0.869  0.00  0.00    +0.066 A 
ATOM     10  C   UNL     1       3.430   1.789   0.776  0.00  0.00    +0.043 A 
ATOM     11 BR   UNL     1       3.231   3.485   1.588  0.00  0.00    -0.048 Br
ATOM     12  O   UNL     1       5.982  -0.770   0.364  0.00  0.00    -0.485 OA
ATOM     13  C   UNL     1       5.982  -2.172   0.074  0.00  0.00    +0.270 C 
ATOM     14  C   UNL     1       5.184  -2.396  -1.218  0.00  0.00    +0.270 C 
ATOM     15  O   UNL     1       3.850  -1.918  -1.009  0.00  0.00    -0.485 OA
ENDBRANCH   3   5
BRANCH   1  16
ATOM     16  C   UNL     1      -1.330   1.944   0.002  0.00  0.00    +0.328 C 
BRANCH  16  17
ATOM     17  O   UNL     1      -2.420   0.985  -0.003  0.00  0.00    -0.452 OA
BRANCH  17  18
ATOM     18  C   UNL     1      -3.672   1.482  -0.004  0.00  0.00    +0.340 C 
ATOM     19  O   UNL     1      -3.848   2.684  -0.002  0.00  0.00    -0.245 OA
BRANCH  18  24
ATOM     20  C   UNL     1      -8.184  -2.088  -0.021  0.00  0.00    +0.044 C 
ATOM     21  C   UNL     1      -7.002  -1.152  -0.017  0.00  0.00    -0.050 A 
ATOM     22  C   UNL     1      -6.460  -0.722  -1.215  0.00  0.00    +0.007 A 
ATOM     23  C   UNL     1      -5.378   0.134  -1.218  0.00  0.00    -0.036 A 
ATOM     24  C   UNL     1      -4.831   0.566  -0.009  0.00  0.00    +0.065 A 
ATOM     25  C   UNL     1      -5.380   0.124   1.197  0.00  0.00    -0.036 A 
ATOM     26  C   UNL     1      -6.465  -0.728   1.185  0.00  0.00    +0.007 A 
ATOM     27  C   UNL     1      -4.792   0.581   2.507  0.00  0.00    +0.044 C 
ATOM     28  C   UNL     1      -4.789   0.602  -2.524  0.00  0.00    +0.044 C 
ENDBRANCH  18  24
ENDBRANCH  17  18
ENDBRANCH  16  17
ENDBRANCH   1  16
TORSDOF 5
