REMARK  Name = ZINC38909782
REMARK  4 active torsions:
REMARK  status: ('A' for Active; 'I' for Inactive)
REMARK    1  A    between atoms: C_8  and  C_11
REMARK    2  A    between atoms: C_13  and  C_16
REMARK    3  A    between atoms: N_18  and  C_19
REMARK    4  A    between atoms: C_21  and  C_24
REMARK                            x       y       z     vdW  Elec       q    Type
REMARK                         _______ _______ _______ _____ _____    ______ ____
ROOT
ATOM      1  C   UNL     1       3.761  -3.379  -0.053  0.00  0.00    +0.125 A 
ATOM      2  N   UNL     1       5.076  -3.515  -0.061  0.00  0.00    -0.233 NA
ATOM      3  C   UNL     1       5.585  -4.738  -0.074  0.00  0.00    +0.134 A 
ATOM      4  C   UNL     1       4.725  -5.817  -0.079  0.00  0.00    +0.080 A 
ATOM      5  S   UNL     1       3.214  -5.077  -0.056  0.00  0.00    -0.073 S 
ENDROOT
BRANCH   1  13
ATOM      6  C   UNL     1      -0.016   1.361   0.009  0.00  0.00    +0.001 A 
ATOM      7  C   UNL     1       1.170   2.083   0.002  0.00  0.00    +0.002 A 
ATOM      8  C   UNL     1       2.386   1.437  -0.013  0.00  0.00    +0.026 A 
ATOM      9  C   UNL     1       2.431   0.046  -0.021  0.00  0.00    +0.047 A 
ATOM     10  C   UNL     1       1.225  -0.682  -0.013  0.00  0.00    +0.000 A 
ATOM     11  C   UNL     1       0.002  -0.004   0.002  0.00  0.00    +0.010 A 
ATOM     12  C   UNL     1       1.598  -2.094  -0.025  0.00  0.00    +0.038 A 
ATOM     13  C   UNL     1       2.956  -2.145  -0.038  0.00  0.00    +0.073 A 
ATOM     14  N   UNL     1       3.463  -0.864  -0.037  0.00  0.00    -0.353 N 
ATOM     15  H   UNL     1       4.407  -0.638  -0.045  0.00  0.00    +0.166 HD
ENDBRANCH   1  13
BRANCH   3  16
ATOM     16  C   UNL     1       7.044  -4.943  -0.085  0.00  0.00    +0.269 C 
ATOM     17  O   UNL     1       7.500  -6.070  -0.097  0.00  0.00    -0.268 OA
ATOM     18  N   UNL     1       7.873  -3.880  -0.080  0.00  0.00    -0.249 N 
ATOM     19  H   UNL     1       7.510  -2.981  -0.071  0.00  0.00    +0.158 HD
BRANCH  18  20
ATOM     20  C   UNL     1       9.246  -4.073  -0.090  0.00  0.00    +0.225 A 
ATOM     21  C   UNL     1      10.186  -3.097  -0.082  0.00  0.00    +0.098 A 
ATOM     22  C   UNL     1      11.457  -3.716  -0.097  0.00  0.00    +0.122 A 
ATOM     23  N   UNL     1      11.272  -5.017  -0.113  0.00  0.00    -0.076 NA
ATOM     24  O   UNL     1       9.877  -5.260  -0.103  0.00  0.00    -0.339 OA
BRANCH  22  25
ATOM     25  C   UNL     1      12.763  -3.022  -0.095  0.00  0.00    +0.041 A 
ATOM     26  C   UNL     1      14.023  -3.557  -0.114  0.00  0.00    +0.018 A 
ATOM     27  C   UNL     1      15.104  -2.704  -0.107  0.00  0.00    +0.008 A 
ATOM     28  C   UNL     1      14.889  -1.363  -0.082  0.00  0.00    +0.046 A 
ATOM     29  S   UNL     1      13.106  -1.270  -0.074  0.00  0.00    -0.095 S 
ENDBRANCH  22  25
ENDBRANCH  18  20
ENDBRANCH   3  16
TORSDOF 4
