REMARK  Name = ZINC12501077
REMARK  7 active torsions:
REMARK  status: ('A' for Active; 'I' for Inactive)
REMARK    1  A    between atoms: C_6  and  O_29
REMARK    2  A    between atoms: C_7  and  C_11
REMARK    3  A    between atoms: N_13  and  N_14
REMARK    4  A    between atoms: N_14  and  C_15
REMARK    5  A    between atoms: C_15  and  N_17
REMARK    6  A    between atoms: C_18  and  C_20
REMARK    7  A    between atoms: C_23  and  N_26
REMARK                            x       y       z     vdW  Elec       q    Type
REMARK                         _______ _______ _______ _____ _____    ______ ____
ROOT
ATOM      1  N   UNL     1       1.499  -6.319  -0.048  0.00  0.00    -0.245 N 
ATOM      2  H   UNL     1       2.358  -6.768  -0.058  0.00  0.00    +0.172 HD
ENDROOT
BRANCH   1   5
ATOM      3  C   UNL     1       2.578  -4.197  -0.045  0.00  0.00    +0.264 C 
ATOM      4  O   UNL     1       3.655  -4.760  -0.059  0.00  0.00    -0.269 OA
ATOM      5  N   UNL     1       1.440  -4.919  -0.039  0.00  0.00    -0.231 N 
ATOM      6  H   UNL     1       0.581  -4.470  -0.028  0.00  0.00    +0.173 HD
BRANCH   3  13
ATOM      7  C   UNL     1      -0.016   1.356   0.009  0.00  0.00    +0.001 A 
ATOM      8  C   UNL     1       1.169   2.090   0.002  0.00  0.00    +0.001 A 
ATOM      9  C   UNL     1       2.379   1.467  -0.013  0.00  0.00    +0.008 A 
ATOM     10  C   UNL     1       2.440   0.063  -0.021  0.00  0.00    -0.014 A 
ATOM     11  C   UNL     1       3.675  -0.608  -0.036  0.00  0.00    +0.054 A 
ATOM     12  C   UNL     1       3.710  -1.970  -0.043  0.00  0.00    +0.130 A 
ATOM     13  C   UNL     1       2.516  -2.722  -0.036  0.00  0.00    +0.080 A 
ATOM     14  C   UNL     1       1.286  -2.085  -0.022  0.00  0.00    +0.025 A 
ATOM     15  C   UNL     1       1.234  -0.684  -0.013  0.00  0.00    -0.017 A 
ATOM     16  C   UNL     1       0.002  -0.004   0.002  0.00  0.00    +0.008 A 
BRANCH  12  17
ATOM     17  O   UNL     1       4.907  -2.611  -0.057  0.00  0.00    -0.506 OA
ATOM     18  H   UNL     1       5.262  -2.801   0.822  0.00  0.00    +0.292 HD
ENDBRANCH  12  17
ENDBRANCH   3  13
ENDBRANCH   1   5
BRANCH   1  19
ATOM     19  C   UNL     1       0.361  -7.041  -0.041  0.00  0.00    +0.153 C 
ATOM     20  S   UNL     1       0.433  -8.752  -0.052  0.00  0.00    -0.017 S 
BRANCH  19  21
ATOM     21  N   UNL     1      -0.833  -6.417  -0.026  0.00  0.00    -0.263 N 
ATOM     22  C   UNL     1      -1.971  -7.139  -0.020  0.00  0.00    +0.250 C 
ATOM     23  O   UNL     1      -1.920  -8.353  -0.028  0.00  0.00    -0.270 OA
ATOM     24  H   UNL     1      -0.874  -5.448  -0.020  0.00  0.00    +0.157 HD
BRANCH  22  25
ATOM     25  C   UNL     1      -3.281  -6.455  -0.004  0.00  0.00    +0.037 A 
ATOM     26  C   UNL     1      -3.343  -5.060  -0.001  0.00  0.00    +0.015 A 
ATOM     27  C   UNL     1      -4.569  -4.428   0.014  0.00  0.00    +0.033 A 
ATOM     28  C   UNL     1      -5.735  -5.172   0.026  0.00  0.00    +0.126 A 
ATOM     29  C   UNL     1      -5.680  -6.555   0.024  0.00  0.00    +0.033 A 
ATOM     30  C   UNL     1      -4.461  -7.200   0.003  0.00  0.00    +0.015 A 
BRANCH  28  31
ATOM     31  N   UNL     1      -7.047  -4.487   0.043  0.00  0.00    +0.056 N 
ATOM     32  O   UNL     1      -7.097  -3.279   0.045  0.00  0.00    -0.126 OA
ATOM     33  O   UNL     1      -8.067  -5.134   0.053  0.00  0.00    -0.126 OA
ENDBRANCH  28  31
ENDBRANCH  22  25
ENDBRANCH  19  21
ENDBRANCH   1  19
TORSDOF 7
