REMARK  Name = ZINC17195877
REMARK  10 active torsions:
REMARK  status: ('A' for Active; 'I' for Inactive)
REMARK    1  A    between atoms: C_1  and  C_2
REMARK    2  A    between atoms: C_2  and  C_3
REMARK    3  A    between atoms: N_5  and  C_6
REMARK    4  A    between atoms: C_6  and  C_7
REMARK    5  A    between atoms: C_7  and  C_8
REMARK    6  A    between atoms: C_17  and  C_18
REMARK    7  A    between atoms: N_24  and  C_27
REMARK    8  A    between atoms: C_30  and  C_33
REMARK    9  A    between atoms: C_33  and  C_34
REMARK   10  A    between atoms: C_33  and  C_35
REMARK                            x       y       z     vdW  Elec       q    Type
REMARK                         _______ _______ _______ _____ _____    ______ ____
ROOT
ATOM      1  C   UNL     1       0.138  -5.465   5.168  0.00  0.00    +0.044 C 
ATOM      2  C   UNL     1      -0.187  -5.396   6.515  0.00  0.00    +0.103 C 
ATOM      3  C   UNL     1      -1.472  -4.827   6.972  0.00  0.00    +0.276 C 
ATOM      4  N   UNL     1      -1.721  -4.792   8.291  0.00  0.00    -0.123 NA
ATOM      5  C   UNL     1      -0.864  -5.244   9.171  0.00  0.00    +0.340 C 
ATOM      6  O   UNL     1      -1.194  -5.171  10.476  0.00  0.00    -0.250 OA
ATOM      7  N   UNL     1       0.341  -5.784   8.843  0.00  0.00    -0.188 N 
ATOM      8  C   UNL     1       0.730  -5.893   7.555  0.00  0.00    +0.264 C 
ATOM      9  O   UNL     1       1.807  -6.381   7.263  0.00  0.00    -0.269 OA
ATOM     10  O   UNL     1      -2.286  -4.400   6.170  0.00  0.00    -0.268 OA
ENDROOT
BRANCH   1  20
ATOM     11  C   UNL     1       1.758  -6.706   3.758  0.00  0.00    -0.013 A 
ATOM     12  C   UNL     1       3.167  -6.788   3.691  0.00  0.00    +0.003 A 
ATOM     13  C   UNL     1       4.048  -7.504   2.866  0.00  0.00    +0.010 A 
ATOM     14  C   UNL     1       5.395  -7.378   3.043  0.00  0.00    +0.001 A 
ATOM     15  C   UNL     1       5.904  -6.547   4.034  0.00  0.00    +0.002 A 
ATOM     16  C   UNL     1       5.060  -5.835   4.856  0.00  0.00    +0.026 A 
ATOM     17  C   UNL     1       3.681  -5.944   4.696  0.00  0.00    +0.047 A 
ATOM     18  N   UNL     1       2.614  -5.372   5.349  0.00  0.00    -0.354 N 
ATOM     19  H   UNL     1       2.674  -4.746   6.087  0.00  0.00    +0.166 HD
ATOM     20  C   UNL     1       1.442  -5.830   4.775  0.00  0.00    +0.044 A 
BRANCH  11  21
ATOM     21  C   UNL     1       0.780  -7.437   2.875  0.00  0.00    +0.056 C 
BRANCH  21  22
ATOM     22  C   UNL     1       0.474  -6.587   1.640  0.00  0.00    +0.109 C 
BRANCH  22  25
ATOM     23  C   UNL     1      -0.894  -6.737  -0.371  0.00  0.00    +0.213 C 
ATOM     24  O   UNL     1      -0.482  -5.644  -0.698  0.00  0.00    -0.276 OA
ATOM     25  N   UNL     1      -0.477  -7.298   0.781  0.00  0.00    -0.315 N 
ATOM     26  H   UNL     1      -0.806  -8.172   1.042  0.00  0.00    +0.149 HD
BRANCH  23  28
ATOM     27  C   UNL     1      -2.178  -6.619  -2.489  0.00  0.00    +0.013 C 
ATOM     28  C   UNL     1      -1.872  -7.468  -1.254  0.00  0.00    +0.092 C 
ENDBRANCH  23  28
ENDBRANCH  22  25
ENDBRANCH  21  22
ENDBRANCH  11  21
ENDBRANCH   1  20
BRANCH   7  29
ATOM     29  C   UNL     1       1.190  -6.240   9.860  0.00  0.00    +0.046 A 
ATOM     30  C   UNL     1       2.104  -5.373  10.444  0.00  0.00    +0.024 A 
ATOM     31  C   UNL     1       2.940  -5.826  11.446  0.00  0.00    +0.006 A 
ATOM     32  C   UNL     1       2.868  -7.141  11.867  0.00  0.00    -0.045 A 
ATOM     33  C   UNL     1       1.960  -8.007  11.287  0.00  0.00    +0.006 A 
ATOM     34  C   UNL     1       1.117  -7.558  10.289  0.00  0.00    +0.024 A 
BRANCH  32  35
ATOM     35  C   UNL     1       3.783  -7.632  12.960  0.00  0.00    +0.013 C 
ATOM     36  C   UNL     1       2.946  -8.134  14.138  0.00  0.00    +0.012 C 
ATOM     37  C   UNL     1       4.648  -8.775  12.425  0.00  0.00    +0.012 C 
ENDBRANCH  32  35
ENDBRANCH   7  29
TORSDOF 7
