REMARK  Name = ZINC66838950
REMARK  6 active torsions:
REMARK  status: ('A' for Active; 'I' for Inactive)
REMARK    1  A    between atoms: C_1  and  C_2
REMARK    2  A    between atoms: C_2  and  C_4
REMARK    3  A    between atoms: C_2  and  N_20
REMARK    4  A    between atoms: N_6  and  C_7
REMARK    5  A    between atoms: N_11  and  C_13
REMARK    6  A    between atoms: C_21  and  C_23
REMARK                            x       y       z     vdW  Elec       q    Type
REMARK                         _______ _______ _______ _____ _____    ______ ____
ROOT
ATOM      1  C   UNL     1      -1.412  -0.526   0.013  0.00  0.00    +0.233 C 
ATOM      2  O   UNL     1      -1.790  -1.233   0.922  0.00  0.00    -0.274 OA
ATOM      3  N   UNL     1      -2.256  -0.206  -0.988  0.00  0.00    -0.313 N 
ATOM      4  H   UNL     1      -1.953   0.360  -1.716  0.00  0.00    +0.149 HD
ENDROOT
BRANCH   3   5
ATOM      5  C   UNL     1      -3.630  -0.713  -0.978  0.00  0.00    +0.055 C 
ATOM      6  C   UNL     1      -3.722  -2.084  -1.699  0.00  0.00    +0.002 C 
ATOM      7  C   UNL     1      -5.186  -2.123  -2.186  0.00  0.00    -0.077 C 
ATOM      8  N   UNL     1      -5.660  -0.729  -2.256  0.00  0.00    +0.383 N 
ATOM      9  C   UNL     1      -4.553   0.167  -1.858  0.00  0.00    -0.056 C 
ATOM     10  H   UNL     1      -6.440  -0.603  -1.627  0.00  0.00    -0.081 HD
BRANCH   8  11
ATOM     11  C   UNL     1      -6.080  -0.417  -3.629  0.00  0.00    -0.069 C 
ATOM     12  C   UNL     1      -6.469   1.073  -3.706  0.00  0.00    -0.015 C 
ATOM     13  C   UNL     1      -6.400   1.511  -5.144  0.00  0.00    -0.002 C 
ATOM     14  C   UNL     1      -7.763   1.412  -5.857  0.00  0.00    -0.000 C 
ATOM     15  C   UNL     1      -8.532   0.126  -5.500  0.00  0.00    -0.000 C 
ATOM     16  C   UNL     1      -7.640  -1.085  -5.453  0.00  0.00    -0.002 C 
ATOM     17  C   UNL     1      -7.178  -1.298  -3.997  0.00  0.00    -0.015 C 
ENDBRANCH   8  11
ENDBRANCH   3   5
BRANCH   1  19
ATOM     18  C   UNL     1      -0.019   1.526   0.010  0.00  0.00    +0.038 C 
ATOM     19  C   UNL     1       0.002  -0.004   0.002  0.00  0.00    +0.156 C 
BRANCH  19  20
ATOM     20  N   UNL     1       0.711  -0.489   1.189  0.00  0.00    -0.304 N 
ATOM     21  C   UNL     1       2.054  -0.600   1.174  0.00  0.00    +0.217 C 
ATOM     22  O   UNL     1       2.676  -0.297   0.177  0.00  0.00    -0.275 OA
ATOM     23  H   UNL     1       0.213  -0.731   1.986  0.00  0.00    +0.149 HD
BRANCH  21  24
ATOM     24  C   UNL     1       2.783  -1.099   2.395  0.00  0.00    +0.079 C 
ATOM     25  C   UNL     1       2.512  -0.159   3.573  0.00  0.00    +0.041 C 
ATOM     26  C   UNL     1       3.318  -0.629   4.787  0.00  0.00    +0.160 C 
ATOM     27  O   UNL     1       4.706  -0.664   4.450  0.00  0.00    -0.380 OA
ATOM     28  C   UNL     1       5.026  -1.562   3.385  0.00  0.00    +0.160 C 
ATOM     29  C   UNL     1       4.288  -1.129   2.116  0.00  0.00    +0.041 C 
ENDBRANCH  21  24
ENDBRANCH  19  20
ENDBRANCH   1  19
TORSDOF 5
