REMARK  Name = ZINC19715495
REMARK  7 active torsions:
REMARK  status: ('A' for Active; 'I' for Inactive)
REMARK    1  A    between atoms: C_1  and  C_2
REMARK    2  A    between atoms: C_2  and  C_3
REMARK    3  A    between atoms: C_4  and  C_30
REMARK    4  A    between atoms: C_8  and  C_10
REMARK    5  A    between atoms: C_10  and  N_11
REMARK    6  A    between atoms: C_15  and  C_17
REMARK    7  A    between atoms: C_17  and  C_18
REMARK                            x       y       z     vdW  Elec       q    Type
REMARK                         _______ _______ _______ _____ _____    ______ ____
ROOT
ATOM      1  N   UNL     1       6.103  -2.584  -5.294  0.00  0.00    +0.386 N 
ATOM      2  C   UNL     1       5.793  -1.489  -6.221  0.00  0.00    -0.078 C 
ATOM      3  C   UNL     1       5.949  -1.977  -7.663  0.00  0.00    -0.018 C 
ATOM      4  C   UNL     1       7.390  -2.442  -7.885  0.00  0.00    +0.000 C 
ATOM      5  C   UNL     1       7.727  -3.533  -6.864  0.00  0.00    -0.020 C 
ATOM      6  C   UNL     1       7.505  -2.988  -5.452  0.00  0.00    -0.074 C 
ATOM      7  H   UNL     1       5.503  -3.371  -5.493  0.00  0.00    -0.081 HD
ENDROOT
BRANCH   1   8
ATOM      8  C   UNL     1       5.877  -2.134  -3.914  0.00  0.00    +0.019 C 
BRANCH   8  14
ATOM      9  C   UNL     1       0.707  -0.490  -1.238  0.00  0.00    +0.053 A 
ATOM     10  C   UNL     1       0.033  -0.724  -2.390  0.00  0.00    +0.011 A 
ATOM     11  S   UNL     1       1.365  -1.259  -3.453  0.00  0.00    -0.057 S 
ATOM     12  C   UNL     1       2.618  -1.130  -2.337  0.00  0.00    +0.165 A 
ATOM     13  N   UNL     1       3.969  -1.405  -2.519  0.00  0.00    -0.266 N 
ATOM     14  C   UNL     1       4.413  -1.836  -3.716  0.00  0.00    +0.202 C 
ATOM     15  O   UNL     1       3.635  -1.984  -4.635  0.00  0.00    -0.277 OA
ATOM     16  N   UNL     1       2.010  -0.702  -1.252  0.00  0.00    -0.229 NA
ATOM     17  H   UNL     1       4.591  -1.288  -1.784  0.00  0.00    +0.157 HD
ATOM     18  C   UNL     1      -1.436  -0.574  -2.692  0.00  0.00    +0.053 C 
BRANCH   9  20
ATOM     19  C   UNL     1      -0.019   1.526   0.010  0.00  0.00    +0.010 C 
ATOM     20  C   UNL     1       0.002  -0.004   0.002  0.00  0.00    +0.053 C 
ENDBRANCH   9  20
ENDBRANCH   8  14
ENDBRANCH   1   8
BRANCH   5  21
ATOM     21  C   UNL     1       9.190  -3.951  -7.027  0.00  0.00    +0.076 C 
BRANCH  21  22
ATOM     22  C   UNL     1       9.382  -4.595  -8.375  0.00  0.00    +0.108 A 
ATOM     23  N   UNL     1       8.696  -5.606  -8.822  0.00  0.00    -0.232 NA
ATOM     24  C   UNL     1       9.124  -5.933 -10.069  0.00  0.00    +0.089 A 
ATOM     25  C   UNL     1       8.748  -6.913 -10.991  0.00  0.00    +0.032 A 
ATOM     26  C   UNL     1       9.383  -6.995 -12.197  0.00  0.00    +0.040 A 
ATOM     27  C   UNL     1      10.406  -6.110 -12.520  0.00  0.00    +0.125 A 
ATOM     28  C   UNL     1      10.794  -5.134 -11.624  0.00  0.00    +0.066 A 
ATOM     29  C   UNL     1      10.158  -5.038 -10.395  0.00  0.00    +0.069 A 
ATOM     30  N   UNL     1      10.294  -4.201  -9.305  0.00  0.00    -0.342 N 
ATOM     31  F   UNL     1      11.023  -6.206 -13.718  0.00  0.00    -0.205 F 
ATOM     32  H   UNL     1      10.924  -3.468  -9.218  0.00  0.00    +0.167 HD
ENDBRANCH  21  22
ENDBRANCH   5  21
TORSDOF 5
