REMARK  Name = ZINC02724248
REMARK  5 active torsions:
REMARK  status: ('A' for Active; 'I' for Inactive)
REMARK    1  A    between atoms: C_1  and  C_2
REMARK    2  A    between atoms: C_8  and  C_25
REMARK    3  A    between atoms: C_15  and  C_17
REMARK    4  A    between atoms: C_20  and  C_24
REMARK    5  A    between atoms: C_21  and  C_23
REMARK                            x       y       z     vdW  Elec       q    Type
REMARK                         _______ _______ _______ _____ _____    ______ ____
ROOT
ATOM      1  C   UNL     1      -1.696   0.035  -1.196  0.00  0.00    +0.044 C 
ATOM      2  C   UNL     1      -0.356   0.710  -1.049  0.00  0.00    -0.050 A 
ATOM      3  C   UNL     1       0.811  -0.004  -1.246  0.00  0.00    +0.005 A 
ATOM      4  C   UNL     1       2.024   0.623  -1.103  0.00  0.00    +0.024 A 
ATOM      5  C   UNL     1       2.112   1.982  -0.757  0.00  0.00    +0.039 A 
ATOM      6  C   UNL     1       0.942   2.692  -0.575  0.00  0.00    -0.001 A 
ATOM      7  C   UNL     1      -0.284   2.045  -0.718  0.00  0.00    +0.011 A 
ATOM      8  C   UNL     1       0.876   4.149  -0.237  0.00  0.00    +0.139 C 
ATOM      9  N   UNL     1       1.939   4.617   0.612  0.00  0.00    -0.278 N 
ATOM     10  C   UNL     1       3.296   4.843   0.145  0.00  0.00    +0.205 C 
ATOM     11  C   UNL     1       3.960   3.540  -0.161  0.00  0.00    +0.235 C 
ATOM     12  O   UNL     1       5.149   3.467   0.065  0.00  0.00    -0.274 OA
ATOM     13  N   UNL     1       3.390   2.475  -0.646  0.00  0.00    -0.284 N 
ATOM     14  C   UNL     1       1.662   4.859   1.909  0.00  0.00    +0.248 C 
ATOM     15  O   UNL     1       2.554   5.167   2.674  0.00  0.00    -0.270 OA
ATOM     16  H   UNL     1       4.040   1.867  -1.030  0.00  0.00    +0.155 HD
ENDROOT
BRANCH  14  17
ATOM     17  C   UNL     1       0.272   4.750   2.400  0.00  0.00    +0.037 A 
ATOM     18  C   UNL     1      -0.285   5.778   3.164  0.00  0.00    +0.013 A 
ATOM     19  C   UNL     1      -1.584   5.672   3.614  0.00  0.00    +0.004 A 
ATOM     20  C   UNL     1      -2.332   4.546   3.321  0.00  0.00    -0.047 A 
ATOM     21  C   UNL     1      -1.785   3.521   2.569  0.00  0.00    -0.047 A 
ATOM     22  C   UNL     1      -0.488   3.617   2.107  0.00  0.00    +0.016 A 
ATOM     23  C   UNL     1      -2.607   2.298   2.254  0.00  0.00    +0.044 C 
ATOM     24  C   UNL     1      -3.749   4.435   3.821  0.00  0.00    +0.044 C 
ENDBRANCH  14  17
BRANCH   8  25
ATOM     25  C   UNL     1       0.909   4.938  -1.520  0.00  0.00    -0.023 A 
ATOM     26  C   UNL     1       1.986   4.816  -2.379  0.00  0.00    +0.006 A 
ATOM     27  C   UNL     1       2.014   5.536  -3.559  0.00  0.00    +0.000 A 
ATOM     28  C   UNL     1       0.970   6.386  -3.875  0.00  0.00    +0.000 A 
ATOM     29  C   UNL     1      -0.104   6.511  -3.014  0.00  0.00    +0.000 A 
ATOM     30  C   UNL     1      -0.135   5.787  -1.836  0.00  0.00    +0.006 A 
ENDBRANCH   8  25
TORSDOF 2
