REMARK  Name = ZINC39217787
REMARK  5 active torsions:
REMARK  status: ('A' for Active; 'I' for Inactive)
REMARK    1  A    between atoms: C_1  and  C_2
REMARK    2  A    between atoms: C_2  and  C_3
REMARK    3  A    between atoms: C_3  and  C_5
REMARK    4  A    between atoms: C_3  and  C_11
REMARK    5  A    between atoms: C_20  and  C_24
REMARK                            x       y       z     vdW  Elec       q    Type
REMARK                         _______ _______ _______ _____ _____    ______ ____
ROOT
ATOM      1  C   UNL     1       0.638  -2.012  -1.339  0.00  0.00    +0.225 C 
ATOM      2  O   UNL     1       1.646  -2.679  -1.470  0.00  0.00    -0.275 OA
ATOM      3  N   UNL     1      -0.557  -2.597  -1.379  0.00  0.00    -0.283 N 
ATOM      4  C   UNL     1      -0.838  -3.599  -0.545  0.00  0.00    +0.061 C 
ATOM      5  C   UNL     1       0.062  -3.967   0.465  0.00  0.00    +0.025 C 
ATOM      6  C   UNL     1      -0.228  -4.998   1.323  0.00  0.00    +0.004 C 
ATOM      7  C   UNL     1      -1.411  -5.730   1.244  0.00  0.00    +0.027 C 
ATOM      8  C   UNL     1      -2.354  -5.456   0.300  0.00  0.00    +0.077 C 
ATOM      9  N   UNL     1      -3.581  -6.017   0.015  0.00  0.00    -0.213 NA
ATOM     10  C   UNL     1      -4.118  -5.269  -1.130  0.00  0.00    +0.314 C 
ATOM     11  N   UNL     1      -3.118  -4.253  -1.473  0.00  0.00    -0.247 NA
ATOM     12  C   UNL     1      -2.117  -4.353  -0.658  0.00  0.00    +0.105 C 
ATOM     13  H   UNL     1      -1.225  -2.294  -2.015  0.00  0.00    +0.155 HD
ENDROOT
BRANCH  10  14
ATOM     14  C   UNL     1      -5.438  -4.598  -0.746  0.00  0.00    +0.430 C 
ATOM     15  F   UNL     1      -5.227  -3.741   0.340  0.00  0.00    -0.167 F 
ATOM     16  F   UNL     1      -5.921  -3.862  -1.834  0.00  0.00    -0.167 F 
ATOM     17  F   UNL     1      -6.373  -5.577  -0.393  0.00  0.00    -0.167 F 
ENDBRANCH  10  14
BRANCH   1  18
ATOM     18  C   UNL     1       0.742  -0.523  -1.132  0.00  0.00    +0.105 C 
BRANCH  18  19
ATOM     19  C   UNL     1       2.193  -0.117  -1.127  0.00  0.00    -0.036 A 
ATOM     20  C   UNL     1       3.057  -0.650  -0.189  0.00  0.00    +0.004 A 
ATOM     21  C   UNL     1       4.388  -0.277  -0.184  0.00  0.00    +0.000 A 
ATOM     22  C   UNL     1       4.855   0.629  -1.118  0.00  0.00    +0.000 A 
ATOM     23  C   UNL     1       3.991   1.162  -2.057  0.00  0.00    +0.000 A 
ATOM     24  C   UNL     1       2.661   0.785  -2.064  0.00  0.00    +0.004 A 
ENDBRANCH  18  19
BRANCH  18  26
ATOM     25  C   UNL     1       0.096   1.374   0.360  0.00  0.00    +0.005 C 
ATOM     26  C   UNL     1       0.102  -0.149   0.206  0.00  0.00    +0.014 C 
ENDBRANCH  18  26
ENDBRANCH   1  18
TORSDOF 4
