REMARK  Name = ZINC20511993
REMARK  7 active torsions:
REMARK  status: ('A' for Active; 'I' for Inactive)
REMARK    1  A    between atoms: C_1  and  O_2
REMARK    2  A    between atoms: O_2  and  C_3
REMARK    3  A    between atoms: C_5  and  C_10
REMARK    4  A    between atoms: C_8  and  O_9
REMARK    5  A    between atoms: C_11  and  C_12
REMARK    6  A    between atoms: C_12  and  N_13
REMARK    7  A    between atoms: C_18  and  C_22
REMARK                            x       y       z     vdW  Elec       q    Type
REMARK                         _______ _______ _______ _____ _____    ______ ____
ROOT
ATOM      1  N   UNL     1       3.864  -1.928   1.089  0.00  0.00    -0.294 NA
ATOM      2  C   UNL     1       2.866  -2.996   0.933  0.00  0.00    +0.091 C 
ATOM      3  C   UNL     1       3.194  -4.153   1.887  0.00  0.00    +0.070 C 
ATOM      4  C   UNL     1       3.428  -3.569   3.259  0.00  0.00    +0.042 A 
ATOM      5  C   UNL     1       3.652  -2.248   3.474  0.00  0.00    +0.015 A 
ATOM      6  C   UNL     1       3.821  -2.059   4.852  0.00  0.00    +0.097 A 
ATOM      7  N   UNL     1       3.704  -3.235   5.438  0.00  0.00    -0.173 NA
ATOM      8  N   UNL     1       3.457  -4.196   4.445  0.00  0.00    -0.281 N 
ATOM      9  H   UNL     1       3.299  -5.284   4.496  0.00  0.00    +0.189 HD
ATOM     10  C   UNL     1       3.700  -1.221   2.371  0.00  0.00    +0.124 C 
ENDROOT
BRANCH   6  11
ATOM     11  C   UNL     1       4.086  -0.766   5.531  0.00  0.00    +0.002 A 
ATOM     12  C   UNL     1       4.876   0.200   4.913  0.00  0.00    +0.010 A 
ATOM     13  C   UNL     1       5.115   1.402   5.547  0.00  0.00    +0.001 A 
ATOM     14  C   UNL     1       4.579   1.645   6.799  0.00  0.00    +0.000 A 
ATOM     15  C   UNL     1       3.798   0.687   7.420  0.00  0.00    +0.001 A 
ATOM     16  C   UNL     1       3.549  -0.517   6.793  0.00  0.00    +0.010 A 
ENDBRANCH   6  11
BRANCH   1  17
ATOM     17  C   UNL     1       3.812  -0.990  -0.040  0.00  0.00    +0.112 C 
BRANCH  17  19
ATOM     18  C   UNL     1       2.477   1.070  -0.016  0.00  0.00    +0.005 C 
ATOM     19  C   UNL     1       2.496  -0.256  -0.023  0.00  0.00    -0.011 C 
BRANCH  18  22
ATOM     20  C   UNL     1      -0.046   3.855   0.022  0.00  0.00    +0.162 A 
ATOM     21  C   UNL     1       1.164   3.185   0.008  0.00  0.00    +0.057 A 
ATOM     22  C   UNL     1       1.186   1.790   0.000  0.00  0.00    -0.022 A 
ATOM     23  C   UNL     1      -0.013   1.076   0.008  0.00  0.00    +0.012 A 
ATOM     24  C   UNL     1      -1.216   1.749   0.017  0.00  0.00    +0.050 A 
ATOM     25  C   UNL     1      -1.239   3.136   0.030  0.00  0.00    +0.158 A 
BRANCH  20  27
ATOM     26  C   UNL     1       1.190   5.886   0.022  0.00  0.00    +0.277 C 
ATOM     27  O   UNL     1      -0.071   5.214   0.030  0.00  0.00    -0.491 OA
ENDBRANCH  20  27
BRANCH  25  28
ATOM     28  O   UNL     1      -2.428   3.795   0.044  0.00  0.00    -0.503 OA
ATOM     29  H   UNL     1      -3.371   3.229   0.050  0.00  0.00    +0.292 HD
ENDBRANCH  25  28
ENDBRANCH  18  22
ENDBRANCH  17  19
ENDBRANCH   1  17
TORSDOF 6
