REMARK  Name = ZINC38687015
REMARK  10 active torsions:
REMARK  status: ('A' for Active; 'I' for Inactive)
REMARK    1  A    between atoms: C_1  and  C_2
REMARK    2  A    between atoms: C_5  and  C_8
REMARK    3  A    between atoms: C_13  and  O_22
REMARK    4  A    between atoms: C_17  and  N_21
REMARK    5  A    between atoms: C_18  and  C_19
REMARK    6  A    between atoms: O_22  and  C_23
REMARK    7  A    between atoms: C_23  and  C_25
REMARK    8  A    between atoms: C_26  and  C_36
REMARK    9  A    between atoms: C_28  and  C_35
REMARK   10  A    between atoms: C_30  and  C_34
REMARK                            x       y       z     vdW  Elec       q    Type
REMARK                         _______ _______ _______ _____ _____    ______ ____
ROOT
ATOM      1  C   UNL     1       0.140  -4.131  -0.186  0.00  0.00    +0.098 C 
ATOM      2  C   UNL     1       1.370  -4.635   0.521  0.00  0.00    +0.008 A 
ATOM      3  C   UNL     1       2.586  -4.626  -0.139  0.00  0.00    +0.012 A 
ATOM      4  C   UNL     1       3.724  -5.085   0.493  0.00  0.00    +0.047 A 
ATOM      5  C   UNL     1       3.651  -5.558   1.796  0.00  0.00    +0.136 A 
ATOM      6  C   UNL     1       2.435  -5.568   2.460  0.00  0.00    +0.093 A 
ATOM      7  C   UNL     1       1.291  -5.106   1.822  0.00  0.00    +0.138 A 
ATOM      8  O   UNL     1       0.108  -5.123   2.485  0.00  0.00    -0.441 OA
ATOM      9  C   UNL     1      -1.045  -5.058   1.799  0.00  0.00    +0.199 C 
ATOM     10  C   UNL     1      -1.096  -4.597   0.531  0.00  0.00    +0.098 C 
ENDROOT
BRANCH   1  15
ATOM     11  C   UNL     1       0.223   1.646  -0.293  0.00  0.00    +0.044 C 
ATOM     12  C   UNL     1       0.202   0.140  -0.265  0.00  0.00    -0.050 A 
ATOM     13  C   UNL     1       0.187  -0.573  -1.449  0.00  0.00    +0.003 A 
ATOM     14  C   UNL     1       0.167  -1.955  -1.424  0.00  0.00    +0.005 A 
ATOM     15  C   UNL     1       0.162  -2.624  -0.214  0.00  0.00    -0.035 A 
ATOM     16  C   UNL     1       0.178  -1.911   0.970  0.00  0.00    +0.005 A 
ATOM     17  C   UNL     1       0.202  -0.529   0.945  0.00  0.00    +0.003 A 
ENDBRANCH   1  15
BRANCH   9  18
ATOM     18  N   UNL     1      -2.205  -5.472   2.406  0.00  0.00    -0.328 N 
ATOM     19  H   UNL     1      -2.183  -5.805   3.317  0.00  0.00    +0.145 HD
ATOM     20  H   UNL     1      -3.045  -5.432   1.924  0.00  0.00    +0.145 HD
ENDBRANCH   9  18
BRANCH  10  21
ATOM     21  C   UNL     1      -2.358  -4.553  -0.145  0.00  0.00    +0.101 C 
ATOM     22  N   UNL     1      -3.359  -4.518  -0.681  0.00  0.00    -0.191 NA
ENDBRANCH  10  21
BRANCH   5  23
ATOM     23  O   UNL     1       4.771  -6.011   2.420  0.00  0.00    -0.420 OA
BRANCH  23  24
ATOM     24  C   UNL     1       4.843  -7.325   2.714  0.00  0.00    +0.380 C 
ATOM     25  O   UNL     1       3.970  -8.082   2.336  0.00  0.00    -0.241 OA
BRANCH  24  26
ATOM     26  C   UNL     1       5.977  -7.841   3.490  0.00  0.00    +0.216 A 
ATOM     27  C   UNL     1       6.158  -9.142   3.840  0.00  0.00    +0.010 A 
ATOM     28  C   UNL     1       7.407  -9.188   4.598  0.00  0.00    +0.027 A 
ATOM     29  C   UNL     1       8.131 -10.207   5.222  0.00  0.00    -0.039 A 
ATOM     30  C   UNL     1       9.298  -9.911   5.869  0.00  0.00    +0.007 A 
ATOM     31  C   UNL     1       9.768  -8.605   5.909  0.00  0.00    -0.047 A 
ATOM     32  C   UNL     1       9.069  -7.586   5.300  0.00  0.00    +0.050 A 
ATOM     33  C   UNL     1       7.879  -7.862   4.636  0.00  0.00    +0.137 A 
ATOM     34  O   UNL     1       7.001  -7.097   3.960  0.00  0.00    -0.448 OA
ATOM     35  C   UNL     1      11.057  -8.299   6.627  0.00  0.00    +0.044 C 
ATOM     36  C   UNL     1       7.627 -11.627   5.183  0.00  0.00    +0.044 C 
ATOM     37  C   UNL     1       5.254 -10.303   3.513  0.00  0.00    +0.048 C 
ENDBRANCH  24  26
ENDBRANCH  23  24
ENDBRANCH   5  23
TORSDOF 6
