REMARK  Name = ZINC39468788
REMARK  5 active torsions:
REMARK  status: ('A' for Active; 'I' for Inactive)
REMARK    1  A    between atoms: C_4  and  C_7
REMARK    2  A    between atoms: C_7  and  C_8
REMARK    3  A    between atoms: C_25  and  S_26
REMARK    4  A    between atoms: S_26  and  O_29
REMARK    5  A    between atoms: O_29  and  C_30
REMARK                            x       y       z     vdW  Elec       q    Type
REMARK                         _______ _______ _______ _____ _____    ______ ____
ROOT
ATOM      1  C   UNL     1       3.896  -1.052   1.580  0.00  0.00    -0.019 C 
ATOM      2  C   UNL     1       3.702  -2.249   2.136  0.00  0.00    -0.017 C 
ATOM      3  C   UNL     1       4.440  -2.586   3.403  0.00  0.00    +0.016 C 
ATOM      4  C   UNL     1       4.565  -4.093   3.597  0.00  0.00    -0.003 C 
ATOM      5  C   UNL     1       5.357  -4.379   4.881  0.00  0.00    -0.020 C 
ATOM      6  C   UNL     1       5.473  -5.903   5.015  0.00  0.00    +0.159 C 
ATOM      7  O   UNL     1       6.133  -6.223   6.253  0.00  0.00    -0.297 OA
ATOM      8  P   UNL     1       7.534  -5.465   6.583  0.00  0.00    +0.421 P 
ATOM      9  O   UNL     1       8.701  -6.144   5.832  0.00  0.00    -0.239 OA
ATOM     10  N   UNL     1       7.329  -3.918   6.042  0.00  0.00    -0.267 NA
ATOM     11  N   UNL     1       6.682  -3.762   4.832  0.00  0.00    +0.399 N 
ATOM     12  C   UNL     1       6.591  -2.307   4.618  0.00  0.00    -0.046 C 
ATOM     13  C   UNL     1       5.857  -2.002   3.320  0.00  0.00    +0.006 C 
ATOM     14  C   UNL     1       5.758  -0.526   3.049  0.00  0.00    +0.006 C 
ATOM     15  C   UNL     1       4.815  -0.091   2.215  0.00  0.00    +0.128 C 
ATOM     16  O   UNL     1       7.801  -5.471   8.105  0.00  0.00    -0.128 OA
ATOM     17  H   UNL     1       7.657  -3.160   6.550  0.00  0.00    +0.113 HD
ATOM     18  H   UNL     1       7.221  -4.180   4.089  0.00  0.00    -0.055 HD
ENDROOT
BRANCH  15  19
ATOM     19  S   UNL     1       4.663   1.632   1.878  0.00  0.00    +0.151 S 
ATOM     20  O   UNL     1       5.676   2.284   2.633  0.00  0.00    -0.131 OA
ATOM     21  O   UNL     1       4.561   1.763   0.467  0.00  0.00    -0.131 OA
BRANCH  19  22
ATOM     22  O   UNL     1       3.330   2.087   2.455  0.00  0.00    -0.342 OA
BRANCH  22  23
ATOM     23  C   UNL     1       3.324   2.204   3.809  0.00  0.00    +0.157 A 
ATOM     24  C   UNL     1       2.978   1.118   4.599  0.00  0.00    +0.048 A 
ATOM     25  C   UNL     1       2.974   1.239   5.975  0.00  0.00    +0.004 A 
ATOM     26  C   UNL     1       3.313   2.442   6.565  0.00  0.00    +0.000 A 
ATOM     27  C   UNL     1       3.658   3.527   5.780  0.00  0.00    +0.004 A 
ATOM     28  C   UNL     1       3.670   3.409   4.403  0.00  0.00    +0.048 A 
ENDBRANCH  22  23
ENDBRANCH  19  22
ENDBRANCH  15  19
BRANCH   1  29
ATOM     29  C   UNL     1       3.182  -0.687   0.304  0.00  0.00    +0.072 C 
BRANCH  29  33
ATOM     30  C   UNL     1       5.484  -2.005  -3.045  0.00  0.00    +0.000 A 
ATOM     31  C   UNL     1       4.643  -2.888  -2.394  0.00  0.00    +0.000 A 
ATOM     32  C   UNL     1       3.898  -2.461  -1.310  0.00  0.00    +0.004 A 
ATOM     33  C   UNL     1       3.995  -1.152  -0.877  0.00  0.00    -0.043 A 
ATOM     34  C   UNL     1       4.837  -0.269  -1.527  0.00  0.00    +0.004 A 
ATOM     35  C   UNL     1       5.580  -0.695  -2.612  0.00  0.00    +0.000 A 
ENDBRANCH  29  33
ENDBRANCH   1  29
TORSDOF 5
