REMARK  Name = ZINC43554326
REMARK  13 active torsions:
REMARK  status: ('A' for Active; 'I' for Inactive)
REMARK    1  A    between atoms: C_1  and  C_2
REMARK    2  A    between atoms: C_2  and  C_3
REMARK    3  A    between atoms: C_3  and  C_4
REMARK    4  A    between atoms: C_4  and  C_5
REMARK    5  A    between atoms: C_5  and  C_6
REMARK    6  A    between atoms: C_17  and  C_39
REMARK    7  A    between atoms: C_18  and  C_20
REMARK    8  A    between atoms: C_20  and  C_21
REMARK    9  A    between atoms: N_23  and  C_24
REMARK   10  A    between atoms: C_32  and  O_38
REMARK   11  A    between atoms: C_34  and  C_35
REMARK   12  A    between atoms: C_34  and  C_36
REMARK   13  A    between atoms: C_36  and  O_37
REMARK                            x       y       z     vdW  Elec       q    Type
REMARK                         _______ _______ _______ _____ _____    ______ ____
ROOT
ATOM      1  C   UNL     1      -3.042  -4.075  -0.823  0.00  0.00    +0.219 C 
ATOM      2  O   UNL     1      -1.983  -4.666  -0.821  0.00  0.00    -0.275 OA
ATOM      3  N   UNL     1      -4.194  -4.755  -0.658  0.00  0.00    -0.265 N 
ATOM      4  C   UNL     1      -4.168  -6.134  -0.487  0.00  0.00    +0.165 A 
ATOM      5  N   UNL     1      -5.182  -6.954  -0.314  0.00  0.00    -0.229 NA
ATOM      6  C   UNL     1      -5.002  -8.259  -0.156  0.00  0.00    +0.058 A 
ATOM      7  C   UNL     1      -3.713  -8.678  -0.195  0.00  0.00    +0.015 A 
ATOM      8  S   UNL     1      -2.832  -7.161  -0.450  0.00  0.00    -0.057 S 
ATOM      9  C   UNL     1      -3.198 -10.065  -0.058  0.00  0.00    +0.049 C 
ATOM     10  C   UNL     1      -4.321 -11.081   0.226  0.00  0.00    +0.011 C 
ATOM     11  C   UNL     1      -5.620 -10.654  -0.447  0.00  0.00    -0.019 C 
ATOM     12  C   UNL     1      -6.090  -9.290   0.070  0.00  0.00    +0.054 C 
ATOM     13  C   UNL     1      -5.424 -10.650  -1.958  0.00  0.00    +0.010 C 
ATOM     14  C   UNL     1      -5.100 -12.068  -2.428  0.00  0.00    +0.032 C 
ATOM     15  C   UNL     1      -3.859 -12.621  -1.753  0.00  0.00    +0.123 C 
ATOM     16  C   UNL     1      -3.818 -12.445  -0.244  0.00  0.00    +0.021 C 
ATOM     17  C   UNL     1      -4.557 -13.600   0.444  0.00  0.00    +0.016 C 
ATOM     18  C   UNL     1      -6.770 -11.612  -0.103  0.00  0.00    +0.012 C 
ATOM     19  H   UNL     1      -5.040  -4.282  -0.659  0.00  0.00    +0.157 HD
ENDROOT
BRANCH  15  20
ATOM     20  O   UNL     1      -2.688 -12.048  -2.349  0.00  0.00    -0.391 OA
ATOM     21  H   UNL     1      -2.600 -12.229  -3.295  0.00  0.00    +0.210 HD
ENDBRANCH  15  20
BRANCH   1  22
ATOM     22  C   UNL     1      -3.069  -2.580  -1.008  0.00  0.00    +0.096 C 
BRANCH  22  23
ATOM     23  C   UNL     1      -1.640  -2.059  -1.171  0.00  0.00    +0.009 C 
BRANCH  23  24
ATOM     24  C   UNL     1      -1.668  -0.541  -1.360  0.00  0.00    +0.000 C 
BRANCH  24  26
ATOM     25  C   UNL     1      -0.267   1.497  -1.712  0.00  0.00    +0.004 C 
ATOM     26  C   UNL     1      -0.238  -0.021  -1.523  0.00  0.00    -0.003 C 
ENDBRANCH  24  26
ENDBRANCH  23  24
ENDBRANCH  22  23
ENDBRANCH   1  22
BRANCH  12  27
ATOM     27  C   UNL     1      -7.382  -8.867  -0.624  0.00  0.00    +0.106 C 
BRANCH  27  28
ATOM     28  C   UNL     1      -7.927  -7.630   0.042  0.00  0.00    +0.218 C 
ATOM     29  O   UNL     1      -7.338  -7.136   0.979  0.00  0.00    -0.275 OA
ATOM     30  N   UNL     1      -9.070  -7.072  -0.406  0.00  0.00    -0.285 N 
ATOM     31  H   UNL     1      -9.579  -7.507  -1.108  0.00  0.00    +0.155 HD
BRANCH  30  32
ATOM     32  C   UNL     1      -9.521  -5.867   0.141  0.00  0.00    +0.033 A 
ATOM     33  C   UNL     1     -10.170  -4.937  -0.661  0.00  0.00    +0.023 A 
ATOM     34  C   UNL     1     -10.614  -3.748  -0.118  0.00  0.00    +0.002 A 
ATOM     35  C   UNL     1     -10.414  -3.482   1.224  0.00  0.00    +0.000 A 
ATOM     36  C   UNL     1      -9.769  -4.405   2.026  0.00  0.00    +0.002 A 
ATOM     37  C   UNL     1      -9.327  -5.599   1.490  0.00  0.00    +0.023 A 
ENDBRANCH  30  32
ENDBRANCH  27  28
ENDBRANCH  12  27
BRANCH  16  38
ATOM     38  C   UNL     1      -2.336 -12.593   0.192  0.00  0.00    +0.165 C 
BRANCH  38  39
ATOM     39  O   UNL     1      -1.838 -13.863  -0.235  0.00  0.00    -0.394 OA
ATOM     40  H   UNL     1      -0.916 -14.024   0.005  0.00  0.00    +0.209 HD
ENDBRANCH  38  39
ENDBRANCH  16  38
TORSDOF 10
