REMARK  Name = ZINC18229054
REMARK  8 active torsions:
REMARK  status: ('A' for Active; 'I' for Inactive)
REMARK    1  A    between atoms: C_1  and  C_2
REMARK    2  A    between atoms: C_2  and  C_4
REMARK    3  A    between atoms: C_2  and  O_14
REMARK    4  A    between atoms: C_9  and  C_10
REMARK    5  A    between atoms: O_14  and  C_15
REMARK    6  A    between atoms: C_15  and  C_17
REMARK    7  A    between atoms: C_20  and  S_23
REMARK    8  A    between atoms: S_23  and  C_26
REMARK                            x       y       z     vdW  Elec       q    Type
REMARK                         _______ _______ _______ _____ _____    ______ ____
ROOT
ATOM      1  O   UNL     1      -1.339  -0.499   0.012  0.00  0.00    -0.453 OA
ENDROOT
BRANCH   1   3
ATOM      2  C   UNL     1      -0.019   1.526   0.010  0.00  0.00    +0.057 C 
ATOM      3  C   UNL     1       0.002  -0.004   0.002  0.00  0.00    +0.204 C 
BRANCH   3   4
ATOM      4  C   UNL     1       0.731  -0.503   1.223  0.00  0.00    +0.004 A 
ATOM      5  C   UNL     1       0.021  -0.853   2.357  0.00  0.00    +0.008 A 
ATOM      6  C   UNL     1       0.690  -1.311   3.476  0.00  0.00    +0.000 A 
ATOM      7  C   UNL     1       2.068  -1.420   3.463  0.00  0.00    +0.001 A 
ATOM      8  C   UNL     1       2.777  -1.071   2.329  0.00  0.00    +0.013 A 
ATOM      9  C   UNL     1       2.108  -0.617   1.207  0.00  0.00    +0.061 A 
BRANCH   9  10
ATOM     10  C   UNL     1       2.881  -0.241  -0.031  0.00  0.00    +0.418 C 
ATOM     11  F   UNL     1       4.248  -0.439   0.195  0.00  0.00    -0.166 F 
ATOM     12  F   UNL     1       2.464  -1.040  -1.101  0.00  0.00    -0.166 F 
ATOM     13  F   UNL     1       2.649   1.105  -0.335  0.00  0.00    -0.166 F 
ENDBRANCH   9  10
ENDBRANCH   3   4
ENDBRANCH   1   3
BRANCH   1  14
ATOM     14  C   UNL     1      -1.924  -0.704  -1.184  0.00  0.00    +0.340 C 
ATOM     15  O   UNL     1      -1.313  -0.469  -2.207  0.00  0.00    -0.245 OA
BRANCH  14  16
ATOM     16  C   UNL     1      -3.308  -1.214  -1.250  0.00  0.00    +0.059 A 
ATOM     17  C   UNL     1      -4.016  -1.479  -0.076  0.00  0.00    +0.017 A 
ATOM     18  C   UNL     1      -5.308  -1.956  -0.146  0.00  0.00    +0.028 A 
ATOM     19  C   UNL     1      -5.904  -2.171  -1.376  0.00  0.00    +0.088 A 
ATOM     20  C   UNL     1      -5.209  -1.911  -2.544  0.00  0.00    +0.028 A 
ATOM     21  C   UNL     1      -3.918  -1.428  -2.488  0.00  0.00    +0.017 A 
BRANCH  19  22
ATOM     22  S   UNL     1      -7.556  -2.779  -1.456  0.00  0.00    -0.006 S 
ATOM     23  O   UNL     1      -7.636  -3.447  -2.707  0.00  0.00    -0.170 OA
ATOM     24  O   UNL     1      -7.738  -3.494  -0.241  0.00  0.00    -0.170 OA
ATOM     25  C   UNL     1      -8.599  -1.296  -1.470  0.00  0.00    +0.200 C 
ENDBRANCH  19  22
ENDBRANCH  14  16
ENDBRANCH   1  14
TORSDOF 6
