REMARK  Name = ZINC26042981
REMARK  9 active torsions:
REMARK  status: ('A' for Active; 'I' for Inactive)
REMARK    1  A    between atoms: C_1  and  C_2
REMARK    2  A    between atoms: C_2  and  O_3
REMARK    3  A    between atoms: O_3  and  C_4
REMARK    4  A    between atoms: C_9  and  N_10
REMARK    5  A    between atoms: C_12  and  C_17
REMARK    6  A    between atoms: C_22  and  C_25
REMARK    7  A    between atoms: C_25  and  C_26
REMARK    8  A    between atoms: N_32  and  C_33
REMARK    9  A    between atoms: C_33  and  C_34
REMARK                            x       y       z     vdW  Elec       q    Type
REMARK                         _______ _______ _______ _____ _____    ______ ____
ROOT
ATOM      1  C   UNL     1      -0.876   5.889  -5.721  0.00  0.00    +0.224 C 
ATOM      2  O   UNL     1      -2.072   5.939  -5.913  0.00  0.00    -0.275 OA
ATOM      3  N   UNL     1      -0.402   5.540  -4.508  0.00  0.00    -0.264 N 
ATOM      4  C   UNL     1      -1.285   5.239  -3.477  0.00  0.00    +0.165 A 
ATOM      5  N   UNL     1      -1.019   4.886  -2.235  0.00  0.00    -0.229 NA
ATOM      6  C   UNL     1      -1.985   4.628  -1.376  0.00  0.00    +0.058 A 
ATOM      7  C   UNL     1      -3.269   4.744  -1.794  0.00  0.00    +0.072 A 
ATOM      8  S   UNL     1      -3.022   5.237  -3.494  0.00  0.00    -0.060 S 
ATOM      9  H   UNL     1       0.683   5.495  -4.334  0.00  0.00    +0.157 HD
ENDROOT
BRANCH   1  12
ATOM     10  N   UNL     1      -0.812   5.331  -8.880  0.00  0.00    -0.267 N 
ATOM     11  C   UNL     1      -0.682   6.586  -8.129  0.00  0.00    +0.127 C 
ATOM     12  C   UNL     1       0.081   6.216  -6.838  0.00  0.00    +0.102 C 
ATOM     13  C   UNL     1       0.862   4.958  -7.283  0.00  0.00    +0.110 C 
ATOM     14  C   UNL     1       0.048   4.401  -8.430  0.00  0.00    +0.221 C 
ATOM     15  O   UNL     1       0.155   3.279  -8.878  0.00  0.00    -0.275 OA
BRANCH  10  21
ATOM     16  C   UNL     1      -2.993   4.639  -9.671  0.00  0.00    +0.142 A 
ATOM     17  C   UNL     1      -3.884   4.447 -10.714  0.00  0.00    +0.047 A 
ATOM     18  C   UNL     1      -3.501   4.731 -12.012  0.00  0.00    +0.004 A 
ATOM     19  C   UNL     1      -2.232   5.213 -12.272  0.00  0.00    +0.002 A 
ATOM     20  C   UNL     1      -1.339   5.413 -11.236  0.00  0.00    +0.027 A 
ATOM     21  C   UNL     1      -1.716   5.130  -9.932  0.00  0.00    +0.078 A 
BRANCH  16  22
ATOM     22  O   UNL     1      -3.366   4.354  -8.395  0.00  0.00    -0.490 OA
BRANCH  22  24
ATOM     23  C   UNL     1      -4.926   3.593  -6.713  0.00  0.00    +0.048 C 
ATOM     24  C   UNL     1      -4.691   3.854  -8.202  0.00  0.00    +0.226 C 
ENDBRANCH  22  24
ENDBRANCH  16  22
ENDBRANCH  10  21
ENDBRANCH   1  12
BRANCH   6  25
ATOM     25  C   UNL     1      -1.670   4.220   0.040  0.00  0.00    +0.132 C 
BRANCH  25  26
ATOM     26  C   UNL     1      -0.763   3.016   0.026  0.00  0.00    +0.138 A 
ATOM     27  N   UNL     1      -1.151   1.781   0.017  0.00  0.00    -0.158 NA
ATOM     28  N   UNL     1      -0.011   0.966   0.007  0.00  0.00    -0.254 N 
ATOM     29  H   UNL     1      -0.118  -0.129   0.006  0.00  0.00    +0.191 HD
ATOM     30  C   UNL     1       1.065   1.780   0.002  0.00  0.00    +0.176 A 
ATOM     31  S   UNL     1       2.706   1.292  -0.016  0.00  0.00    -0.011 S 
ATOM     32  N   UNL     1       0.610   3.049   0.013  0.00  0.00    -0.303 N 
BRANCH  32  33
ATOM     33  C   UNL     1       1.438   4.258   0.011  0.00  0.00    +0.152 C 
BRANCH  33  34
ATOM     34  C   UNL     1       1.708   4.679  -1.411  0.00  0.00    -0.013 C 
ATOM     35  C   UNL     1       1.409   5.893  -1.802  0.00  0.00    +0.005 C 
ENDBRANCH  33  34
ENDBRANCH  32  33
ENDBRANCH  25  26
ENDBRANCH   6  25
TORSDOF 8
