REMARK  Name = ZINC35937949
REMARK  3 active torsions:
REMARK  status: ('A' for Active; 'I' for Inactive)
REMARK    1  A    between atoms: N_15  and  C_18
REMARK    2  A    between atoms: C_18  and  C_19
REMARK    3  A    between atoms: C_22  and  N_25
REMARK                            x       y       z     vdW  Elec       q    Type
REMARK                         _______ _______ _______ _____ _____    ______ ____
ROOT
ATOM      1  C   UNL     1      -0.017   1.381   0.010  0.00  0.00    +0.003 A 
ATOM      2  C   UNL     1       1.164   2.100   0.002  0.00  0.00    +0.024 A 
ATOM      3  C   UNL     1       2.375   1.430  -0.012  0.00  0.00    +0.042 A 
ATOM      4  C   UNL     1       2.400   0.024  -0.006  0.00  0.00    +0.076 A 
ATOM      5  C   UNL     1       1.202  -0.689  -0.006  0.00  0.00    +0.055 A 
ATOM      6  C   UNL     1       0.002  -0.004   0.002  0.00  0.00    +0.021 A 
ATOM      7 CL   UNL     1       1.218  -2.425  -0.018  0.00  0.00    -0.083 Cl
ATOM      8  C   UNL     1       3.705  -0.658   0.013  0.00  0.00    +0.249 C 
ATOM      9  O   UNL     1       3.770  -1.862  -0.142  0.00  0.00    -0.270 OA
ATOM     10  N   UNL     1       4.827   0.064   0.205  0.00  0.00    -0.291 N 
ATOM     11  C   UNL     1       4.765   1.480   0.570  0.00  0.00    +0.095 C 
ATOM     12  N   UNL     1       3.587   2.110  -0.038  0.00  0.00    -0.323 N 
ATOM     13  C   UNL     1       6.028   2.191   0.075  0.00  0.00    +0.027 C 
ATOM     14  C   UNL     1       7.250   1.601   0.781  0.00  0.00    -0.075 C 
ATOM     15  N   UNL     1       7.119   1.786   2.232  0.00  0.00    +0.383 N 
ATOM     16  C   UNL     1       5.952   1.043   2.723  0.00  0.00    -0.075 C 
ATOM     17  C   UNL     1       4.679   1.612   2.093  0.00  0.00    +0.027 C 
ATOM     18  H   UNL     1       5.692  -0.363   0.099  0.00  0.00    +0.151 HD
ATOM     19  H   UNL     1       3.654   2.986  -0.451  0.00  0.00    +0.148 HD
ATOM     20  H   UNL     1       7.003   2.767   2.435  0.00  0.00    -0.081 HD
ENDROOT
BRANCH  15  21
ATOM     21  C   UNL     1       8.330   1.289   2.899  0.00  0.00    -0.043 C 
BRANCH  21  22
ATOM     22  C   UNL     1       8.250   1.589   4.373  0.00  0.00    -0.064 A 
ATOM     23  C   UNL     1       8.743   2.784   4.863  0.00  0.00    +0.004 A 
ATOM     24  C   UNL     1       8.669   3.060   6.216  0.00  0.00    +0.033 A 
ATOM     25  C   UNL     1       8.103   2.140   7.079  0.00  0.00    +0.126 A 
ATOM     26  C   UNL     1       7.609   0.946   6.589  0.00  0.00    +0.033 A 
ATOM     27  C   UNL     1       7.678   0.672   5.235  0.00  0.00    +0.004 A 
BRANCH  25  28
ATOM     28  N   UNL     1       8.025   2.435   8.527  0.00  0.00    +0.056 N 
ATOM     29  O   UNL     1       8.457   3.480   8.956  0.00  0.00    -0.126 OA
ATOM     30  O   UNL     1       7.529   1.631   9.282  0.00  0.00    -0.126 OA
ENDBRANCH  25  28
ENDBRANCH  21  22
ENDBRANCH  15  21
TORSDOF 3
