REMARK  Name = ZINC09433044
REMARK  14 active torsions:
REMARK  status: ('A' for Active; 'I' for Inactive)
REMARK    1  A    between atoms: C_1  and  C_2
REMARK    2  A    between atoms: C_2  and  N_73
REMARK    3  A    between atoms: C_3  and  C_4
REMARK    4  A    between atoms: C_3  and  N_73
REMARK    5  A    between atoms: C_4  and  C_5
REMARK    6  A    between atoms: C_5  and  N_6
REMARK    7  A    between atoms: C_7  and  C_9
REMARK    8  A    between atoms: N_19  and  C_27
REMARK    9  A    between atoms: C_20  and  C_22
REMARK   10  A    between atoms: C_27  and  C_28
REMARK   11  A    between atoms: C_28  and  C_29
REMARK   12  A    between atoms: C_28  and  C_30
REMARK   13  A    between atoms: C_31  and  C_32
REMARK   14  A    between atoms: C_31  and  N_73
REMARK                            x       y       z     vdW  Elec       q    Type
REMARK                         _______ _______ _______ _____ _____    ______ ____
ROOT
ATOM      1  C   UNL     1      -3.289   0.797   2.064  0.00  0.00    +0.131 C 
ATOM      2  C   UNL     1      -3.001   0.335   3.468  0.00  0.00    -0.021 A 
ATOM      3  C   UNL     1      -2.288  -0.823   3.695  0.00  0.00    +0.005 A 
ATOM      4  C   UNL     1      -2.020  -1.227   4.992  0.00  0.00    +0.000 A 
ATOM      5  C   UNL     1      -2.462  -0.474   6.066  0.00  0.00    +0.001 A 
ATOM      6  C   UNL     1      -3.182   0.684   5.851  0.00  0.00    +0.013 A 
ATOM      7  C   UNL     1      -3.461   1.090   4.548  0.00  0.00    +0.041 A 
ATOM      8  C   UNL     1      -4.261   2.305   4.286  0.00  0.00    +0.247 C 
ATOM      9  O   UNL     1      -4.478   3.102   5.178  0.00  0.00    -0.270 OA
ATOM     10  N   UNL     1      -4.746   2.521   3.048  0.00  0.00    -0.289 N 
ATOM     11  C   UNL     1      -4.644   1.498   2.010  0.00  0.00    +0.129 C 
ENDROOT
BRANCH  11  12
ATOM     12  C   UNL     1      -5.737   0.479   2.209  0.00  0.00    +0.011 A 
ATOM     13  C   UNL     1      -6.521  -0.123   1.282  0.00  0.00    +0.013 A 
ATOM     14  C   UNL     1      -7.470  -1.038   1.700  0.00  0.00    +0.008 A 
ATOM     15  C   UNL     1      -7.587  -1.306   3.023  0.00  0.00    +0.045 A 
ATOM     16  S   UNL     1      -6.328  -0.253   3.726  0.00  0.00    -0.100 S 
ENDBRANCH  11  12
BRANCH   1  18
ATOM     17  N   UNL     1      -0.963   1.306   1.394  0.00  0.00    -0.315 N 
ATOM     18  C   UNL     1      -2.213   1.755   1.623  0.00  0.00    +0.223 C 
ATOM     19  O   UNL     1      -2.471   2.931   1.475  0.00  0.00    -0.275 OA
ATOM     20  H   UNL     1      -0.756   0.365   1.513  0.00  0.00    +0.149 HD
BRANCH  17  21
ATOM     21  C   UNL     1       0.082   2.236   0.959  0.00  0.00    +0.102 C 
BRANCH  21  22
ATOM     22  C   UNL     1       1.394   1.474   0.765  0.00  0.00    +0.000 C 
BRANCH  22  23
ATOM     23  C   UNL     1       2.486   2.446   0.311  0.00  0.00    -0.077 C 
BRANCH  23  24
ATOM     24  N   UNL     1       3.751   1.699   0.148  0.00  0.00    +0.382 N 
ATOM     25  H   UNL     1       3.935   1.165   1.005  0.00  0.00    -0.081 HD
BRANCH  24  27
ATOM     26  C   UNL     1       4.788  -0.248  -0.905  0.00  0.00    -0.017 C 
ATOM     27  C   UNL     1       3.642   0.761  -0.989  0.00  0.00    -0.082 C 
ENDBRANCH  24  27
BRANCH  24  28
ATOM     28  C   UNL     1       4.867   2.641  -0.079  0.00  0.00    -0.043 C 
BRANCH  28  29
ATOM     29  C   UNL     1       5.244   3.271   1.237  0.00  0.00    -0.064 A 
ATOM     30  C   UNL     1       4.731   4.507   1.583  0.00  0.00    +0.002 A 
ATOM     31  C   UNL     1       5.072   5.083   2.792  0.00  0.00    +0.000 A 
ATOM     32  C   UNL     1       5.935   4.428   3.651  0.00  0.00    +0.000 A 
ATOM     33  C   UNL     1       6.452   3.194   3.303  0.00  0.00    +0.000 A 
ATOM     34  C   UNL     1       6.106   2.616   2.095  0.00  0.00    +0.002 A 
ENDBRANCH  28  29
ENDBRANCH  24  28
ENDBRANCH  23  24
ENDBRANCH  22  23
ENDBRANCH  21  22
ENDBRANCH  17  21
ENDBRANCH   1  18
BRANCH  10  35
ATOM     35  C   UNL     1      -5.388   3.801   2.738  0.00  0.00    +0.111 C 
BRANCH  35  36
ATOM     36  C   UNL     1      -6.902   3.666   2.905  0.00  0.00    +0.000 C 
ATOM     37  C   UNL     1      -7.228   3.349   4.366  0.00  0.00    +0.009 C 
ATOM     38  C   UNL     1      -7.578   4.979   2.506  0.00  0.00    +0.009 C 
ENDBRANCH  35  36
ENDBRANCH  10  35
TORSDOF 11
