REMARK  Name = ZINC18516801
REMARK  11 active torsions:
REMARK  status: ('A' for Active; 'I' for Inactive)
REMARK    1  A    between atoms: C_1  and  C_2
REMARK    2  A    between atoms: C_2  and  C_4
REMARK    3  A    between atoms: C_2  and  S_14
REMARK    4  A    between atoms: N_9  and  C_10
REMARK    5  A    between atoms: C_10  and  C_11
REMARK    6  A    between atoms: C_10  and  C_12
REMARK    7  A    between atoms: C_10  and  C_13
REMARK    8  A    between atoms: S_14  and  C_15
REMARK    9  A    between atoms: N_20  and  C_21
REMARK   10  A    between atoms: C_24  and  O_27
REMARK   11  A    between atoms: O_27  and  C_28
REMARK                            x       y       z     vdW  Elec       q    Type
REMARK                         _______ _______ _______ _____ _____    ______ ____
ROOT
ATOM      1  C   UNL     1      -5.107   0.671   1.256  0.00  0.00    +0.161 A 
ATOM      2  N   UNL     1      -5.231  -0.548   0.768  0.00  0.00    -0.133 NA
ATOM      3  N   UNL     1      -6.471  -1.142   0.717  0.00  0.00    -0.125 NA
ATOM      4  C   UNL     1      -7.532  -0.485   1.147  0.00  0.00    +0.187 A 
ATOM      5  S   UNL     1      -6.801   1.058   1.670  0.00  0.00    -0.024 S 
ATOM      6  N   UNL     1      -8.862  -0.887   1.181  0.00  0.00    -0.292 N 
ATOM      7  H   UNL     1      -9.551  -0.259   1.447  0.00  0.00    +0.154 HD
ENDROOT
BRANCH   6   8
ATOM      8  C   UNL     1      -9.207  -2.198   0.833  0.00  0.00    +0.033 A 
ATOM      9  C   UNL     1     -10.478  -2.477   0.348  0.00  0.00    +0.027 A 
ATOM     10  C   UNL     1     -10.815  -3.769  -0.002  0.00  0.00    +0.048 A 
ATOM     11  C   UNL     1      -9.888  -4.792   0.143  0.00  0.00    +0.130 A 
ATOM     12  C   UNL     1      -8.620  -4.515   0.633  0.00  0.00    +0.048 A 
ATOM     13  C   UNL     1      -8.279  -3.222   0.977  0.00  0.00    +0.027 A 
BRANCH  11  14
ATOM     14  O   UNL     1     -10.223  -6.065  -0.196  0.00  0.00    -0.406 OA
BRANCH  14  15
ATOM     15  C   UNL     1     -11.546  -6.278  -0.694  0.00  0.00    +0.575 C 
ATOM     16  F   UNL     1     -11.736  -5.518  -1.853  0.00  0.00    -0.133 F 
ATOM     17  F   UNL     1     -11.720  -7.634  -0.991  0.00  0.00    -0.133 F 
ATOM     18  F   UNL     1     -12.477  -5.890   0.276  0.00  0.00    -0.133 F 
ENDBRANCH  14  15
ENDBRANCH  11  14
ENDBRANCH   6   8
BRANCH   1  19
ATOM     19  S   UNL     1      -3.659   1.657   1.443  0.00  0.00    -0.084 S 
BRANCH  19  21
ATOM     20  C   UNL     1      -2.536   0.358  -0.686  0.00  0.00    +0.029 C 
ATOM     21  C   UNL     1      -2.325   0.602   0.809  0.00  0.00    +0.136 C 
BRANCH  21  22
ATOM     22  C   UNL     1      -1.000   1.285   1.025  0.00  0.00    +0.233 C 
ATOM     23  O   UNL     1      -0.957   2.483   1.206  0.00  0.00    -0.274 OA
ATOM     24  N   UNL     1       0.139   0.564   1.017  0.00  0.00    -0.239 N 
ATOM     25  C   UNL     1       1.325   1.175   1.205  0.00  0.00    +0.306 C 
ATOM     26  O   UNL     1       1.368   2.376   1.386  0.00  0.00    -0.252 OA
ATOM     27  N   UNL     1       2.464   0.455   1.191  0.00  0.00    -0.294 N 
ATOM     28  H   UNL     1       0.105  -0.395   0.873  0.00  0.00    +0.159 HD
ATOM     29  H   UNL     1       2.430  -0.504   1.047  0.00  0.00    +0.151 HD
BRANCH  27  30
ATOM     30  C   UNL     1       3.754   1.119   1.395  0.00  0.00    +0.028 C 
ATOM     31  C   UNL     1       3.765   1.802   2.764  0.00  0.00    +0.031 C 
ATOM     32  C   UNL     1       4.877   0.082   1.333  0.00  0.00    +0.031 C 
ATOM     33  C   UNL     1       3.966   2.167   0.300  0.00  0.00    +0.031 C 
ENDBRANCH  27  30
ENDBRANCH  21  22
ENDBRANCH  19  21
ENDBRANCH   1  19
TORSDOF 7
