REMARK  Name = ZINC09453438
REMARK  16 active torsions:
REMARK  status: ('A' for Active; 'I' for Inactive)
REMARK    1  A    between atoms: C_1  and  C_2
REMARK    2  A    between atoms: C_2  and  N_70
REMARK    3  A    between atoms: C_3  and  C_4
REMARK    4  A    between atoms: C_3  and  N_70
REMARK    5  A    between atoms: C_5  and  C_6
REMARK    6  A    between atoms: C_5  and  N_70
REMARK    7  A    between atoms: C_6  and  C_7
REMARK    8  A    between atoms: C_7  and  N_8
REMARK    9  A    between atoms: C_9  and  C_29
REMARK   10  A    between atoms: C_11  and  C_16
REMARK   11  A    between atoms: C_12  and  O_15
REMARK   12  A    between atoms: C_16  and  C_18
REMARK   13  A    between atoms: C_25  and  C_28
REMARK   14  A    between atoms: C_32  and  O_37
REMARK   15  A    between atoms: C_33  and  O_35
REMARK   16  A    between atoms: O_35  and  C_36
REMARK                            x       y       z     vdW  Elec       q    Type
REMARK                         _______ _______ _______ _____ _____    ______ ____
ROOT
ATOM      1  N   UNL     1       3.756   1.773  -0.080  0.00  0.00    -0.284 N 
ATOM      2  C   UNL     1       2.904   2.966  -0.009  0.00  0.00    +0.145 C 
ATOM      3  C   UNL     1       1.478   2.465   0.006  0.00  0.00    +0.071 C 
ATOM      4  C   UNL     1       1.538   1.114  -0.052  0.00  0.00    +0.188 C 
ATOM      5  C   UNL     1       2.954   0.692  -0.100  0.00  0.00    +0.282 C 
ATOM      6  O   UNL     1       3.337  -0.459  -0.152  0.00  0.00    -0.267 OA
ENDROOT
BRANCH   2   7
ATOM      7  C   UNL     1       3.196   3.736   1.254  0.00  0.00    -0.019 A 
ATOM      8  C   UNL     1       3.295   3.069   2.461  0.00  0.00    +0.009 A 
ATOM      9  C   UNL     1       3.563   3.771   3.621  0.00  0.00    +0.049 A 
ATOM     10  C   UNL     1       3.732   5.146   3.576  0.00  0.00    +0.158 A 
ATOM     11  C   UNL     1       3.633   5.816   2.361  0.00  0.00    +0.162 A 
ATOM     12  C   UNL     1       3.369   5.106   1.201  0.00  0.00    +0.055 A 
BRANCH  11  13
ATOM     13  O   UNL     1       3.798   7.165   2.312  0.00  0.00    -0.491 OA
ATOM     14  C   UNL     1       3.578   7.800   1.050  0.00  0.00    +0.277 C 
ENDBRANCH  11  13
BRANCH  10  15
ATOM     15  O   UNL     1       3.995   5.838   4.717  0.00  0.00    -0.503 OA
ATOM     16  H   UNL     1       4.938   5.926   4.915  0.00  0.00    +0.292 HD
ENDBRANCH  10  15
ENDBRANCH   2   7
BRANCH   4  17
ATOM     17  O   UNL     1       0.472   0.281  -0.060  0.00  0.00    -0.502 OA
ATOM     18  H   UNL     1       0.789  -0.666  -0.108  0.00  0.00    +0.292 HD
ENDBRANCH   4  17
BRANCH   3  19
ATOM     19  C   UNL     1       0.264   3.284   0.072  0.00  0.00    +0.195 C 
ATOM     20  O   UNL     1      -0.517   3.142   0.994  0.00  0.00    -0.287 OA
BRANCH  19  21
ATOM     21  C   UNL     1      -0.011   4.282  -0.981  0.00  0.00    +0.023 A 
ATOM     22  C   UNL     1       0.824   4.375  -2.099  0.00  0.00    +0.015 A 
ATOM     23  C   UNL     1       0.566   5.303  -3.079  0.00  0.00    +0.046 A 
ATOM     24  C   UNL     1      -0.523   6.169  -2.963  0.00  0.00    +0.124 A 
ATOM     25  C   UNL     1      -1.351   6.071  -1.849  0.00  0.00    -0.002 A 
ATOM     26  C   UNL     1      -1.105   5.145  -0.866  0.00  0.00    +0.019 A 
ATOM     27  C   UNL     1      -2.439   7.115  -2.012  0.00  0.00    +0.083 C 
ATOM     28  C   UNL     1      -2.310   7.479  -3.510  0.00  0.00    +0.175 C 
ATOM     29  O   UNL     1      -0.939   7.158  -3.799  0.00  0.00    -0.488 OA
ATOM     30  C   UNL     1      -2.576   8.970  -3.731  0.00  0.00    +0.052 C 
ENDBRANCH  19  21
ENDBRANCH   3  19
BRANCH   1  31
ATOM     31  C   UNL     1       5.220   1.760  -0.119  0.00  0.00    +0.107 C 
BRANCH  31  32
ATOM     32  C   UNL     1       5.767   1.696   1.309  0.00  0.00    +0.000 C 
BRANCH  32  33
ATOM     33  C   UNL     1       7.297   1.683   1.269  0.00  0.00    -0.077 C 
BRANCH  33  34
ATOM     34  N   UNL     1       7.810   1.642   2.654  0.00  0.00    +0.379 N 
ATOM     35  H   UNL     1       7.368   2.394   3.196  0.00  0.00    -0.082 HD
BRANCH  34  37
ATOM     36  C   UNL     1       8.172  -0.800   2.535  0.00  0.00    -0.017 C 
ATOM     37  C   UNL     1       7.478   0.343   3.277  0.00  0.00    -0.082 C 
ENDBRANCH  34  37
BRANCH  34  38
ATOM     38  C   UNL     1       9.274   1.845   2.657  0.00  0.00    -0.082 C 
ATOM     39  C   UNL     1       9.725   2.147   4.087  0.00  0.00    -0.017 C 
ENDBRANCH  34  38
ENDBRANCH  33  34
ENDBRANCH  32  33
ENDBRANCH  31  32
ENDBRANCH   1  31
TORSDOF 12
