REMARK  Name = ZINC39525706
REMARK  3 active torsions:
REMARK  status: ('A' for Active; 'I' for Inactive)
REMARK    1  A    between atoms: C_4  and  O_7
REMARK    2  A    between atoms: O_7  and  S_8
REMARK    3  A    between atoms: S_8  and  C_11
REMARK                            x       y       z     vdW  Elec       q    Type
REMARK                         _______ _______ _______ _____ _____    ______ ____
ROOT
ATOM      1  C   UNL     1       3.125  -2.313   1.960  0.00  0.00    +0.251 C 
ATOM      2  C   UNL     1       3.260  -3.509   1.015  0.00  0.00    +0.047 C 
ATOM      3  C   UNL     1       2.417  -4.671   1.548  0.00  0.00    +0.005 C 
ATOM      4  C   UNL     1       2.878  -5.018   2.966  0.00  0.00    +0.023 C 
ATOM      5  C   UNL     1       2.755  -3.778   3.855  0.00  0.00    +0.037 C 
ATOM      6  N   UNL     1       3.579  -2.695   3.303  0.00  0.00    -0.209 NA
ATOM      7 BR   UNL     1       3.599  -1.234   4.437  0.00  0.00    +0.015 Br
ATOM      8  C   UNL     1       1.292  -3.332   3.906  0.00  0.00    +0.023 C 
ATOM      9  C   UNL     1       0.435  -4.462   4.479  0.00  0.00    +0.005 C 
ATOM     10  C   UNL     1       0.915  -4.801   5.892  0.00  0.00    +0.037 C 
ATOM     11  C   UNL     1       2.378  -5.246   5.841  0.00  0.00    +0.168 C 
ATOM     12  C   UNL     1       3.235  -4.116   5.268  0.00  0.00    +0.060 C 
ATOM     13  F   UNL     1       2.817  -5.555   7.133  0.00  0.00    -0.245 F 
ENDROOT
BRANCH   1  14
ATOM     14  S   UNL     1       4.140  -0.941   1.346  0.00  0.00    +0.138 S 
ATOM     15  O   UNL     1       5.471  -1.383   1.113  0.00  0.00    -0.135 OA
ATOM     16  O   UNL     1       3.889   0.232   2.108  0.00  0.00    -0.135 OA
BRANCH  14  17
ATOM     17  O   UNL     1       3.586  -0.632  -0.037  0.00  0.00    -0.345 OA
BRANCH  17  21
ATOM     18  C   UNL     1      -0.017   1.378   0.010  0.00  0.00    +0.000 A 
ATOM     19  C   UNL     1       1.170   2.088   0.002  0.00  0.00    +0.004 A 
ATOM     20  C   UNL     1       2.377   1.417  -0.013  0.00  0.00    +0.048 A 
ATOM     21  C   UNL     1       2.399   0.030  -0.021  0.00  0.00    +0.156 A 
ATOM     22  C   UNL     1       1.207  -0.680  -0.013  0.00  0.00    +0.048 A 
ATOM     23  C   UNL     1       0.002  -0.004   0.002  0.00  0.00    +0.004 A 
ENDBRANCH  17  21
ENDBRANCH  14  17
ENDBRANCH   1  14
TORSDOF 3
