REMARK  Name = ZINC21005665
REMARK  11 active torsions:
REMARK  status: ('A' for Active; 'I' for Inactive)
REMARK    1  A    between atoms: C_1  and  C_2
REMARK    2  A    between atoms: C_2  and  O_3
REMARK    3  A    between atoms: O_3  and  C_4
REMARK    4  A    between atoms: C_4  and  C_6
REMARK    5  A    between atoms: C_7  and  C_29
REMARK    6  A    between atoms: C_18  and  C_20
REMARK    7  A    between atoms: C_23  and  O_28
REMARK    8  A    between atoms: C_24  and  O_26
REMARK    9  A    between atoms: O_26  and  C_27
REMARK   10  A    between atoms: C_32  and  O_35
REMARK   11  A    between atoms: O_35  and  C_36
REMARK                            x       y       z     vdW  Elec       q    Type
REMARK                         _______ _______ _______ _____ _____    ______ ____
ROOT
ATOM      1  C   UNL     1      -2.853  -2.431  -0.435  0.00  0.00    +0.085 C 
ATOM      2  C   UNL     1      -2.916  -3.743  -0.089  0.00  0.00    +0.053 C 
ATOM      3  N   UNL     1      -4.085  -4.325   0.360  0.00  0.00    -0.284 N 
ATOM      4  C   UNL     1      -5.263  -3.614   0.190  0.00  0.00    +0.202 A 
ATOM      5  N   UNL     1      -6.491  -4.041   0.310  0.00  0.00    -0.214 NA
ATOM      6  C   UNL     1      -7.344  -3.030   0.053  0.00  0.00    +0.091 A 
ATOM      7  C   UNL     1      -8.742  -2.967   0.044  0.00  0.00    +0.030 A 
ATOM      8  C   UNL     1      -9.312  -1.747  -0.270  0.00  0.00    +0.002 A 
ATOM      9  C   UNL     1      -8.546  -0.632  -0.564  0.00  0.00    +0.002 A 
ATOM     10  C   UNL     1      -7.162  -0.671  -0.561  0.00  0.00    +0.028 A 
ATOM     11  C   UNL     1      -6.563  -1.886  -0.248  0.00  0.00    +0.071 A 
ATOM     12  N   UNL     1      -5.259  -2.280  -0.152  0.00  0.00    -0.300 N 
ATOM     13  C   UNL     1      -4.033  -1.503  -0.344  0.00  0.00    +0.160 C 
ATOM     14  H   UNL     1      -4.082  -5.200   0.779  0.00  0.00    +0.155 HD
ENDROOT
BRANCH  13  15
ATOM     15  C   UNL     1      -3.842  -0.562   0.818  0.00  0.00    -0.016 A 
ATOM     16  C   UNL     1      -3.707  -1.066   2.098  0.00  0.00    +0.010 A 
ATOM     17  C   UNL     1      -3.532  -0.208   3.167  0.00  0.00    +0.049 A 
ATOM     18  C   UNL     1      -3.491   1.161   2.957  0.00  0.00    +0.158 A 
ATOM     19  C   UNL     1      -3.627   1.669   1.668  0.00  0.00    +0.162 A 
ATOM     20  C   UNL     1      -3.798   0.802   0.600  0.00  0.00    +0.055 A 
BRANCH  19  21
ATOM     21  O   UNL     1      -3.588   3.011   1.457  0.00  0.00    -0.491 OA
ATOM     22  C   UNL     1      -3.734   3.460   0.108  0.00  0.00    +0.277 C 
ENDBRANCH  19  21
BRANCH  18  23
ATOM     23  O   UNL     1      -3.320   2.007   4.008  0.00  0.00    -0.503 OA
ATOM     24  H   UNL     1      -2.394   2.210   4.203  0.00  0.00    +0.292 HD
ENDBRANCH  18  23
ENDBRANCH  13  15
BRANCH   2  25
ATOM     25  C   UNL     1      -1.699  -4.569  -0.196  0.00  0.00    -0.003 A 
ATOM     26  C   UNL     1      -0.612  -4.330   0.651  0.00  0.00    +0.013 A 
ATOM     27  C   UNL     1       0.522  -5.104   0.548  0.00  0.00    +0.046 A 
ATOM     28  C   UNL     1       0.587  -6.123  -0.396  0.00  0.00    +0.120 A 
ATOM     29  C   UNL     1      -0.491  -6.365  -1.239  0.00  0.00    +0.046 A 
ATOM     30  C   UNL     1      -1.631  -5.598  -1.139  0.00  0.00    +0.013 A 
BRANCH  28  31
ATOM     31  O   UNL     1       1.706  -6.884  -0.494  0.00  0.00    -0.495 OA
ATOM     32  C   UNL     1       1.706  -7.914  -1.484  0.00  0.00    +0.277 C 
ENDBRANCH  28  31
ENDBRANCH   2  25
BRANCH   1  33
ATOM     33  C   UNL     1      -1.628  -1.916  -0.894  0.00  0.00    +0.339 C 
ATOM     34  O   UNL     1      -0.688  -2.665  -1.088  0.00  0.00    -0.245 OA
BRANCH  33  35
ATOM     35  O   UNL     1      -1.495  -0.592  -1.120  0.00  0.00    -0.462 OA
BRANCH  35  37
ATOM     36  C   UNL     1      -0.263   1.379  -1.783  0.00  0.00    +0.048 C 
ATOM     37  C   UNL     1      -0.222  -0.138  -1.585  0.00  0.00    +0.229 C 
ENDBRANCH  35  37
ENDBRANCH  33  35
ENDBRANCH   1  33
TORSDOF 8
