REMARK  Name = ZINC37064077
REMARK  4 active torsions:
REMARK  status: ('A' for Active; 'I' for Inactive)
REMARK    1  A    between atoms: C_1  and  N_2
REMARK    2  A    between atoms: N_6  and  S_9
REMARK    3  A    between atoms: S_9  and  C_12
REMARK    4  A    between atoms: C_13  and  N_20
REMARK                            x       y       z     vdW  Elec       q    Type
REMARK                         _______ _______ _______ _____ _____    ______ ____
ROOT
ATOM      1  S   UNL     1       1.819  -4.759   0.804  0.00  0.00    +0.064 S 
ATOM      2  O   UNL     1       2.266  -5.107   2.107  0.00  0.00    -0.153 OA
ATOM      3  O   UNL     1       1.429  -5.733  -0.153  0.00  0.00    -0.153 OA
ENDROOT
BRANCH   1   9
ATOM      4  C   UNL     1      -0.712   0.373   1.143  0.00  0.00    -0.096 C 
ATOM      5  N   UNL     1      -0.407  -1.045   0.906  0.00  0.00    +0.379 N 
ATOM      6  C   UNL     1       0.286  -1.208  -0.350  0.00  0.00    -0.078 C 
ATOM      7  C   UNL     1      -0.218  -2.484  -1.065  0.00  0.00    -0.002 C 
ATOM      8  C   UNL     1      -0.463  -3.610  -0.034  0.00  0.00    +0.107 C 
ATOM      9  N   UNL     1       0.525  -3.745   1.003  0.00  0.00    -0.178 NA
ATOM     10  C   UNL     1       0.363  -2.953   2.269  0.00  0.00    +0.091 C 
ATOM     11  C   UNL     1       0.533  -1.538   1.907  0.00  0.00    -0.062 C 
ATOM     12  H   UNL     1      -1.254  -1.593   0.918  0.00  0.00    -0.082 HD
ENDBRANCH   1   9
BRANCH   1  13
ATOM     13  C   UNL     1       3.111  -3.815   0.065  0.00  0.00    +0.140 A 
ATOM     14  C   UNL     1       3.225  -3.757  -1.318  0.00  0.00    +0.053 A 
ATOM     15  C   UNL     1       4.244  -3.012  -1.897  0.00  0.00    +0.040 A 
ATOM     16  C   UNL     1       5.141  -2.330  -1.097  0.00  0.00    +0.021 A 
ATOM     17  C   UNL     1       5.024  -2.389   0.281  0.00  0.00    +0.032 A 
ATOM     18  C   UNL     1       4.007  -3.127   0.861  0.00  0.00    +0.047 A 
ATOM     19 BR   UNL     1       3.847  -3.198   2.743  0.00  0.00    -0.048 Br
ATOM     20 BR   UNL     1       6.528  -1.315  -1.884  0.00  0.00    -0.050 Br
BRANCH  14  21
ATOM     21  N   UNL     1       2.318  -4.448  -2.125  0.00  0.00    -0.356 N 
ATOM     22  H   UNL     1       1.445  -4.687  -1.778  0.00  0.00    +0.142 HD
ATOM     23  H   UNL     1       2.562  -4.688  -3.033  0.00  0.00    +0.142 HD
ENDBRANCH  14  21
ENDBRANCH   1  13
TORSDOF 3
