REMARK  Name = ZINC08553433
REMARK  4 active torsions:
REMARK  status: ('A' for Active; 'I' for Inactive)
REMARK    1  A    between atoms: C_3  and  C_6
REMARK    2  A    between atoms: C_9  and  S_11
REMARK    3  A    between atoms: S_11  and  C_12
REMARK    4  A    between atoms: C_12  and  C_13
REMARK                            x       y       z     vdW  Elec       q    Type
REMARK                         _______ _______ _______ _____ _____    ______ ____
ROOT
ATOM      1  C   UNL     1       9.955   2.831  -0.081  0.00  0.00    +0.121 A 
ATOM      2  N   UNL     1      10.796   3.897  -0.073  0.00  0.00    -0.310 N 
ATOM      3  H   UNL     1      10.427   4.794  -0.056  0.00  0.00    +0.170 HD
ATOM      4  C   UNL     1      12.132   3.735  -0.089  0.00  0.00    +0.260 A 
ATOM      5  O   UNL     1      12.874   4.703  -0.081  0.00  0.00    -0.267 OA
ATOM      6  C   UNL     1      12.668   2.406  -0.115  0.00  0.00    +0.075 A 
ATOM      7  C   UNL     1      14.071   1.993  -0.137  0.00  0.00    -0.023 A 
ATOM      8  C   UNL     1      14.318   0.666  -0.159  0.00  0.00    -0.004 A 
ATOM      9  S   UNL     1      12.719  -0.099  -0.153  0.00  0.00    -0.073 S 
ATOM     10  C   UNL     1      11.722   1.369  -0.121  0.00  0.00    +0.116 A 
ATOM     11  N   UNL     1      10.414   1.608  -0.099  0.00  0.00    -0.226 NA
ATOM     12  C   UNL     1      15.655  -0.009  -0.185  0.00  0.00    +0.043 C 
ATOM     13  C   UNL     1      16.717   1.036  -0.558  0.00  0.00    +0.005 C 
ATOM     14  C   UNL     1      16.499   2.285   0.301  0.00  0.00    +0.005 C 
ATOM     15  C   UNL     1      15.219   2.999  -0.135  0.00  0.00    +0.037 C 
ENDROOT
BRANCH   1  16
ATOM     16  C   UNL     1       8.466   3.063  -0.062  0.00  0.00    +0.153 C 
BRANCH  16  17
ATOM     17  S   UNL     1       7.605   1.466  -0.070  0.00  0.00    -0.058 S 
BRANCH  17  21
ATOM     18  C   UNL     1       3.740   1.808  -0.024  0.00  0.00    +0.256 A 
ATOM     19  N   UNL     1       4.123   3.065  -0.015  0.00  0.00    -0.106 NA
ATOM     20  N   UNL     1       5.408   3.119  -0.028  0.00  0.00    -0.101 NA
ATOM     21  C   UNL     1       5.898   1.902  -0.046  0.00  0.00    +0.278 A 
ATOM     22  O   UNL     1       4.857   1.047  -0.039  0.00  0.00    -0.410 OA
BRANCH  18  25
ATOM     23  C   UNL     1      -0.016   1.354   0.009  0.00  0.00    +0.008 A 
ATOM     24  C   UNL     1       1.175   2.043   0.002  0.00  0.00    +0.021 A 
ATOM     25  C   UNL     1       2.353   1.321  -0.013  0.00  0.00    +0.076 A 
ATOM     26  S   UNL     1       1.751  -0.360  -0.017  0.00  0.00    -0.092 S 
ATOM     27  C   UNL     1       0.002  -0.004   0.002  0.00  0.00    +0.046 A 
ENDBRANCH  18  25
ENDBRANCH  17  21
ENDBRANCH  16  17
ENDBRANCH   1  16
TORSDOF 4
