REMARK  Name = ZINC13115200
REMARK  7 active torsions:
REMARK  status: ('A' for Active; 'I' for Inactive)
REMARK    1  A    between atoms: C_4  and  C_7
REMARK    2  A    between atoms: C_7  and  C_9
REMARK    3  A    between atoms: C_7  and  S_22
REMARK    4  A    between atoms: N_11  and  C_12
REMARK    5  A    between atoms: C_16  and  N_18
REMARK    6  A    between atoms: S_22  and  C_23
REMARK    7  A    between atoms: C_26  and  C_29
REMARK                            x       y       z     vdW  Elec       q    Type
REMARK                         _______ _______ _______ _____ _____    ______ ____
ROOT
ATOM      1  C   UNL     1       3.705  -0.705  -0.039  0.00  0.00    +0.170 C 
ENDROOT
BRANCH   1   5
ATOM      2  C   UNL     1      -0.037   1.355  -0.003  0.00  0.00    +0.000 A 
ATOM      3  C   UNL     1       1.145   2.070  -0.010  0.00  0.00    +0.000 A 
ATOM      4  C   UNL     1       2.356   1.403  -0.022  0.00  0.00    +0.005 A 
ATOM      5  C   UNL     1       2.385   0.021  -0.026  0.00  0.00    -0.025 A 
ATOM      6  C   UNL     1       1.202  -0.694  -0.018  0.00  0.00    +0.005 A 
ATOM      7  C   UNL     1      -0.009  -0.028  -0.007  0.00  0.00    +0.000 A 
ENDBRANCH   1   5
BRANCH   1   8
ATOM      8  C   UNL     1       3.792  -1.567  -1.273  0.00  0.00    +0.235 C 
ATOM      9  O   UNL     1       3.477  -2.737  -1.219  0.00  0.00    -0.274 OA
ATOM     10  N   UNL     1       4.218  -1.036  -2.436  0.00  0.00    -0.284 N 
ATOM     11  H   UNL     1       4.405  -0.087  -2.497  0.00  0.00    +0.155 HD
BRANCH  10  12
ATOM     12  C   UNL     1       4.391  -1.857  -3.557  0.00  0.00    +0.036 A 
ATOM     13  C   UNL     1       5.425  -1.605  -4.450  0.00  0.00    +0.025 A 
ATOM     14  C   UNL     1       5.594  -2.416  -5.555  0.00  0.00    +0.024 A 
ATOM     15  C   UNL     1       4.734  -3.478  -5.773  0.00  0.00    +0.071 A 
ATOM     16  C   UNL     1       3.703  -3.731  -4.885  0.00  0.00    +0.146 A 
ATOM     17  C   UNL     1       3.533  -2.926  -3.775  0.00  0.00    +0.057 A 
ATOM     18 CL   UNL     1       4.948  -4.495  -7.164  0.00  0.00    -0.081 Cl
BRANCH  16  19
ATOM     19  N   UNL     1       2.784  -4.867  -5.122  0.00  0.00    +0.058 N 
ATOM     20  O   UNL     1       1.884  -5.088  -4.346  0.00  0.00    -0.126 OA
ATOM     21  O   UNL     1       2.935  -5.574  -6.091  0.00  0.00    -0.126 OA
ENDBRANCH  16  19
ENDBRANCH  10  12
ENDBRANCH   1   8
BRANCH   1  22
ATOM     22  S   UNL     1       3.835  -1.750   1.438  0.00  0.00    -0.069 S 
BRANCH  22  23
ATOM     23  C   UNL     1       3.867  -0.599   2.772  0.00  0.00    +0.186 A 
ATOM     24  N   UNL     1       3.806   0.710   2.664  0.00  0.00    -0.200 NA
ATOM     25  H   UNL     1       4.007  -1.798   4.469  0.00  0.00    +0.191 HD
ATOM     26  C   UNL     1       3.855   1.266   3.885  0.00  0.00    +0.189 A 
ATOM     27  N   UNL     1       3.949   0.309   4.784  0.00  0.00    -0.151 NA
ATOM     28  N   UNL     1       3.952  -0.909   4.085  0.00  0.00    -0.253 N 
BRANCH  26  29
ATOM     29  C   UNL     1       3.813   2.715   4.173  0.00  0.00    +0.058 A 
ATOM     30  C   UNL     1       3.864   3.357   5.381  0.00  0.00    +0.019 A 
ATOM     31  C   UNL     1       3.807   4.733   5.404  0.00  0.00    +0.008 A 
ATOM     32  C   UNL     1       3.703   5.410   4.231  0.00  0.00    +0.046 A 
ATOM     33  S   UNL     1       3.689   4.085   3.035  0.00  0.00    -0.093 S 
ENDBRANCH  26  29
ENDBRANCH  22  23
ENDBRANCH   1  22
TORSDOF 7
