REMARK  Name = ZINC22912267
REMARK  6 active torsions:
REMARK  status: ('A' for Active; 'I' for Inactive)
REMARK    1  A    between atoms: C_3  and  C_6
REMARK    2  A    between atoms: C_9  and  C_30
REMARK    3  A    between atoms: C_12  and  C_14
REMARK    4  A    between atoms: C_14  and  N_15
REMARK    5  A    between atoms: N_18  and  C_21
REMARK    6  A    between atoms: C_21  and  C_22
REMARK                            x       y       z     vdW  Elec       q    Type
REMARK                         _______ _______ _______ _____ _____    ______ ____
ROOT
ATOM      1  C   UNL     1       2.820   0.690  -0.126  0.00  0.00    +0.143 C 
ATOM      2  C   UNL     1       3.401   0.901   1.286  0.00  0.00    +0.088 C 
ATOM      3  C   UNL     1       4.359   2.058   1.117  0.00  0.00    +0.075 C 
ATOM      4  N   UNL     1       4.351   2.448  -0.114  0.00  0.00    -0.180 NA
ATOM      5  N   UNL     1       3.489   1.723  -0.933  0.00  0.00    -0.184 N 
ATOM      6  C   UNL     1       3.299   1.932  -2.251  0.00  0.00    +0.249 C 
ATOM      7  O   UNL     1       2.521   1.237  -2.870  0.00  0.00    -0.272 OA
ENDROOT
BRANCH   1  10
ATOM      8  C   UNL     1      -0.980   0.416  -0.163  0.00  0.00    +0.008 A 
ATOM      9  C   UNL     1       0.333  -0.016  -0.171  0.00  0.00    +0.013 A 
ATOM     10  C   UNL     1       1.328   0.904  -0.123  0.00  0.00    +0.013 A 
ATOM     11  S   UNL     1       0.412   2.435  -0.055  0.00  0.00    -0.100 S 
ATOM     12  C   UNL     1      -1.234   1.746  -0.095  0.00  0.00    +0.045 A 
ENDBRANCH   1  10
BRANCH   3  13
ATOM     13  C   UNL     1       5.172   2.647   2.187  0.00  0.00    +0.035 A 
ATOM     14  C   UNL     1       6.068   3.700   2.123  0.00  0.00    +0.017 A 
ATOM     15  C   UNL     1       6.719   4.075   3.275  0.00  0.00    +0.008 A 
ATOM     16  C   UNL     1       6.465   3.406   4.430  0.00  0.00    +0.046 A 
ATOM     17  S   UNL     1       5.258   2.197   3.912  0.00  0.00    -0.095 S 
ENDBRANCH   3  13
BRANCH   6  18
ATOM     18  C   UNL     1       4.054   3.030  -2.956  0.00  0.00    +0.182 C 
BRANCH  18  19
ATOM     19  N   UNL     1       3.674   3.052  -4.375  0.00  0.00    -0.298 NA
ATOM     20  C   UNL     1       4.120   1.831  -5.059  0.00  0.00    +0.066 C 
ATOM     21  C   UNL     1       3.637   1.857  -6.511  0.00  0.00    -0.063 C 
ATOM     22  N   UNL     1       4.166   3.055  -7.179  0.00  0.00    +0.387 N 
ATOM     23  C   UNL     1       3.720   4.276  -6.495  0.00  0.00    -0.063 C 
ATOM     24  C   UNL     1       4.203   4.250  -5.043  0.00  0.00    +0.066 C 
ATOM     25  H   UNL     1       5.264   3.017  -7.125  0.00  0.00    -0.081 HD
BRANCH  22  26
ATOM     26  C   UNL     1       3.786   3.077  -8.598  0.00  0.00    +0.019 C 
BRANCH  26  27
ATOM     27  C   UNL     1       4.544   4.172  -9.303  0.00  0.00    +0.199 C 
ATOM     28  O   UNL     1       5.404   4.791  -8.714  0.00  0.00    -0.278 OA
ATOM     29  N   UNL     1       4.265   4.464 -10.589  0.00  0.00    -0.303 N 
ATOM     30  C   UNL     1       3.229   3.719 -11.318  0.00  0.00    +0.107 C 
ATOM     31  C   UNL     1       2.232   4.725 -11.914  0.00  0.00    +0.019 C 
ATOM     32  C   UNL     1       2.992   5.743 -12.767  0.00  0.00    +0.003 C 
ATOM     33  C   UNL     1       3.982   6.511 -11.888  0.00  0.00    +0.019 C 
ATOM     34  C   UNL     1       4.995   5.529 -11.290  0.00  0.00    +0.107 C 
ENDBRANCH  26  27
ENDBRANCH  22  26
ENDBRANCH  18  19
ENDBRANCH   6  18
TORSDOF 6
