REMARK  Name = ZINC33476817
REMARK  11 active torsions:
REMARK  status: ('A' for Active; 'I' for Inactive)
REMARK    1  A    between atoms: C_1  and  C_2
REMARK    2  A    between atoms: C_2  and  C_3
REMARK    3  A    between atoms: C_4  and  C_33
REMARK    4  A    between atoms: C_9  and  S_21
REMARK    5  A    between atoms: N_10  and  C_13
REMARK    6  A    between atoms: C_17  and  O_19
REMARK    7  A    between atoms: O_19  and  C_20
REMARK    8  A    between atoms: S_21  and  C_22
REMARK    9  A    between atoms: C_22  and  C_23
REMARK   10  A    between atoms: N_25  and  C_26
REMARK   11  A    between atoms: C_26  and  C_31
REMARK                            x       y       z     vdW  Elec       q    Type
REMARK                         _______ _______ _______ _____ _____    ______ ____
ROOT
ATOM      1  C   UNL     1      -2.446   1.530   1.958  0.00  0.00    -0.005 A 
ATOM      2  C   UNL     1      -2.938   0.436   2.559  0.00  0.00    -0.026 A 
ATOM      3  C   UNL     1      -4.190  -0.130   2.087  0.00  0.00    +0.076 A 
ATOM      4  C   UNL     1      -4.776   0.548   1.001  0.00  0.00    +0.117 A 
ATOM      5  S   UNL     1      -3.644   1.878   0.685  0.00  0.00    -0.073 S 
ATOM      6  N   UNL     1      -5.918   0.149   0.455  0.00  0.00    -0.215 NA
ATOM      7  C   UNL     1      -6.555  -0.909   0.915  0.00  0.00    +0.178 A 
ATOM      8  N   UNL     1      -6.056  -1.625   1.967  0.00  0.00    -0.255 N 
ATOM      9  C   UNL     1      -4.903  -1.274   2.565  0.00  0.00    +0.268 A 
ATOM     10  O   UNL     1      -4.472  -1.923   3.503  0.00  0.00    -0.267 OA
ATOM     11  C   UNL     1      -2.201  -0.197   3.711  0.00  0.00    +0.045 C 
ENDROOT
BRANCH   8  12
ATOM     12  C   UNL     1      -6.758  -2.745   2.431  0.00  0.00    +0.055 A 
ATOM     13  C   UNL     1      -6.499  -3.999   1.894  0.00  0.00    +0.026 A 
ATOM     14  C   UNL     1      -7.187  -5.105   2.356  0.00  0.00    +0.006 A 
ATOM     15  C   UNL     1      -8.143  -4.964   3.344  0.00  0.00    +0.046 A 
ATOM     16  C   UNL     1      -8.411  -3.712   3.879  0.00  0.00    +0.122 A 
ATOM     17  C   UNL     1      -7.718  -2.601   3.423  0.00  0.00    +0.072 A 
BRANCH  16  18
ATOM     18  O   UNL     1      -9.351  -3.574   4.851  0.00  0.00    -0.495 OA
ATOM     19  C   UNL     1     -10.026  -4.761   5.273  0.00  0.00    +0.277 C 
ENDBRANCH  16  18
ENDBRANCH   8  12
BRANCH   1  21
ATOM     20  C   UNL     1      -0.020   1.696   1.470  0.00  0.00    +0.009 C 
ATOM     21  C   UNL     1      -1.179   2.281   2.279  0.00  0.00    +0.039 C 
ENDBRANCH   1  21
BRANCH   7  22
ATOM     22  S   UNL     1      -8.069  -1.407   0.163  0.00  0.00    -0.078 S 
BRANCH  22  23
ATOM     23  C   UNL     1      -8.217  -0.137  -1.117  0.00  0.00    +0.173 C 
BRANCH  23  24
ATOM     24  C   UNL     1      -9.477  -0.368  -1.911  0.00  0.00    +0.224 C 
ATOM     25  O   UNL     1     -10.204  -1.300  -1.637  0.00  0.00    -0.275 OA
ATOM     26  N   UNL     1      -9.797   0.461  -2.924  0.00  0.00    -0.297 N 
ATOM     27  H   UNL     1      -9.139   1.306  -3.172  0.00  0.00    +0.150 HD
BRANCH  26  28
ATOM     28  C   UNL     1     -11.023   0.236  -3.695  0.00  0.00    +0.121 C 
ATOM     29  C   UNL     1     -10.957  -1.132  -4.405  0.00  0.00    +0.041 C 
ATOM     30  C   UNL     1     -11.643  -0.883  -5.772  0.00  0.00    +0.003 C 
ATOM     31  C   UNL     1     -11.161   0.542  -6.143  0.00  0.00    +0.003 C 
ATOM     32  C   UNL     1     -11.153   1.300  -4.799  0.00  0.00    +0.041 C 
BRANCH  28  33
ATOM     33  C   UNL     1     -12.194   0.287  -2.805  0.00  0.00    +0.088 C 
ATOM     34  N   UNL     1     -13.099   0.326  -2.119  0.00  0.00    -0.194 NA
ENDBRANCH  28  33
ENDBRANCH  26  28
ENDBRANCH  23  24
ENDBRANCH  22  23
ENDBRANCH   7  22
TORSDOF 8
