REMARK  Name = ZINC24738220
REMARK  11 active torsions:
REMARK  status: ('A' for Active; 'I' for Inactive)
REMARK    1  A    between atoms: C_1  and  C_2
REMARK    2  A    between atoms: C_2  and  C_3
REMARK    3  A    between atoms: C_2  and  C_4
REMARK    4  A    between atoms: C_4  and  C_5
REMARK    5  A    between atoms: C_5  and  C_6
REMARK    6  A    between atoms: C_6  and  C_7
REMARK    7  A    between atoms: C_7  and  C_9
REMARK    8  A    between atoms: C_7  and  C_10
REMARK    9  A    between atoms: C_16  and  C_36
REMARK   10  A    between atoms: C_25  and  C_35
REMARK   11  A    between atoms: C_26  and  C_34
REMARK                            x       y       z     vdW  Elec       q    Type
REMARK                         _______ _______ _______ _____ _____    ______ ____
ROOT
ATOM      1  C   UNL     1      -0.814   1.495  -1.166  0.00  0.00    -0.002 C 
ATOM      2  C   UNL     1      -2.261   0.937  -1.131  0.00  0.00    +0.004 C 
ATOM      3  C   UNL     1      -2.497   0.238  -2.501  0.00  0.00    +0.004 C 
ATOM      4  C   UNL     1      -1.387   0.841  -3.372  0.00  0.00    -0.001 C 
ATOM      5  C   UNL     1      -0.189   0.823  -2.403  0.00  0.00    -0.026 C 
ATOM      6  C   UNL     1       0.968   1.559  -3.034  0.00  0.00    +0.007 C 
ATOM      7  C   UNL     1       1.350   0.830  -4.341  0.00  0.00    +0.005 C 
ATOM      8  C   UNL     1       0.183   0.781  -5.299  0.00  0.00    -0.001 C 
ATOM      9  C   UNL     1      -1.103   0.216  -4.703  0.00  0.00    -0.004 C 
ATOM     10  C   UNL     1      -1.136  -1.302  -4.710  0.00  0.00    +0.005 C 
ATOM     11  C   UNL     1      -0.960  -1.801  -6.149  0.00  0.00    +0.008 C 
ATOM     12  C   UNL     1       0.390  -1.333  -6.689  0.00  0.00    -0.020 C 
ATOM     13  C   UNL     1       0.489   0.183  -6.675  0.00  0.00    -0.022 C 
ATOM     14  C   UNL     1      -0.515   0.828  -7.638  0.00  0.00    +0.030 C 
ATOM     15  C   UNL     1      -0.497   0.272  -9.049  0.00  0.00    +0.123 C 
ATOM     16  C   UNL     1      -0.445  -1.236  -9.019  0.00  0.00    +0.147 C 
ATOM     17  O   UNL     1      -1.190  -1.898  -9.702  0.00  0.00    -0.296 OA
ATOM     18  C   UNL     1       0.566  -1.889  -8.112  0.00  0.00    +0.082 C 
ATOM     19 BR   UNL     1       1.020   0.984 -10.076  0.00  0.00    -0.080 Br
ATOM     20  C   UNL     1       1.907   0.598  -7.096  0.00  0.00    +0.012 C 
ATOM     21  C   UNL     1       1.517  -1.952  -5.850  0.00  0.00    +0.012 C 
ATOM     22  C   UNL     1       0.234  -0.583  -1.985  0.00  0.00    +0.012 C 
ENDROOT
BRANCH   1  23
ATOM     23  C   UNL     1      -0.051   1.080   0.090  0.00  0.00    -0.010 C 
ATOM     24  C   UNL     1      -0.838   1.511   1.330  0.00  0.00    +0.008 C 
BRANCH  23  25
ATOM     25  C   UNL     1       1.323   1.753   0.098  0.00  0.00    +0.003 C 
BRANCH  25  26
ATOM     26  C   UNL     1       2.115   1.281   1.320  0.00  0.00    +0.001 C 
BRANCH  26  27
ATOM     27  C   UNL     1       3.489   1.954   1.328  0.00  0.00    +0.003 C 
BRANCH  27  29
ATOM     28  C   UNL     1       4.564  -0.016   2.425  0.00  0.00    +0.007 C 
ATOM     29  C   UNL     1       4.280   1.482   2.549  0.00  0.00    -0.017 C 
ATOM     30  C   UNL     1       5.603   2.248   2.626  0.00  0.00    +0.007 C 
ENDBRANCH  27  29
ENDBRANCH  26  27
ENDBRANCH  25  26
ENDBRANCH  23  25
ENDBRANCH   1  23
TORSDOF 5
