REMARK  Name = ZINC08777661
REMARK  8 active torsions:
REMARK  status: ('A' for Active; 'I' for Inactive)
REMARK    1  A    between atoms: C_1  and  C_2
REMARK    2  A    between atoms: C_4  and  C_16
REMARK    3  A    between atoms: C_5  and  C_15
REMARK    4  A    between atoms: N_6  and  C_7
REMARK    5  A    between atoms: C_12  and  C_13
REMARK    6  A    between atoms: C_20  and  S_28
REMARK    7  A    between atoms: N_24  and  C_27
REMARK    8  A    between atoms: S_28  and  N_31
REMARK                            x       y       z     vdW  Elec       q    Type
REMARK                         _______ _______ _______ _____ _____    ______ ____
ROOT
ATOM      1  C   UNL     1       1.879   3.154   0.000  0.00  0.00    +0.023 C 
ATOM      2  C   UNL     1       0.992   4.203  -0.090  0.00  0.00    +0.047 C 
ATOM      3  C   UNL     1       1.309   5.645  -0.205  0.00  0.00    +0.010 A 
ATOM      4  C   UNL     1       2.503   6.357  -0.255  0.00  0.00    +0.039 A 
ATOM      5  C   UNL     1       2.475   7.732  -0.368  0.00  0.00    +0.106 A 
ATOM      6  C   UNL     1       1.263   8.399  -0.430  0.00  0.00    +0.030 A 
ATOM      7  C   UNL     1       0.073   7.702  -0.380  0.00  0.00    +0.026 A 
ATOM      8  C   UNL     1       0.081   6.316  -0.267  0.00  0.00    +0.044 A 
ATOM      9  N   UNL     1      -0.951   5.388  -0.198  0.00  0.00    -0.270 N 
ATOM     10  C   UNL     1      -0.477   4.134  -0.099  0.00  0.00    +0.251 C 
ATOM     11  O   UNL     1      -1.146   3.119  -0.026  0.00  0.00    -0.270 OA
ATOM     12  C   UNL     1      -2.374   5.731  -0.235  0.00  0.00    +0.138 C 
ENDROOT
BRANCH   1  16
ATOM     13  C   UNL     1      -0.862  -0.741   1.807  0.00  0.00    +0.064 C 
ATOM     14  C   UNL     1       0.165   0.090   1.082  0.00  0.00    +0.022 A 
ATOM     15  C   UNL     1       0.249   1.430   1.121  0.00  0.00    +0.031 A 
ATOM     16  C   UNL     1       1.389   1.803   0.274  0.00  0.00    -0.003 A 
ATOM     17  C   UNL     1       1.906   0.615  -0.214  0.00  0.00    +0.028 A 
ATOM     18  N   UNL     1       1.159  -0.400   0.282  0.00  0.00    -0.317 N 
ATOM     19  C   UNL     1       3.091   0.476  -1.135  0.00  0.00    +0.064 C 
BRANCH  18  20
ATOM     20  C   UNL     1       1.374  -1.759   0.013  0.00  0.00    +0.051 A 
ATOM     21  C   UNL     1       0.746  -2.361  -1.069  0.00  0.00    +0.026 A 
ATOM     22  C   UNL     1       0.964  -3.699  -1.336  0.00  0.00    +0.003 A 
ATOM     23  C   UNL     1       1.798  -4.441  -0.520  0.00  0.00    +0.020 A 
ATOM     24  C   UNL     1       2.421  -3.845   0.562  0.00  0.00    +0.046 A 
ATOM     25  C   UNL     1       2.211  -2.505   0.830  0.00  0.00    -0.008 A 
ATOM     26  C   UNL     1       2.889  -1.856   2.009  0.00  0.00    +0.047 C 
ATOM     27 CL   UNL     1       3.467  -4.780   1.584  0.00  0.00    -0.083 Cl
ENDBRANCH  18  20
ENDBRANCH   1  16
BRANCH   5  28
ATOM     28  S   UNL     1       3.983   8.640  -0.432  0.00  0.00    +0.061 S 
ATOM     29  O   UNL     1       3.684   9.957   0.011  0.00  0.00    -0.153 OA
ATOM     30  O   UNL     1       4.971   7.832   0.192  0.00  0.00    -0.153 OA
BRANCH  28  31
ATOM     31  N   UNL     1       4.412   8.764  -2.027  0.00  0.00    -0.172 NA
ATOM     32  C   UNL     1       5.266   7.748  -2.663  0.00  0.00    +0.137 C 
ATOM     33  C   UNL     1       4.583   7.295  -3.964  0.00  0.00    +0.177 C 
ATOM     34  O   UNL     1       4.270   8.445  -4.754  0.00  0.00    -0.377 OA
ATOM     35  C   UNL     1       3.342   9.343  -4.139  0.00  0.00    +0.177 C 
ATOM     36  C   UNL     1       3.957   9.897  -2.848  0.00  0.00    +0.137 C 
ENDBRANCH  28  31
ENDBRANCH   5  28
TORSDOF 4
