REMARK  Name = ZINC03877660
REMARK  6 active torsions:
REMARK  status: ('A' for Active; 'I' for Inactive)
REMARK    1  A    between atoms: C_1  and  N_2
REMARK    2  A    between atoms: N_2  and  C_3
REMARK    3  A    between atoms: N_2  and  C_4
REMARK    4  A    between atoms: C_7  and  C_10
REMARK    5  A    between atoms: C_12  and  C_24
REMARK    6  A    between atoms: N_14  and  C_17
REMARK                            x       y       z     vdW  Elec       q    Type
REMARK                         _______ _______ _______ _____ _____    ______ ____
ROOT
ATOM      1  C   UNL     1      -0.247   0.099  -0.099  0.00  0.00    +0.023 C 
ATOM      2  C   UNL     1      -1.495  -0.472   0.059  0.00  0.00    +0.067 C 
ATOM      3  C   UNL     1      -2.800   0.217   0.120  0.00  0.00    +0.102 C 
ATOM      4  N   UNL     1      -3.718  -0.699   0.277  0.00  0.00    -0.171 NA
ATOM      5  N   UNL     1      -3.156  -1.974   0.331  0.00  0.00    -0.156 N 
ATOM      6  C   UNL     1      -1.817  -1.901   0.199  0.00  0.00    +0.273 C 
ATOM      7  O   UNL     1      -1.030  -2.832   0.197  0.00  0.00    -0.268 OA
ENDROOT
BRANCH   5   8
ATOM      8  C   UNL     1      -3.881  -3.161   0.493  0.00  0.00    +0.060 A 
ATOM      9  C   UNL     1      -3.218  -4.381   0.527  0.00  0.00    +0.026 A 
ATOM     10  C   UNL     1      -3.934  -5.550   0.694  0.00  0.00    +0.017 A 
ATOM     11  C   UNL     1      -5.312  -5.508   0.814  0.00  0.00    +0.018 A 
ATOM     12  C   UNL     1      -5.975  -4.294   0.774  0.00  0.00    +0.017 A 
ATOM     13  C   UNL     1      -5.263  -3.122   0.614  0.00  0.00    +0.026 A 
ATOM     14 BR   UNL     1      -6.290  -7.111   1.034  0.00  0.00    -0.050 Br
ENDBRANCH   5   8
BRANCH   1  18
ATOM     15  C   UNL     1       0.092   4.167  -1.192  0.00  0.00    +0.029 A 
ATOM     16  C   UNL     1       0.892   3.652  -0.173  0.00  0.00    +0.023 A 
ATOM     17  C   UNL     1       0.787   2.339   0.183  0.00  0.00    +0.010 A 
ATOM     18  C   UNL     1      -0.130   1.506  -0.477  0.00  0.00    -0.024 A 
ATOM     19  C   UNL     1      -0.929   2.028  -1.506  0.00  0.00    +0.010 A 
ATOM     20  C   UNL     1      -0.820   3.344  -1.851  0.00  0.00    +0.023 A 
BRANCH  15  22
ATOM     21  C   UNL     1       1.056   6.403  -0.771  0.00  0.00    +0.129 C 
ATOM     22  N   UNL     1       0.203   5.503  -1.551  0.00  0.00    -0.336 N 
ATOM     23  C   UNL     1      -0.533   6.014  -2.710  0.00  0.00    +0.129 C 
ENDBRANCH  15  22
ENDBRANCH   1  18
BRANCH   3  24
ATOM     24  C   UNL     1      -3.027   1.678   0.020  0.00  0.00    +0.003 A 
ATOM     25  C   UNL     1      -2.416   2.545   0.926  0.00  0.00    +0.010 A 
ATOM     26  C   UNL     1      -2.627   3.905   0.824  0.00  0.00    +0.001 A 
ATOM     27  C   UNL     1      -3.450   4.408  -0.168  0.00  0.00    +0.000 A 
ATOM     28  C   UNL     1      -4.063   3.553  -1.065  0.00  0.00    +0.001 A 
ATOM     29  C   UNL     1      -3.856   2.191  -0.977  0.00  0.00    +0.010 A 
ENDBRANCH   3  24
TORSDOF 4
