REMARK  Name = ZINC12763287
REMARK  9 active torsions:
REMARK  status: ('A' for Active; 'I' for Inactive)
REMARK    1  A    between atoms: C_1  and  C_2
REMARK    2  A    between atoms: C_2  and  C_4
REMARK    3  A    between atoms: C_2  and  O_20
REMARK    4  A    between atoms: N_6  and  C_7
REMARK    5  A    between atoms: C_7  and  C_8
REMARK    6  A    between atoms: C_7  and  C_14
REMARK    7  A    between atoms: O_20  and  C_21
REMARK    8  A    between atoms: C_21  and  C_23
REMARK    9  A    between atoms: N_25  and  C_30
REMARK                            x       y       z     vdW  Elec       q    Type
REMARK                         _______ _______ _______ _____ _____    ______ ____
ROOT
ATOM      1  C   UNL     1       7.438   1.037   1.498  0.00  0.00    +0.062 C 
ATOM      2  C   UNL     1       6.665  -0.015   2.296  0.00  0.00    +0.259 C 
ENDROOT
BRANCH   2   3
ATOM      3  C   UNL     1       5.686  -0.715   1.388  0.00  0.00    +0.254 C 
ATOM      4  O   UNL     1       5.819  -1.896   1.149  0.00  0.00    -0.272 OA
ATOM      5  N   UNL     1       4.663  -0.027   0.843  0.00  0.00    -0.301 N 
ATOM      6  H   UNL     1       4.557   0.918   1.034  0.00  0.00    +0.150 HD
BRANCH   5   7
ATOM      7  C   UNL     1       3.711  -0.707  -0.039  0.00  0.00    +0.134 C 
BRANCH   7   8
ATOM      8  C   UNL     1       2.396   0.029  -0.022  0.00  0.00    -0.023 A 
ATOM      9  C   UNL     1       1.208  -0.679  -0.014  0.00  0.00    +0.006 A 
ATOM     10  C   UNL     1       0.002  -0.004   0.002  0.00  0.00    +0.000 A 
ATOM     11  C   UNL     1      -0.017   1.378   0.010  0.00  0.00    +0.000 A 
ATOM     12  C   UNL     1       1.171   2.086   0.002  0.00  0.00    +0.000 A 
ATOM     13  C   UNL     1       2.377   1.411  -0.014  0.00  0.00    +0.006 A 
ENDBRANCH   7   8
BRANCH   7  14
ATOM     14  C   UNL     1       4.256  -0.729  -1.444  0.00  0.00    -0.023 A 
ATOM     15  C   UNL     1       4.904   0.382  -1.952  0.00  0.00    +0.006 A 
ATOM     16  C   UNL     1       5.408   0.360  -3.239  0.00  0.00    +0.000 A 
ATOM     17  C   UNL     1       5.255  -0.769  -4.022  0.00  0.00    +0.000 A 
ATOM     18  C   UNL     1       4.602  -1.878  -3.516  0.00  0.00    +0.000 A 
ATOM     19  C   UNL     1       4.103  -1.858  -2.227  0.00  0.00    +0.006 A 
ENDBRANCH   7  14
ENDBRANCH   5   7
ENDBRANCH   2   3
BRANCH   2  20
ATOM     20  O   UNL     1       7.595  -0.986   2.844  0.00  0.00    -0.448 OA
BRANCH  20  21
ATOM     21  C   UNL     1       8.100  -0.726   4.067  0.00  0.00    +0.356 C 
ATOM     22  O   UNL     1       7.772   0.284   4.659  0.00  0.00    -0.244 OA
BRANCH  21  23
ATOM     23  C   UNL     1       9.045  -1.662   4.684  0.00  0.00    +0.144 C 
ATOM     24  N   UNL     1       9.389  -2.737   4.045  0.00  0.00    -0.175 NA
ATOM     25  N   UNL     1      10.286  -3.654   4.603  0.00  0.00    -0.188 N 
ATOM     26  C   UNL     1      10.517  -3.661   5.930  0.00  0.00    +0.235 C 
ATOM     27  O   UNL     1      11.292  -4.461   6.409  0.00  0.00    -0.274 OA
ATOM     28  C   UNL     1       9.809  -2.669   6.818  0.00  0.00    +0.104 C 
ATOM     29  C   UNL     1       9.607  -1.359   6.047  0.00  0.00    +0.073 C 
BRANCH  25  30
ATOM     30  C   UNL     1      10.979  -4.613   3.739  0.00  0.00    +0.124 C 
ATOM     31  C   UNL     1      11.836  -3.851   2.714  0.00  0.00    +0.049 C 
ATOM     32  C   UNL     1      12.303  -4.861   1.627  0.00  0.00    +0.168 C 
ATOM     33  S   UNL     1      10.765  -5.852   1.405  0.00  0.00    -0.029 S 
ATOM     34  O   UNL     1      10.000  -5.286   0.349  0.00  0.00    -0.174 OA
ATOM     35  O   UNL     1      11.107  -7.230   1.360  0.00  0.00    -0.174 OA
ATOM     36  C   UNL     1       9.936  -5.490   3.005  0.00  0.00    +0.190 C 
ENDBRANCH  25  30
ENDBRANCH  21  23
ENDBRANCH  20  21
ENDBRANCH   2  20
TORSDOF 8
