REMARK  Name = ZINC21809784
REMARK  9 active torsions:
REMARK  status: ('A' for Active; 'I' for Inactive)
REMARK    1  A    between atoms: C_1  and  C_2
REMARK    2  A    between atoms: C_2  and  C_26
REMARK    3  A    between atoms: N_14  and  C_15
REMARK    4  A    between atoms: C_15  and  C_16
REMARK    5  A    between atoms: C_20  and  O_24
REMARK    6  A    between atoms: C_21  and  O_22
REMARK    7  A    between atoms: O_22  and  C_23
REMARK    8  A    between atoms: O_24  and  C_25
REMARK    9  A    between atoms: N_28  and  C_29
REMARK                            x       y       z     vdW  Elec       q    Type
REMARK                         _______ _______ _______ _____ _____    ______ ____
ROOT
ATOM      1  C   UNL     1       4.006   3.131  -4.947  0.00  0.00    +0.043 C 
ATOM      2  C   UNL     1       2.886   2.281  -5.551  0.00  0.00    +0.129 C 
ATOM      3  C   UNL     1       2.187   3.091  -6.644  0.00  0.00    +0.157 C 
ATOM      4  N   UNL     1       1.332   2.196  -7.428  0.00  0.00    -0.333 N 
ATOM      5  C   UNL     1       0.164   2.489  -8.108  0.00  0.00    +0.057 A 
ATOM      6  C   UNL     1      -0.673   3.588  -8.349  0.00  0.00    +0.034 A 
ATOM      7  C   UNL     1      -1.777   3.448  -9.113  0.00  0.00    +0.048 A 
ATOM      8  S   UNL     1      -1.725   1.721  -9.560  0.00  0.00    -0.095 S 
ATOM      9  C   UNL     1      -0.235   1.282  -8.703  0.00  0.00    +0.038 A 
ATOM     10  C   UNL     1       0.675   0.282  -8.382  0.00  0.00    +0.048 A 
ATOM     11  C   UNL     1       1.632   0.849  -7.593  0.00  0.00    +0.106 A 
ATOM     12  C   UNL     1       2.813   0.259  -6.950  0.00  0.00    +0.264 C 
ATOM     13  O   UNL     1       3.190  -0.869  -7.211  0.00  0.00    -0.268 OA
ATOM     14  N   UNL     1       3.460   1.038  -6.052  0.00  0.00    -0.276 N 
ENDROOT
BRANCH   2  15
ATOM     15  C   UNL     1       1.886   1.956  -4.472  0.00  0.00    +0.238 C 
ATOM     16  O   UNL     1       1.788   2.674  -3.499  0.00  0.00    -0.273 OA
ATOM     17  N   UNL     1       1.101   0.867  -4.588  0.00  0.00    -0.311 N 
ATOM     18  H   UNL     1       1.133   0.260  -5.505  0.00  0.00    +0.149 HD
BRANCH  17  19
ATOM     19  C   UNL     1       0.204   0.491  -3.492  0.00  0.00    +0.073 C 
ATOM     20  C   UNL     1       1.008  -0.293  -2.436  0.00  0.00    +0.022 C 
ATOM     21  C   UNL     1       0.109  -1.094  -1.475  0.00  0.00    +0.002 C 
ATOM     22  C   UNL     1      -1.108  -0.320  -1.044  0.00  0.00    +0.000 C 
ATOM     23  C   UNL     1      -2.277  -0.683  -1.982  0.00  0.00    +0.000 C 
ATOM     24  C   UNL     1      -2.214   0.031  -3.249  0.00  0.00    +0.002 C 
ATOM     25  C   UNL     1      -0.942  -0.307  -4.053  0.00  0.00    +0.022 C 
ENDBRANCH  17  19
ENDBRANCH   2  15
BRANCH  14  26
ATOM     26  C   UNL     1       4.778   0.620  -5.569  0.00  0.00    +0.148 C 
BRANCH  26  27
ATOM     27  C   UNL     1       4.625  -0.114  -4.262  0.00  0.00    +0.015 A 
ATOM     28  C   UNL     1       4.870   0.541  -3.069  0.00  0.00    +0.009 A 
ATOM     29  C   UNL     1       4.729  -0.128  -1.868  0.00  0.00    +0.004 A 
ATOM     30  C   UNL     1       4.343  -1.456  -1.854  0.00  0.00    +0.049 A 
ATOM     31  C   UNL     1       4.096  -2.118  -3.045  0.00  0.00    +0.162 A 
ATOM     32  C   UNL     1       4.233  -1.442  -4.255  0.00  0.00    +0.166 A 
BRANCH  32  33
ATOM     33  O   UNL     1       3.987  -2.086  -5.427  0.00  0.00    -0.491 OA
ATOM     34  C   UNL     1       5.089  -2.754  -6.044  0.00  0.00    +0.277 C 
ENDBRANCH  32  33
BRANCH  31  35
ATOM     35  O   UNL     1       3.716  -3.424  -3.034  0.00  0.00    -0.491 OA
ATOM     36  C   UNL     1       3.591  -4.051  -1.756  0.00  0.00    +0.277 C 
ENDBRANCH  31  35
ENDBRANCH  26  27
ENDBRANCH  14  26
TORSDOF 6
