REMARK  Name = ZINC25671384
REMARK  14 active torsions:
REMARK  status: ('A' for Active; 'I' for Inactive)
REMARK    1  A    between atoms: C_1  and  C_2
REMARK    2  A    between atoms: C_2  and  O_3
REMARK    3  A    between atoms: O_3  and  C_4
REMARK    4  A    between atoms: C_4  and  C_6
REMARK    5  A    between atoms: C_7  and  C_20
REMARK    6  A    between atoms: C_12  and  C_14
REMARK    7  A    between atoms: C_17  and  C_19
REMARK    8  A    between atoms: C_20  and  S_21
REMARK    9  A    between atoms: S_21  and  C_22
REMARK   10  A    between atoms: C_25  and  C_27
REMARK   11  A    between atoms: C_30  and  C_33
REMARK   12  A    between atoms: C_33  and  C_34
REMARK   13  A    between atoms: C_33  and  C_35
REMARK   14  A    between atoms: C_33  and  C_36
REMARK                            x       y       z     vdW  Elec       q    Type
REMARK                         _______ _______ _______ _____ _____    ______ ____
ROOT
ATOM      1  C   UNL     1       1.210   1.929  -0.109  0.00  0.00    +0.082 C 
ATOM      2  C   UNL     1       2.391   1.304   0.093  0.00  0.00    +0.034 C 
ATOM      3  N   UNL     1       3.554   2.012   0.191  0.00  0.00    -0.272 N 
ATOM      4  C   UNL     1       3.621   3.347   0.109  0.00  0.00    +0.304 C 
ATOM      5  O   UNL     1       4.704   3.889   0.213  0.00  0.00    -0.252 OA
ATOM      6  N   UNL     1       2.526   4.109  -0.085  0.00  0.00    -0.285 N 
ATOM      7  C   UNL     1       1.220   3.440  -0.210  0.00  0.00    +0.179 C 
ATOM      8  H   UNL     1       4.507   1.485   0.346  0.00  0.00    +0.156 HD
ATOM      9  H   UNL     1       2.592   5.205  -0.150  0.00  0.00    +0.151 HD
ENDROOT
BRANCH   7  10
ATOM     10  C   UNL     1       0.629   3.821  -1.542  0.00  0.00    +0.130 A 
ATOM     11  C   UNL     1      -0.632   4.239  -1.753  0.00  0.00    +0.047 A 
ATOM     12  C   UNL     1      -0.756   4.484  -3.140  0.00  0.00    +0.045 A 
ATOM     13  C   UNL     1       0.436   4.202  -3.694  0.00  0.00    +0.102 A 
ATOM     14  O   UNL     1       1.273   3.806  -2.721  0.00  0.00    -0.463 OA
ATOM     15  C   UNL     1       0.778   4.317  -5.157  0.00  0.00    +0.086 C 
ENDBRANCH   7  10
BRANCH   1  16
ATOM     16  C   UNL     1       0.005   1.196  -0.216  0.00  0.00    +0.339 C 
ATOM     17  O   UNL     1      -0.755   1.133   0.732  0.00  0.00    -0.245 OA
BRANCH  16  18
ATOM     18  O   UNL     1      -0.300   0.563  -1.368  0.00  0.00    -0.462 OA
BRANCH  18  20
ATOM     19  C   UNL     1      -1.702  -0.808  -2.780  0.00  0.00    +0.048 C 
ATOM     20  C   UNL     1      -1.530  -0.163  -1.404  0.00  0.00    +0.229 C 
ENDBRANCH  18  20
ENDBRANCH  16  18
ENDBRANCH   1  16
BRANCH   2  21
ATOM     21  C   UNL     1       2.425  -0.198   0.205  0.00  0.00    +0.130 C 
BRANCH  21  22
ATOM     22  S   UNL     1       3.082  -0.903  -1.327  0.00  0.00    -0.060 S 
BRANCH  22  23
ATOM     23  C   UNL     1       3.013  -2.618  -0.929  0.00  0.00    +0.278 A 
ATOM     24  N   UNL     1       2.590  -3.137   0.200  0.00  0.00    -0.101 NA
ATOM     25  N   UNL     1       2.676  -4.420   0.140  0.00  0.00    -0.106 NA
ATOM     26  C   UNL     1       3.165  -4.770  -1.024  0.00  0.00    +0.249 A 
ATOM     27  O   UNL     1       3.389  -3.637  -1.726  0.00  0.00    -0.411 OA
BRANCH  26  28
ATOM     28  C   UNL     1       3.424  -6.150  -1.485  0.00  0.00    +0.039 A 
ATOM     29  C   UNL     1       3.945  -6.377  -2.760  0.00  0.00    +0.013 A 
ATOM     30  C   UNL     1       4.189  -7.667  -3.182  0.00  0.00    +0.005 A 
ATOM     31  C   UNL     1       3.909  -8.736  -2.349  0.00  0.00    -0.042 A 
ATOM     32  C   UNL     1       3.387  -8.518  -1.086  0.00  0.00    +0.005 A 
ATOM     33  C   UNL     1       3.144  -7.232  -0.649  0.00  0.00    +0.013 A 
BRANCH  31  34
ATOM     34  C   UNL     1       4.173 -10.143  -2.818  0.00  0.00    -0.013 C 
ATOM     35  C   UNL     1       2.865 -10.936  -2.814  0.00  0.00    +0.015 C 
ATOM     36  C   UNL     1       4.744 -10.108  -4.237  0.00  0.00    +0.015 C 
ATOM     37  C   UNL     1       5.179 -10.813  -1.880  0.00  0.00    +0.015 C 
ENDBRANCH  31  34
ENDBRANCH  26  28
ENDBRANCH  22  23
ENDBRANCH  21  22
ENDBRANCH   2  21
TORSDOF 9
