REMARK  Name = ZINC43726608
REMARK  7 active torsions:
REMARK  status: ('A' for Active; 'I' for Inactive)
REMARK    1  A    between atoms: C_1  and  C_2
REMARK    2  A    between atoms: C_2  and  O_4
REMARK    3  A    between atoms: O_4  and  C_5
REMARK    4  A    between atoms: C_11  and  C_31
REMARK    5  A    between atoms: C_22  and  C_30
REMARK    6  A    between atoms: C_25  and  C_27
REMARK    7  A    between atoms: C_25  and  O_29
REMARK                            x       y       z     vdW  Elec       q    Type
REMARK                         _______ _______ _______ _____ _____    ______ ____
ROOT
ATOM      1  C   UNL     1       0.020  -2.096  -1.097  0.00  0.00    +0.183 C 
ATOM      2  C   UNL     1      -1.424  -2.655  -1.127  0.00  0.00    +0.045 C 
ATOM      3  C   UNL     1      -1.550  -3.474  -2.441  0.00  0.00    +0.008 C 
ATOM      4  C   UNL     1      -0.471  -2.854  -3.335  0.00  0.00    +0.002 C 
ATOM      5  C   UNL     1       0.704  -2.674  -2.332  0.00  0.00    +0.008 C 
ATOM      6  C   UNL     1       1.745  -1.798  -3.002  0.00  0.00    +0.011 C 
ATOM      7  C   UNL     1       2.282  -2.574  -4.217  0.00  0.00    +0.005 C 
ATOM      8  C   UNL     1       1.159  -2.950  -5.177  0.00  0.00    -0.001 C 
ATOM      9  C   UNL     1       0.025  -3.724  -4.474  0.00  0.00    -0.004 C 
ATOM     10  C   UNL     1      -1.107  -4.001  -5.465  0.00  0.00    +0.004 C 
ATOM     11  C   UNL     1      -0.572  -4.835  -6.631  0.00  0.00    +0.004 C 
ATOM     12  C   UNL     1       0.545  -4.065  -7.339  0.00  0.00    -0.001 C 
ATOM     13  C   UNL     1       1.712  -3.794  -6.325  0.00  0.00    -0.026 C 
ATOM     14  C   UNL     1       2.826  -3.022  -7.034  0.00  0.00    +0.011 C 
ATOM     15  C   UNL     1       3.377  -3.863  -8.188  0.00  0.00    +0.048 C 
ATOM     16  C   UNL     1       2.253  -4.163  -9.182  0.00  0.00    +0.126 C 
ATOM     17  C   UNL     1       1.080  -4.899  -8.504  0.00  0.00    +0.052 C 
ATOM     18  C   UNL     1       2.270  -5.107  -5.771  0.00  0.00    +0.012 C 
ATOM     19  C   UNL     1       1.312  -4.037  -1.997  0.00  0.00    +0.015 C 
ENDROOT
BRANCH  16  20
ATOM     20  C   UNL     1       1.713  -2.899  -9.709  0.00  0.00    -0.071 C 
ATOM     21  C   UNL     1       1.283  -1.891 -10.129  0.00  0.00    +0.007 C 
ENDBRANCH  16  20
BRANCH  16  22
ATOM     22  O   UNL     1       2.767  -4.948 -10.259  0.00  0.00    -0.377 OA
ATOM     23  H   UNL     1       3.478  -4.519 -10.754  0.00  0.00    +0.211 HD
ENDBRANCH  16  22
BRANCH   1  24
ATOM     24  O   UNL     1       0.000  -0.669  -1.164  0.00  0.00    -0.461 OA
BRANCH  24  26
ATOM     25  C   UNL     1      -0.018   1.503   0.010  0.00  0.00    +0.136 C 
ATOM     26  C   UNL     1       0.002  -0.004   0.002  0.00  0.00    +0.304 C 
ATOM     27  O   UNL     1       0.020  -0.614   1.045  0.00  0.00    -0.251 OA
ENDBRANCH  24  26
ENDBRANCH   1  24
TORSDOF 4
