REMARK  Name = ZINC65541261
REMARK  6 active torsions:
REMARK  status: ('A' for Active; 'I' for Inactive)
REMARK    1  A    between atoms: C_1  and  O_2
REMARK    2  A    between atoms: O_2  and  C_3
REMARK    3  A    between atoms: C_9  and  O_25
REMARK    4  A    between atoms: C_10  and  C_13
REMARK    5  A    between atoms: C_13  and  N_14
REMARK    6  A    between atoms: C_17  and  C_19
REMARK                            x       y       z     vdW  Elec       q    Type
REMARK                         _______ _______ _______ _____ _____    ______ ____
ROOT
ATOM      1  C   UNL     1      -1.200  -0.637   0.010  0.00  0.00    +0.121 A 
ATOM      2  C   UNL     1      -2.378   0.117   0.020  0.00  0.00    +0.046 A 
ATOM      3  C   UNL     1      -3.596  -0.488   0.028  0.00  0.00    +0.012 A 
ATOM      4  C   UNL     1      -3.677  -1.891   0.027  0.00  0.00    -0.017 A 
ATOM      5  C   UNL     1      -4.921  -2.547   0.035  0.00  0.00    +0.012 A 
ATOM      6  C   UNL     1      -4.966  -3.906   0.033  0.00  0.00    +0.046 A 
ATOM      7  C   UNL     1      -3.792  -4.665   0.023  0.00  0.00    +0.119 A 
ATOM      8  C   UNL     1      -2.567  -4.061   0.016  0.00  0.00    -0.015 A 
ATOM      9  C   UNL     1      -2.485  -2.658   0.017  0.00  0.00    -0.010 A 
ATOM     10  C   UNL     1      -1.243  -2.002   0.003  0.00  0.00    +0.054 A 
ENDROOT
BRANCH   1  12
ATOM     11  C   UNL     1      -0.017   1.425   0.010  0.00  0.00    +0.277 C 
ATOM     12  O   UNL     1       0.002  -0.004   0.002  0.00  0.00    -0.495 OA
ENDBRANCH   1  12
BRANCH   7  13
ATOM     13  O   UNL     1      -3.870  -6.022   0.022  0.00  0.00    -0.507 OA
ATOM     14  H   UNL     1      -3.899  -6.414  -0.861  0.00  0.00    +0.292 HD
ENDBRANCH   7  13
BRANCH   8  15
ATOM     15  C   UNL     1      -1.311  -4.893   0.006  0.00  0.00    -0.038 C 
BRANCH  15  16
ATOM     16  N   UNL     1      -0.913  -5.162  -1.382  0.00  0.00    +0.387 N 
ATOM     17  C   UNL     1      -1.560  -6.356  -1.957  0.00  0.00    -0.079 C 
ATOM     18  C   UNL     1      -0.232  -6.669  -2.660  0.00  0.00    -0.029 C 
ATOM     19  C   UNL     1       0.374  -5.874  -1.495  0.00  0.00    -0.039 C 
ATOM     20  H   UNL     1      -0.974  -4.348  -1.974  0.00  0.00    -0.080 HD
BRANCH  19  21
ATOM     21  C   UNL     1       1.518  -4.984  -1.906  0.00  0.00    -0.061 A 
ATOM     22  C   UNL     1       1.323  -4.005  -2.863  0.00  0.00    +0.002 A 
ATOM     23  C   UNL     1       2.373  -3.188  -3.240  0.00  0.00    +0.000 A 
ATOM     24  C   UNL     1       3.618  -3.350  -2.660  0.00  0.00    +0.000 A 
ATOM     25  C   UNL     1       3.812  -4.329  -1.704  0.00  0.00    +0.000 A 
ATOM     26  C   UNL     1       2.762  -5.143  -1.323  0.00  0.00    +0.002 A 
ENDBRANCH  19  21
ENDBRANCH  15  16
ENDBRANCH   8  15
TORSDOF 5
