REMARK  Name = ZINC13501082
REMARK  14 active torsions:
REMARK  status: ('A' for Active; 'I' for Inactive)
REMARK    1  A    between atoms: C_1  and  C_2
REMARK    2  A    between atoms: C_2  and  C_3
REMARK    3  A    between atoms: C_3  and  C_5
REMARK    4  A    between atoms: C_3  and  N_74
REMARK    5  A    between atoms: N_9  and  C_10
REMARK    6  A    between atoms: C_10  and  C_11
REMARK    7  A    between atoms: C_10  and  C_12
REMARK    8  A    between atoms: C_10  and  C_13
REMARK    9  A    between atoms: C_13  and  C_14
REMARK   10  A    between atoms: C_15  and  C_16
REMARK   11  A    between atoms: C_15  and  N_74
REMARK   12  A    between atoms: C_20  and  C_29
REMARK   13  A    between atoms: C_22  and  C_28
REMARK   14  A    between atoms: C_30  and  N_74
REMARK                            x       y       z     vdW  Elec       q    Type
REMARK                         _______ _______ _______ _____ _____    ______ ____
ROOT
ATOM      1  N   UNL     1       1.531   1.260   2.645  0.00  0.00    +0.391 N 
ATOM      2  H   UNL     1       2.054   1.066   3.507  0.00  0.00    -0.080 HD
ENDROOT
BRANCH   1   3
ATOM      3  C   UNL     1       1.659   2.696   2.319  0.00  0.00    -0.067 C 
ATOM      4  C   UNL     1       1.292   3.517   3.556  0.00  0.00    -0.015 C 
ATOM      5  C   UNL     1       1.439   5.007   3.242  0.00  0.00    -0.002 C 
ATOM      6  C   UNL     1       0.507   5.380   2.087  0.00  0.00    -0.000 C 
ATOM      7  C   UNL     1       0.874   4.558   0.850  0.00  0.00    -0.002 C 
ATOM      8  C   UNL     1       0.726   3.068   1.164  0.00  0.00    -0.015 C 
ENDBRANCH   1   3
BRANCH   1   9
ATOM      9  C   UNL     1       0.110   0.914   2.857  0.00  0.00    +0.003 C 
BRANCH   9  10
ATOM     10  C   UNL     1      -0.604   0.785   1.537  0.00  0.00    +0.139 A 
ATOM     11  N   UNL     1      -0.121   0.270   0.433  0.00  0.00    -0.115 NA
ATOM     12  N   UNL     1      -1.035   0.341  -0.473  0.00  0.00    -0.023 NA
ATOM     13  N   UNL     1      -2.088   0.889   0.025  0.00  0.00    -0.043 NA
ATOM     14  N   UNL     1      -1.864   1.172   1.264  0.00  0.00    -0.225 N 
BRANCH  14  15
ATOM     15  C   UNL     1      -2.803   1.800   2.196  0.00  0.00    +0.061 C 
ATOM     16  C   UNL     1      -2.931   0.935   3.452  0.00  0.00    +0.036 C 
ATOM     17  C   UNL     1      -2.287   3.187   2.583  0.00  0.00    +0.036 C 
BRANCH  15  18
ATOM     18  C   UNL     1      -4.173   1.935   1.528  0.00  0.00    +0.026 C 
ATOM     19  C   UNL     1      -5.154   2.590   2.502  0.00  0.00    +0.006 C 
ENDBRANCH  15  18
ENDBRANCH  14  15
ENDBRANCH   9  10
BRANCH   9  21
ATOM     20  C   UNL     1       0.642  -0.249   5.004  0.00  0.00    +0.002 C 
ATOM     21  C   UNL     1       0.036  -0.416   3.609  0.00  0.00    -0.011 C 
ENDBRANCH   9  21
ENDBRANCH   1   9
BRANCH   1  22
ATOM     22  C   UNL     1       2.092   0.442   1.549  0.00  0.00    -0.036 C 
BRANCH  22  23
ATOM     23  C   UNL     1       3.596   0.498   1.625  0.00  0.00    +0.001 A 
ATOM     24  C   UNL     1       4.275  -0.455   2.310  0.00  0.00    +0.017 A 
ATOM     25  C   UNL     1       5.735  -0.372   2.364  0.00  0.00    -0.001 A 
ATOM     26  C   UNL     1       6.489  -1.326   3.055  0.00  0.00    +0.013 A 
ATOM     27  C   UNL     1       7.851  -1.220   3.087  0.00  0.00    -0.050 A 
ATOM     28  C   UNL     1       8.493  -0.173   2.439  0.00  0.00    +0.008 A 
ATOM     29  C   UNL     1       7.770   0.778   1.752  0.00  0.00    -0.026 A 
ATOM     30  C   UNL     1       6.383   0.691   1.706  0.00  0.00    +0.052 A 
ATOM     31  N   UNL     1       5.635   1.628   1.026  0.00  0.00    -0.322 N 
ATOM     32  H   UNL     1       6.083   2.360   0.573  0.00  0.00    +0.169 HD
ATOM     33  C   UNL     1       4.294   1.540   0.977  0.00  0.00    +0.251 A 
ATOM     34  O   UNL     1       3.665   2.384   0.362  0.00  0.00    -0.268 OA
ATOM     35  C   UNL     1       8.480   1.909   1.053  0.00  0.00    +0.046 C 
ATOM     36  C   UNL     1       8.663  -2.248   3.832  0.00  0.00    +0.044 C 
ENDBRANCH  22  23
ENDBRANCH   1  22
TORSDOF 8
