REMARK  Name = ZINC35190984
REMARK  15 active torsions:
REMARK  status: ('A' for Active; 'I' for Inactive)
REMARK    1  A    between atoms: C_1  and  C_2
REMARK    2  A    between atoms: C_2  and  C_3
REMARK    3  A    between atoms: C_2  and  C_4
REMARK    4  A    between atoms: C_2  and  C_5
REMARK    5  A    between atoms: C_5  and  C_6
REMARK    6  A    between atoms: C_6  and  C_7
REMARK    7  A    between atoms: C_6  and  C_8
REMARK    8  A    between atoms: C_6  and  N_9
REMARK    9  A    between atoms: N_9  and  C_10
REMARK   10  A    between atoms: C_11  and  C_19
REMARK   11  A    between atoms: C_22  and  O_25
REMARK   12  A    between atoms: O_25  and  C_26
REMARK   13  A    between atoms: C_26  and  C_28
REMARK   14  A    between atoms: C_28  and  O_29
REMARK   15  A    between atoms: O_29  and  C_30
REMARK                            x       y       z     vdW  Elec       q    Type
REMARK                         _______ _______ _______ _____ _____    ______ ____
ROOT
ATOM      1  C   UNL     1       4.948   0.356  -3.399  0.00  0.00    +0.129 A 
ATOM      2  C   UNL     1       5.846   0.362  -4.446  0.00  0.00    +0.087 A 
ATOM      3  N   UNL     1       6.986   0.932  -4.015  0.00  0.00    -0.338 N 
ATOM      4  C   UNL     1       6.845   1.285  -2.748  0.00  0.00    +0.117 A 
ATOM      5  N   UNL     1       5.578   0.943  -2.335  0.00  0.00    -0.289 N 
ATOM      6  C   UNL     1       5.171   1.206  -1.055  0.00  0.00    +0.094 A 
ATOM      7  C   UNL     1       6.004   1.807  -0.181  0.00  0.00    +0.018 A 
ATOM      8  C   UNL     1       7.303   2.173  -0.574  0.00  0.00    +0.005 A 
ATOM      9  C   UNL     1       7.726   1.910  -1.839  0.00  0.00    +0.045 A 
ATOM     10  H   UNL     1       7.784   1.065  -4.549  0.00  0.00    +0.167 HD
ENDROOT
BRANCH   2  11
ATOM     11  C   UNL     1       5.598  -0.169  -5.807  0.00  0.00    +0.002 A 
ATOM     12  C   UNL     1       4.977  -1.407  -5.973  0.00  0.00    +0.013 A 
ATOM     13  C   UNL     1       4.748  -1.897  -7.241  0.00  0.00    +0.047 A 
ATOM     14  C   UNL     1       5.135  -1.161  -8.352  0.00  0.00    +0.132 A 
ATOM     15  C   UNL     1       5.754   0.071  -8.191  0.00  0.00    +0.047 A 
ATOM     16  C   UNL     1       5.981   0.571  -6.926  0.00  0.00    +0.013 A 
BRANCH  14  17
ATOM     17  O   UNL     1       4.909  -1.648  -9.601  0.00  0.00    -0.423 OA
BRANCH  17  18
ATOM     18  C   UNL     1       3.654  -1.604 -10.076  0.00  0.00    +0.350 C 
ATOM     19  O   UNL     1       2.785  -1.059  -9.438  0.00  0.00    -0.247 OA
BRANCH  18  20
ATOM     20  C   UNL     1       3.329  -2.236 -11.405  0.00  0.00    +0.349 C 
BRANCH  20  21
ATOM     21  O   UNL     1       1.940  -2.059 -11.691  0.00  0.00    -0.481 OA
BRANCH  21  22
ATOM     22  C   UNL     1       1.480  -2.574 -12.861  0.00  0.00    +0.121 A 
ATOM     23  C   UNL     1       2.347  -3.241 -13.715  0.00  0.00    +0.047 A 
ATOM     24  C   UNL     1       1.877  -3.764 -14.904  0.00  0.00    +0.023 A 
ATOM     25  C   UNL     1       0.543  -3.622 -15.244  0.00  0.00    +0.041 A 
ATOM     26  C   UNL     1      -0.322  -2.957 -14.394  0.00  0.00    +0.023 A 
ATOM     27  C   UNL     1       0.142  -2.438 -13.201  0.00  0.00    +0.047 A 
ATOM     28 CL   UNL     1      -0.044  -4.279 -16.740  0.00  0.00    -0.084 Cl
ENDBRANCH  21  22
ENDBRANCH  20  21
ENDBRANCH  18  20
ENDBRANCH  17  18
ENDBRANCH  14  17
ENDBRANCH   2  11
BRANCH   1  29
ATOM     29  N   UNL     1       3.646  -0.145  -3.421  0.00  0.00    -0.323 N 
ATOM     30  H   UNL     1       3.296  -0.548  -4.231  0.00  0.00    +0.148 HD
BRANCH  29  31
ATOM     31  C   UNL     1       2.809  -0.063  -2.222  0.00  0.00    +0.028 C 
ATOM     32  C   UNL     1       2.662   1.400  -1.801  0.00  0.00    +0.031 C 
ATOM     33  C   UNL     1       3.461  -0.857  -1.089  0.00  0.00    +0.031 C 
BRANCH  31  34
ATOM     34  C   UNL     1       1.427  -0.647  -2.524  0.00  0.00    +0.031 C 
BRANCH  34  36
ATOM     35  C   UNL     1       1.555  -1.185  -4.961  0.00  0.00    +0.010 C 
ATOM     36  C   UNL     1       0.985  -0.215  -3.924  0.00  0.00    -0.036 C 
ATOM     37  C   UNL     1       1.502   1.197  -4.208  0.00  0.00    +0.010 C 
ATOM     38  C   UNL     1      -0.543  -0.224  -4.002  0.00  0.00    +0.010 C 
ENDBRANCH  34  36
ENDBRANCH  31  34
ENDBRANCH  29  31
ENDBRANCH   1  29
TORSDOF 10
