REMARK  Name = ZINC13729522
REMARK  8 active torsions:
REMARK  status: ('A' for Active; 'I' for Inactive)
REMARK    1  A    between atoms: C_1  and  C_2
REMARK    2  A    between atoms: C_2  and  C_4
REMARK    3  A    between atoms: C_2  and  N_62
REMARK    4  A    between atoms: C_14  and  C_15
REMARK    5  A    between atoms: C_14  and  N_62
REMARK    6  A    between atoms: C_19  and  O_21
REMARK    7  A    between atoms: O_21  and  C_22
REMARK    8  A    between atoms: N_26  and  C_27
REMARK                            x       y       z     vdW  Elec       q    Type
REMARK                         _______ _______ _______ _____ _____    ______ ____
ROOT
ATOM      1  C   UNL     1       2.376   0.023   0.225  0.00  0.00    -0.061 A 
ATOM      2  C   UNL     1       1.207  -0.680  -0.005  0.00  0.00    +0.002 A 
ATOM      3  C   UNL     1       0.023  -0.003  -0.229  0.00  0.00    +0.004 A 
ATOM      4  C   UNL     1       0.005   1.379  -0.225  0.00  0.00    +0.046 A 
ATOM      5  C   UNL     1       1.176   2.086   0.005  0.00  0.00    +0.132 A 
ATOM      6  C   UNL     1       2.363   1.404   0.230  0.00  0.00    +0.048 A 
ENDROOT
BRANCH   1   7
ATOM      7  C   UNL     1       3.665  -0.719   0.470  0.00  0.00    -0.046 C 
BRANCH   7   8
ATOM      8  N   UNL     1       4.343  -0.949  -0.820  0.00  0.00    +0.384 N 
ATOM      9  H   UNL     1       3.731  -1.505  -1.429  0.00  0.00    -0.085 HD
ATOM     10  H   UNL     1       4.540  -0.045  -1.265  0.00  0.00    -0.085 HD
BRANCH   8  12
ATOM     11  C   UNL     1       6.720  -0.677  -0.276  0.00  0.00    -0.013 C 
ATOM     12  C   UNL     1       5.610  -1.675  -0.610  0.00  0.00    -0.068 C 
BRANCH  12  13
ATOM     13  C   UNL     1       5.972  -2.433  -1.889  0.00  0.00    -0.041 C 
ATOM     14  C   UNL     1       6.130  -1.440  -3.042  0.00  0.00    +0.009 C 
ATOM     15  C   UNL     1       6.493  -2.197  -4.321  0.00  0.00    -0.010 C 
ATOM     16  C   UNL     1       7.808  -2.950  -4.112  0.00  0.00    +0.007 C 
ATOM     17  C   UNL     1       7.651  -3.942  -2.959  0.00  0.00    -0.010 C 
ATOM     18  C   UNL     1       7.288  -3.185  -1.680  0.00  0.00    +0.009 C 
ATOM     19  C   UNL     1       6.540  -4.940  -3.293  0.00  0.00    +0.007 C 
ATOM     20  C   UNL     1       5.224  -4.188  -3.502  0.00  0.00    -0.010 C 
ATOM     21  C   UNL     1       5.382  -3.195  -4.655  0.00  0.00    +0.007 C 
ATOM     22  C   UNL     1       4.862  -3.430  -2.223  0.00  0.00    +0.009 C 
ENDBRANCH  12  13
ENDBRANCH   8  12
ENDBRANCH   7   8
ENDBRANCH   1   7
BRANCH   5  23
ATOM     23  O   UNL     1       1.160   3.445   0.009  0.00  0.00    -0.423 OA
BRANCH  23  24
ATOM     24  C   UNL     1      -0.039   4.067  -0.081  0.00  0.00    +0.347 A 
ATOM     25  N   UNL     1      -1.219   3.490  -0.090  0.00  0.00    -0.070 NA
ATOM     26  N   UNL     1      -2.150   4.370  -0.183  0.00  0.00    -0.019 NA
ATOM     27  N   UNL     1      -1.644   5.553  -0.248  0.00  0.00    -0.036 NA
ATOM     28  N   UNL     1      -0.248   5.402  -0.184  0.00  0.00    -0.162 N 
BRANCH  28  29
ATOM     29  C   UNL     1       0.722   6.415  -0.220  0.00  0.00    +0.072 A 
ATOM     30  C   UNL     1       1.883   6.293   0.530  0.00  0.00    +0.028 A 
ATOM     31  C   UNL     1       2.838   7.290   0.489  0.00  0.00    +0.002 A 
ATOM     32  C   UNL     1       2.633   8.414  -0.288  0.00  0.00    +0.000 A 
ATOM     33  C   UNL     1       1.474   8.542  -1.032  0.00  0.00    +0.002 A 
ATOM     34  C   UNL     1       0.518   7.545  -1.000  0.00  0.00    +0.028 A 
ENDBRANCH  28  29
ENDBRANCH  23  24
ENDBRANCH   5  23
TORSDOF 7
