REMARK  Name = ZINC49008693
REMARK  7 active torsions:
REMARK  status: ('A' for Active; 'I' for Inactive)
REMARK    1  A    between atoms: C_1  and  C_2
REMARK    2  A    between atoms: C_7  and  N_10
REMARK    3  A    between atoms: N_10  and  C_11
REMARK    4  A    between atoms: N_10  and  C_12
REMARK    5  A    between atoms: C_12  and  C_13
REMARK    6  A    between atoms: C_13  and  C_14
REMARK    7  A    between atoms: C_19  and  N_23
REMARK                            x       y       z     vdW  Elec       q    Type
REMARK                         _______ _______ _______ _____ _____    ______ ____
ROOT
ATOM      1  C   UNL     1       0.009  -0.152   7.375  0.00  0.00    +0.106 A 
ATOM      2  N   UNL     1      -0.184   1.097   7.682  0.00  0.00    -0.233 NA
ATOM      3  C   UNL     1      -0.851   1.180   8.863  0.00  0.00    +0.089 A 
ATOM      4  C   UNL     1      -1.304   2.251   9.638  0.00  0.00    +0.031 A 
ATOM      5  C   UNL     1      -1.961   2.015  10.811  0.00  0.00    +0.025 A 
ATOM      6  C   UNL     1      -2.185   0.710  11.248  0.00  0.00    +0.027 A 
ATOM      7  C   UNL     1      -1.744  -0.364  10.495  0.00  0.00    +0.050 A 
ATOM      8  C   UNL     1      -1.075  -0.136   9.300  0.00  0.00    +0.068 A 
ATOM      9  N   UNL     1      -0.525  -0.957   8.335  0.00  0.00    -0.342 N 
ATOM     10  H   UNL     1      -0.518  -1.927   8.342  0.00  0.00    +0.167 HD
ENDROOT
BRANCH   6  11
ATOM     11  N   UNL     1      -2.859   0.485  12.453  0.00  0.00    -0.358 N 
ATOM     12  H   UNL     1      -3.169   1.237  12.982  0.00  0.00    +0.142 HD
ATOM     13  H   UNL     1      -3.016  -0.421  12.759  0.00  0.00    +0.142 HD
ENDBRANCH   6  11
BRANCH   1  14
ATOM     14  C   UNL     1       0.714  -0.638   6.136  0.00  0.00    +0.056 C 
BRANCH  14  15
ATOM     15  C   UNL     1       0.049  -0.030   4.899  0.00  0.00    -0.071 C 
BRANCH  15  16
ATOM     16  N   UNL     1       0.736  -0.504   3.691  0.00  0.00    +0.380 N 
ATOM     17  C   UNL     1       2.115   0.004   3.680  0.00  0.00    -0.096 C 
ATOM     18  H   UNL     1       0.750  -1.513   3.685  0.00  0.00    -0.082 HD
BRANCH  16  24
ATOM     19  C   UNL     1      -0.019   1.526   0.010  0.00  0.00    +0.007 C 
ATOM     20  C   UNL     1       0.002  -0.004   0.002  0.00  0.00    -0.016 C 
ATOM     21  C   UNL     1      -1.433  -0.534   0.013  0.00  0.00    +0.003 C 
ATOM     22  C   UNL     1      -2.149  -0.040   1.272  0.00  0.00    -0.001 C 
ATOM     23  C   UNL     1      -1.409  -0.547   2.511  0.00  0.00    -0.015 C 
ATOM     24  C   UNL     1       0.026  -0.018   2.500  0.00  0.00    -0.069 C 
ATOM     25  C   UNL     1       0.742  -0.511   1.242  0.00  0.00    -0.012 C 
ENDBRANCH  16  24
ENDBRANCH  15  16
ENDBRANCH  14  15
ENDBRANCH   1  14
TORSDOF 5
