REMARK  Name = ZINC43042332
REMARK  8 active torsions:
REMARK  status: ('A' for Active; 'I' for Inactive)
REMARK    1  A    between atoms: C_1  and  C_2
REMARK    2  A    between atoms: C_7  and  N_12
REMARK    3  A    between atoms: C_9  and  C_11
REMARK    4  A    between atoms: N_15  and  N_16
REMARK    5  A    between atoms: C_17  and  C_19
REMARK    6  A    between atoms: C_19  and  C_21
REMARK    7  A    between atoms: C_19  and  O_22
REMARK    8  A    between atoms: O_22  and  C_23
REMARK                            x       y       z     vdW  Elec       q    Type
REMARK                         _______ _______ _______ _____ _____    ______ ____
ROOT
ATOM      1  N   UNL     1       1.193  -2.443   2.655  0.00  0.00    -0.295 N 
ATOM      2  C   UNL     1       0.821  -3.582   3.272  0.00  0.00    +0.316 C 
ATOM      3  O   UNL     1      -0.137  -4.210   2.863  0.00  0.00    -0.251 OA
ATOM      4  N   UNL     1       1.510  -4.025   4.342  0.00  0.00    -0.218 N 
ATOM      5  H   UNL     1       1.957  -1.942   2.981  0.00  0.00    +0.151 HD
ATOM      6  H   UNL     1       1.242  -4.845   4.786  0.00  0.00    +0.174 HD
ENDROOT
BRANCH   1  12
ATOM      7  C   UNL     1       0.012   1.571   0.021  0.00  0.00    +0.008 C 
ATOM      8  C   UNL     1      -0.163   0.056   0.149  0.00  0.00    -0.009 C 
ATOM      9  C   UNL     1       0.362  -0.627  -1.115  0.00  0.00    +0.003 C 
ATOM     10  C   UNL     1       0.187  -2.141  -0.987  0.00  0.00    +0.002 C 
ATOM     11  C   UNL     1       0.969  -2.644   0.228  0.00  0.00    +0.022 C 
ATOM     12  C   UNL     1       0.444  -1.961   1.492  0.00  0.00    +0.078 C 
ATOM     13  C   UNL     1       0.619  -0.447   1.364  0.00  0.00    +0.009 C 
ATOM     14  C   UNL     1       0.094   0.236   2.628  0.00  0.00    +0.009 C 
ENDBRANCH   1  12
BRANCH   4  15
ATOM     15  N   UNL     1       2.614  -3.302   4.813  0.00  0.00    -0.230 N 
ATOM     16  C   UNL     1       3.303  -3.745   5.883  0.00  0.00    +0.270 C 
ATOM     17  O   UNL     1       2.968  -4.770   6.438  0.00  0.00    -0.270 OA
ATOM     18  H   UNL     1       2.881  -2.482   4.369  0.00  0.00    +0.173 HD
BRANCH  16  19
ATOM     19  C   UNL     1       4.490  -2.967   6.389  0.00  0.00    +0.257 C 
ATOM     20  C   UNL     1       4.023  -1.606   6.910  0.00  0.00    +0.062 C 
BRANCH  19  21
ATOM     21  O   UNL     1       5.118  -3.692   7.449  0.00  0.00    -0.477 OA
BRANCH  21  22
ATOM     22  C   UNL     1       6.436  -3.441   7.671  0.00  0.00    +0.157 A 
ATOM     23  C   UNL     1       7.081  -2.438   6.965  0.00  0.00    +0.048 A 
ATOM     24  C   UNL     1       8.421  -2.185   7.193  0.00  0.00    +0.004 A 
ATOM     25  C   UNL     1       9.118  -2.931   8.125  0.00  0.00    +0.003 A 
ATOM     26  C   UNL     1       8.478  -3.932   8.832  0.00  0.00    +0.042 A 
ATOM     27  C   UNL     1       7.136  -4.186   8.612  0.00  0.00    +0.165 A 
ATOM     28  F   UNL     1       6.509  -5.160   9.307  0.00  0.00    -0.202 F 
ENDBRANCH  21  22
ENDBRANCH  19  21
ENDBRANCH  16  19
ENDBRANCH   4  15
TORSDOF 5
