REMARK  Name = ZINC04389382
REMARK  3 active torsions:
REMARK  status: ('A' for Active; 'I' for Inactive)
REMARK    1  A    between atoms: N_14  and  S_17
REMARK    2  A    between atoms: S_17  and  C_20
REMARK    3  A    between atoms: C_20  and  C_21
REMARK                            x       y       z     vdW  Elec       q    Type
REMARK                         _______ _______ _______ _____ _____    ______ ____
ROOT
ATOM      1  C   UNL     1      -1.610  -6.600  -2.967  0.00  0.00    +0.001 A 
ATOM      2  C   UNL     1      -0.754  -6.075  -3.922  0.00  0.00    +0.004 A 
ATOM      3  C   UNL     1       0.117  -5.051  -3.600  0.00  0.00    +0.046 A 
ATOM      4  C   UNL     1       0.135  -4.544  -2.313  0.00  0.00    +0.135 A 
ATOM      5  C   UNL     1      -0.732  -5.075  -1.345  0.00  0.00    +0.078 A 
ATOM      6  C   UNL     1      -1.605  -6.105  -1.679  0.00  0.00    +0.017 A 
ATOM      7  C   UNL     1      -0.683  -4.506   0.018  0.00  0.00    +0.250 C 
ATOM      8  O   UNL     1      -1.195  -5.082   0.959  0.00  0.00    -0.270 OA
ATOM      9  N   UNL     1      -0.049  -3.322   0.183  0.00  0.00    -0.274 N 
ATOM     10  C   UNL     1       0.497  -2.613  -0.977  0.00  0.00    +0.181 C 
ATOM     11  O   UNL     1       0.972  -3.540  -1.955  0.00  0.00    -0.468 OA
ATOM     12  C   UNL     1      -0.600  -1.744  -1.599  0.00  0.00    +0.086 C 
ATOM     13  C   UNL     1      -1.129  -0.765  -0.546  0.00  0.00    +0.114 C 
ATOM     14  N   UNL     1       0.002  -0.004   0.002  0.00  0.00    -0.180 NA
ATOM     15  C   UNL     1       1.156  -0.740   0.536  0.00  0.00    +0.114 C 
ATOM     16  C   UNL     1       1.655  -1.720  -0.524  0.00  0.00    +0.086 C 
ATOM     17  H   UNL     1       0.044  -2.942   1.071  0.00  0.00    +0.153 HD
ENDROOT
BRANCH  14  18
ATOM     18  S   UNL     1      -0.020   1.652   0.011  0.00  0.00    +0.036 S 
ATOM     19  O   UNL     1       1.349   2.033   0.000  0.00  0.00    -0.158 OA
ATOM     20  O   UNL     1      -0.880   2.009  -1.062  0.00  0.00    -0.158 OA
BRANCH  18  21
ATOM     21  C   UNL     1      -0.781   2.099   1.596  0.00  0.00    +0.220 C 
BRANCH  21  22
ATOM     22  C   UNL     1      -0.853   3.600   1.713  0.00  0.00    -0.025 A 
ATOM     23  C   UNL     1       0.192   4.299   2.287  0.00  0.00    +0.007 A 
ATOM     24  C   UNL     1       0.129   5.676   2.389  0.00  0.00    +0.020 A 
ATOM     25  C   UNL     1      -0.985   6.353   1.927  0.00  0.00    +0.041 A 
ATOM     26  C   UNL     1      -2.034   5.652   1.358  0.00  0.00    +0.020 A 
ATOM     27  C   UNL     1      -1.967   4.276   1.252  0.00  0.00    +0.007 A 
ATOM     28 CL   UNL     1      -1.068   8.082   2.062  0.00  0.00    -0.084 Cl
ENDBRANCH  21  22
ENDBRANCH  18  21
ENDBRANCH  14  18
TORSDOF 3
