REMARK  Name = ZINC44679056
REMARK  6 active torsions:
REMARK  status: ('A' for Active; 'I' for Inactive)
REMARK    1  A    between atoms: C_3  and  S_10
REMARK    2  A    between atoms: C_6  and  C_7
REMARK    3  A    between atoms: C_7  and  N_9
REMARK    4  A    between atoms: S_10  and  N_13
REMARK    5  A    between atoms: N_13  and  C_14
REMARK    6  A    between atoms: N_18  and  C_20
REMARK                            x       y       z     vdW  Elec       q    Type
REMARK                         _______ _______ _______ _____ _____    ______ ____
ROOT
ATOM      1  S   UNL     1       3.889   2.325  -0.023  0.00  0.00    +0.059 S 
ATOM      2  O   UNL     1       4.872   1.469  -0.587  0.00  0.00    -0.153 OA
ATOM      3  O   UNL     1       3.592   3.605  -0.564  0.00  0.00    -0.153 OA
ENDROOT
BRANCH   1   6
ATOM      4  C   UNL     1      -0.017   1.392   0.010  0.00  0.00    +0.012 A 
ATOM      5  C   UNL     1       1.170   2.095   0.002  0.00  0.00    +0.029 A 
ATOM      6  C   UNL     1       2.378   1.419  -0.013  0.00  0.00    +0.105 A 
ATOM      7  C   UNL     1       2.404   0.036  -0.021  0.00  0.00    +0.029 A 
ATOM      8  C   UNL     1       1.224  -0.679  -0.014  0.00  0.00    +0.012 A 
ATOM      9  C   UNL     1       0.002  -0.004   0.002  0.00  0.00    +0.003 A 
BRANCH   9  10
ATOM     10  C   UNL     1      -1.264  -0.763   0.011  0.00  0.00    +0.077 C 
ATOM     11  S   UNL     1      -2.631  -0.157  -0.823  0.00  0.00    -0.035 S 
BRANCH  10  12
ATOM     12  N   UNL     1      -1.344  -1.933   0.675  0.00  0.00    -0.352 N 
ATOM     13  H   UNL     1      -0.570  -2.276   1.147  0.00  0.00    +0.143 HD
ATOM     14  H   UNL     1      -2.176  -2.432   0.680  0.00  0.00    +0.143 HD
ENDBRANCH  10  12
ENDBRANCH   9  10
ENDBRANCH   1   6
BRANCH   1  15
ATOM     15  N   UNL     1       4.324   2.568   1.557  0.00  0.00    -0.189 NA
ATOM     16  H   UNL     1       4.350   3.467   1.920  0.00  0.00    +0.148 HD
BRANCH  15  17
ATOM     17  C   UNL     1       4.670   1.425   2.405  0.00  0.00    +0.058 C 
ATOM     18  C   UNL     1       3.454   1.008   3.264  0.00  0.00    -0.000 C 
ATOM     19  C   UNL     1       4.099   0.653   4.628  0.00  0.00    -0.077 C 
ATOM     20  N   UNL     1       5.177   1.665   4.768  0.00  0.00    +0.383 N 
ATOM     21  C   UNL     1       5.762   1.821   3.416  0.00  0.00    -0.058 C 
ATOM     22  H   UNL     1       4.792   2.543   5.084  0.00  0.00    -0.081 HD
BRANCH  20  23
ATOM     23  C   UNL     1       6.199   1.190   5.709  0.00  0.00    -0.069 C 
ATOM     24  C   UNL     1       6.340   1.938   7.036  0.00  0.00    -0.017 C 
ATOM     25  C   UNL     1       7.410   2.093   5.953  0.00  0.00    -0.017 C 
ENDBRANCH  20  23
ENDBRANCH  15  17
ENDBRANCH   1  15
TORSDOF 6
