REMARK  Name = ZINC15741506
REMARK  6 active torsions:
REMARK  status: ('A' for Active; 'I' for Inactive)
REMARK    1  A    between atoms: C_1  and  C_2
REMARK    2  A    between atoms: C_2  and  C_4
REMARK    3  A    between atoms: C_2  and  N_14
REMARK    4  A    between atoms: C_15  and  C_17
REMARK    5  A    between atoms: N_20  and  C_23
REMARK    6  A    between atoms: C_28  and  N_29
REMARK                            x       y       z     vdW  Elec       q    Type
REMARK                         _______ _______ _______ _____ _____    ______ ____
ROOT
ATOM      1  N   UNL     1      -4.821   3.996  -0.405  0.00  0.00    -0.309 N 
ATOM      2  C   UNL     1      -5.978   3.481  -0.864  0.00  0.00    +0.217 C 
ATOM      3  O   UNL     1      -6.136   2.279  -0.898  0.00  0.00    -0.275 OA
ATOM      4  H   UNL     1      -4.695   4.957  -0.377  0.00  0.00    +0.149 HD
ENDROOT
BRANCH   2   5
ATOM      5  C   UNL     1      -7.077   4.398  -1.335  0.00  0.00    +0.078 C 
ATOM      6  C   UNL     1      -7.516   5.306  -0.183  0.00  0.00    +0.031 C 
ATOM      7  C   UNL     1      -8.672   6.193  -0.650  0.00  0.00    +0.106 C 
ATOM      8  N   UNL     1      -9.792   5.349  -1.086  0.00  0.00    -0.328 N 
ATOM      9  C   UNL     1      -9.408   4.503  -2.223  0.00  0.00    +0.106 C 
ATOM     10  C   UNL     1      -8.274   3.566  -1.803  0.00  0.00    +0.031 C 
BRANCH   8  11
ATOM     11  C   UNL     1     -10.912   6.125  -1.395  0.00  0.00    +0.060 A 
ATOM     12  C   UNL     1     -10.863   7.029  -2.448  0.00  0.00    +0.025 A 
ATOM     13  C   UNL     1     -11.974   7.790  -2.755  0.00  0.00    +0.002 A 
ATOM     14  C   UNL     1     -13.130   7.661  -2.007  0.00  0.00    +0.002 A 
ATOM     15  C   UNL     1     -13.180   6.766  -0.954  0.00  0.00    +0.034 A 
ATOM     16  C   UNL     1     -12.075   5.997  -0.646  0.00  0.00    +0.147 A 
BRANCH  16  17
ATOM     17  N   UNL     1     -12.129   5.040   0.481  0.00  0.00    +0.058 N 
ATOM     18  O   UNL     1     -13.149   4.929   1.137  0.00  0.00    -0.126 OA
ATOM     19  O   UNL     1     -11.153   4.363   0.752  0.00  0.00    -0.126 OA
ENDBRANCH  16  17
ENDBRANCH   8  11
ENDBRANCH   2   5
BRANCH   1  21
ATOM     20  C   UNL     1      -3.971   2.763   1.529  0.00  0.00    +0.033 C 
ATOM     21  C   UNL     1      -3.753   3.104   0.054  0.00  0.00    +0.101 C 
BRANCH  21  22
ATOM     22  C   UNL     1      -2.421   3.788  -0.112  0.00  0.00    -0.020 A 
ATOM     23  C   UNL     1      -2.343   5.147  -0.093  0.00  0.00    +0.006 A 
ATOM     24  C   UNL     1      -1.120   5.798  -0.245  0.00  0.00    +0.001 A 
ATOM     25  C   UNL     1       0.032   5.094  -0.417  0.00  0.00    +0.008 A 
ATOM     26  C   UNL     1      -0.009   3.689  -0.441  0.00  0.00    -0.018 A 
ATOM     27  C   UNL     1      -1.253   3.027  -0.287  0.00  0.00    -0.013 A 
ATOM     28  C   UNL     1      -1.294   1.623  -0.317  0.00  0.00    +0.009 A 
ATOM     29  C   UNL     1      -0.141   0.919  -0.483  0.00  0.00    +0.001 A 
ATOM     30  C   UNL     1       1.082   1.570  -0.635  0.00  0.00    +0.001 A 
ATOM     31  C   UNL     1       1.160   2.928  -0.617  0.00  0.00    +0.008 A 
ENDBRANCH  21  22
ENDBRANCH   1  21
TORSDOF 5
