REMARK  Name = ZINC63896778
REMARK  11 active torsions:
REMARK  status: ('A' for Active; 'I' for Inactive)
REMARK    1  A    between atoms: C_1  and  C_2
REMARK    2  A    between atoms: C_4  and  N_15
REMARK    3  A    between atoms: C_5  and  C_14
REMARK    4  A    between atoms: N_7  and  C_8
REMARK    5  A    between atoms: C_16  and  C_18
REMARK    6  A    between atoms: C_18  and  O_19
REMARK    7  A    between atoms: O_19  and  C_20
REMARK    8  A    between atoms: C_20  and  C_22
REMARK    9  A    between atoms: C_22  and  C_23
REMARK   10  A    between atoms: C_23  and  C_24
REMARK   11  A    between atoms: C_24  and  C_25
REMARK                            x       y       z     vdW  Elec       q    Type
REMARK                         _______ _______ _______ _____ _____    ______ ____
ROOT
ATOM      1  N   UNL     1       0.442  -0.284  -2.556  0.00  0.00    -0.283 N 
ATOM      2  C   UNL     1       1.272  -0.701  -3.532  0.00  0.00    +0.255 C 
ATOM      3  O   UNL     1       2.257  -1.354  -3.254  0.00  0.00    -0.272 OA
ATOM      4  H   UNL     1      -0.381   0.175  -2.783  0.00  0.00    +0.155 HD
ENDROOT
BRANCH   1   7
ATOM      5  C   UNL     1      -0.174  -2.766  -0.689  0.00  0.00    +0.036 C 
ATOM      6  C   UNL     1       1.051  -1.856  -0.579  0.00  0.00    +0.137 C 
ATOM      7  C   UNL     1       0.769  -0.513  -1.213  0.00  0.00    +0.050 C 
ATOM      8  C   UNL     1       0.887   0.405  -0.270  0.00  0.00    +0.038 C 
ATOM      9  N   UNL     1       1.222  -0.159   0.956  0.00  0.00    -0.266 N 
ATOM     10  N   UNL     1       1.340  -1.553   0.833  0.00  0.00    -0.245 N 
ATOM     11  C   UNL     1       0.684   1.881  -0.495  0.00  0.00    +0.063 C 
ATOM     12  H   UNL     1       1.356   0.339   1.777  0.00  0.00    +0.170 HD
BRANCH  10  13
ATOM     13  C   UNL     1       1.663  -2.465   1.841  0.00  0.00    +0.048 A 
ATOM     14  C   UNL     1       1.744  -3.821   1.552  0.00  0.00    +0.025 A 
ATOM     15  C   UNL     1       2.064  -4.720   2.551  0.00  0.00    +0.002 A 
ATOM     16  C   UNL     1       2.303  -4.271   3.837  0.00  0.00    +0.000 A 
ATOM     17  C   UNL     1       2.223  -2.921   4.127  0.00  0.00    +0.002 A 
ATOM     18  C   UNL     1       1.909  -2.016   3.132  0.00  0.00    +0.025 A 
ENDBRANCH  10  13
ENDBRANCH   1   7
BRANCH   2  19
ATOM     19  C   UNL     1       0.978  -0.357  -4.969  0.00  0.00    +0.328 C 
BRANCH  19  20
ATOM     20  O   UNL     1       1.996  -0.907  -5.809  0.00  0.00    -0.455 OA
BRANCH  20  21
ATOM     21  C   UNL     1       1.881  -0.690  -7.128  0.00  0.00    +0.308 C 
ATOM     22  O   UNL     1       0.948  -0.053  -7.556  0.00  0.00    -0.251 OA
BRANCH  21  23
ATOM     23  C   UNL     1       2.916  -1.240  -8.076  0.00  0.00    +0.121 C 
BRANCH  23  24
ATOM     24  C   UNL     1       2.551  -0.852  -9.510  0.00  0.00    +0.015 C 
BRANCH  24  25
ATOM     25  C   UNL     1       3.602  -1.410 -10.472  0.00  0.00    +0.034 C 
BRANCH  25  26
ATOM     26  C   UNL     1       3.244  -1.028 -11.885  0.00  0.00    -0.042 C 
ATOM     27  C   UNL     1       3.704   0.037 -12.581  0.00  0.00    -0.001 A 
ATOM     28  C   UNL     1       4.639   1.117 -12.243  0.00  0.00    +0.010 A 
ATOM     29  C   UNL     1       4.909   2.064 -13.170  0.00  0.00    +0.001 A 
ATOM     30  C   UNL     1       4.319   2.041 -14.442  0.00  0.00    +0.002 A 
ATOM     31  C   UNL     1       3.451   1.081 -14.825  0.00  0.00    +0.026 A 
ATOM     32  C   UNL     1       3.095   0.035 -13.930  0.00  0.00    +0.043 A 
ATOM     33  N   UNL     1       2.290  -0.991 -14.063  0.00  0.00    -0.380 N 
ATOM     34  C   UNL     1       2.301  -1.760 -12.814  0.00  0.00    +0.144 C 
ATOM     35  H   UNL     1       1.775  -1.208 -14.856  0.00  0.00    +0.160 HD
ENDBRANCH  25  26
ENDBRANCH  24  25
ENDBRANCH  23  24
ENDBRANCH  21  23
ENDBRANCH  20  21
ENDBRANCH  19  20
ENDBRANCH   2  19
TORSDOF 9
