REMARK  Name = ZINC49765532
REMARK  8 active torsions:
REMARK  status: ('A' for Active; 'I' for Inactive)
REMARK    1  A    between atoms: C_1  and  C_2
REMARK    2  A    between atoms: C_2  and  C_3
REMARK    3  A    between atoms: C_2  and  N_4
REMARK    4  A    between atoms: C_9  and  C_18
REMARK    5  A    between atoms: C_11  and  C_13
REMARK    6  A    between atoms: C_18  and  N_20
REMARK    7  A    between atoms: N_27  and  C_30
REMARK    8  A    between atoms: C_30  and  C_31
REMARK                            x       y       z     vdW  Elec       q    Type
REMARK                         _______ _______ _______ _____ _____    ______ ____
ROOT
ATOM      1  C   UNL     1      -5.507  -2.631  -0.926  0.00  0.00    +0.270 C 
ATOM      2  O   UNL     1      -5.948  -2.162   0.110  0.00  0.00    -0.268 OA
ENDROOT
BRANCH   1   3
ATOM      3  N   UNL     1      -6.284  -3.393  -1.698  0.00  0.00    -0.152 NA
ATOM      4  C   UNL     1      -7.542  -3.643  -1.336  0.00  0.00    +0.164 A 
ATOM      5  N   UNL     1      -8.206  -3.208  -0.231  0.00  0.00    -0.339 N 
ATOM      6  C   UNL     1      -9.508  -3.577  -0.037  0.00  0.00    +0.024 A 
ATOM      7  C   UNL     1     -10.029  -4.366  -0.992  0.00  0.00    -0.004 A 
ATOM      8  S   UNL     1      -8.698  -4.566  -2.140  0.00  0.00    -0.059 S 
ATOM      9  C   UNL     1     -11.415  -4.920  -1.036  0.00  0.00    -0.033 C 
ATOM     10  N   UNL     1     -12.013  -4.782   0.305  0.00  0.00    +0.386 N 
ATOM     11  C   UNL     1     -11.833  -3.405   0.782  0.00  0.00    -0.072 C 
ATOM     12  C   UNL     1     -10.367  -3.159   1.150  0.00  0.00    +0.035 C 
ATOM     13  H   UNL     1      -7.758  -2.640   0.416  0.00  0.00    +0.167 HD
ATOM     14  H   UNL     1     -11.561  -5.421   0.942  0.00  0.00    -0.081 HD
BRANCH  10  15
ATOM     15  C   UNL     1     -13.447  -5.093   0.235  0.00  0.00    -0.043 C 
BRANCH  15  16
ATOM     16  C   UNL     1     -13.630  -6.542  -0.136  0.00  0.00    -0.064 A 
ATOM     17  C   UNL     1     -13.716  -6.909  -1.466  0.00  0.00    +0.002 A 
ATOM     18  C   UNL     1     -13.884  -8.238  -1.806  0.00  0.00    +0.000 A 
ATOM     19  C   UNL     1     -13.965  -9.200  -0.817  0.00  0.00    +0.000 A 
ATOM     20  C   UNL     1     -13.877  -8.833   0.513  0.00  0.00    +0.000 A 
ATOM     21  C   UNL     1     -13.705  -7.505   0.853  0.00  0.00    +0.002 A 
ENDBRANCH  15  16
ENDBRANCH  10  15
ENDBRANCH   1   3
BRANCH   1  27
ATOM     22  N   UNL     1      -1.372  -0.511   0.012  0.00  0.00    -0.244 N 
ATOM     23  C   UNL     1      -1.942  -1.310  -0.945  0.00  0.00    +0.160 A 
ATOM     24  C   UNL     1      -3.267  -1.548  -0.526  0.00  0.00    +0.051 A 
ATOM     25  C   UNL     1      -3.445  -0.867   0.696  0.00  0.00    +0.145 A 
ATOM     26  N   UNL     1      -2.329  -0.269   1.005  0.00  0.00    -0.177 NA
ATOM     27  C   UNL     1      -4.109  -2.353  -1.328  0.00  0.00    +0.053 A 
ATOM     28  C   UNL     1      -3.585  -2.877  -2.503  0.00  0.00    +0.045 A 
ATOM     29  C   UNL     1      -2.258  -2.592  -2.848  0.00  0.00    +0.109 A 
ATOM     30  N   UNL     1      -1.493  -1.833  -2.076  0.00  0.00    -0.224 NA
BRANCH  29  31
ATOM     31  C   UNL     1      -1.701  -3.148  -4.096  0.00  0.00    +0.153 A 
ATOM     32  C   UNL     1      -0.434  -2.963  -4.557  0.00  0.00    +0.051 A 
ATOM     33  C   UNL     1      -0.337  -3.667  -5.772  0.00  0.00    +0.042 A 
ATOM     34  C   UNL     1      -1.537  -4.242  -5.992  0.00  0.00    +0.196 A 
ATOM     35  O   UNL     1      -2.356  -3.931  -4.975  0.00  0.00    -0.461 OA
ENDBRANCH  29  31
BRANCH  22  37
ATOM     36  C   UNL     1      -0.019   1.526   0.010  0.00  0.00    +0.032 C 
ATOM     37  C   UNL     1       0.002  -0.004   0.002  0.00  0.00    +0.103 C 
ATOM     38  C   UNL     1       0.742  -0.511   1.242  0.00  0.00    +0.032 C 
ENDBRANCH  22  37
ENDBRANCH   1  27
TORSDOF 6
