REMARK  Name = ZINC09444761
REMARK  7 active torsions:
REMARK  status: ('A' for Active; 'I' for Inactive)
REMARK    1  A    between atoms: C_5  and  C_7
REMARK    2  A    between atoms: N_11  and  C_15
REMARK    3  A    between atoms: C_15  and  C_16
REMARK    4  A    between atoms: C_16  and  C_17
REMARK    5  A    between atoms: N_19  and  N_20
REMARK    6  A    between atoms: C_21  and  C_23
REMARK    7  A    between atoms: C_26  and  O_29
REMARK                            x       y       z     vdW  Elec       q    Type
REMARK                         _______ _______ _______ _____ _____    ______ ____
ROOT
ATOM      1  C   UNL     1       1.947   0.393   0.094  0.00  0.00    +0.116 C 
ENDROOT
BRANCH   1   2
ATOM      2  C   UNL     1       0.946  -0.732   0.151  0.00  0.00    +0.231 C 
ATOM      3  O   UNL     1       1.329  -1.881   0.217  0.00  0.00    -0.274 OA
ATOM      4  N   UNL     1      -0.374  -0.461   0.124  0.00  0.00    -0.234 N 
ATOM      5  H   UNL     1      -0.680   0.458   0.071  0.00  0.00    +0.173 HD
BRANCH   4   6
ATOM      6  N   UNL     1      -1.304  -1.508   0.171  0.00  0.00    -0.230 N 
ATOM      7  C   UNL     1      -2.624  -1.237   0.144  0.00  0.00    +0.260 C 
ATOM      8  O   UNL     1      -3.008  -0.085   0.078  0.00  0.00    -0.269 OA
ATOM      9  H   UNL     1      -0.999  -2.427   0.224  0.00  0.00    +0.173 HD
BRANCH   7  10
ATOM     10  C   UNL     1      -3.605  -2.340   0.194  0.00  0.00    +0.038 A 
ATOM     11  C   UNL     1      -3.166  -3.664   0.264  0.00  0.00    +0.016 A 
ATOM     12  C   UNL     1      -4.084  -4.690   0.315  0.00  0.00    +0.046 A 
ATOM     13  C   UNL     1      -5.445  -4.409   0.286  0.00  0.00    +0.117 A 
ATOM     14  C   UNL     1      -5.885  -3.092   0.212  0.00  0.00    +0.046 A 
ATOM     15  C   UNL     1      -4.974  -2.061   0.166  0.00  0.00    +0.016 A 
BRANCH  13  16
ATOM     16  O   UNL     1      -6.346  -5.422   0.332  0.00  0.00    -0.507 OA
ATOM     17  H   UNL     1      -6.599  -5.763  -0.537  0.00  0.00    +0.292 HD
ENDBRANCH  13  16
ENDBRANCH   7  10
ENDBRANCH   4   6
ENDBRANCH   1   2
BRANCH   1  18
ATOM     18  C   UNL     1       3.364  -0.182   0.133  0.00  0.00    +0.124 C 
BRANCH  18  23
ATOM     19  C   UNL     1       6.343   3.292   2.048  0.00  0.00    +0.029 C 
ATOM     20  C   UNL     1       5.742   2.556   1.081  0.00  0.00    +0.077 C 
ATOM     21  C   UNL     1       4.761   1.458   1.205  0.00  0.00    +0.258 C 
ATOM     22  O   UNL     1       4.362   1.076   2.290  0.00  0.00    -0.269 OA
ATOM     23  N   UNL     1       4.337   0.912   0.078  0.00  0.00    -0.255 N 
ATOM     24  C   UNL     1       4.785   1.335  -1.122  0.00  0.00    +0.121 C 
ATOM     25  S   UNL     1       4.366   0.756  -2.678  0.00  0.00    -0.027 S 
ATOM     26  S   UNL     1       5.919   2.646  -0.696  0.00  0.00    -0.061 S 
BRANCH  19  31
ATOM     27  C   UNL     1       4.168   2.921   5.079  0.00  0.00    +0.001 A 
ATOM     28  C   UNL     1       5.116   2.891   6.088  0.00  0.00    +0.001 A 
ATOM     29  C   UNL     1       6.462   2.992   5.786  0.00  0.00    +0.020 A 
ATOM     30  C   UNL     1       6.871   3.117   4.473  0.00  0.00    +0.048 A 
ATOM     31  C   UNL     1       5.918   3.153   3.448  0.00  0.00    -0.005 A 
ATOM     32  C   UNL     1       4.558   3.051   3.764  0.00  0.00    +0.009 A 
ATOM     33 CL   UNL     1       8.561   3.236   4.095  0.00  0.00    -0.083 Cl
ENDBRANCH  19  31
ENDBRANCH  18  23
ENDBRANCH   1  18
TORSDOF 7
