REMARK  Name = ZINC23055224
REMARK  4 active torsions:
REMARK  status: ('A' for Active; 'I' for Inactive)
REMARK    1  A    between atoms: C_8  and  C_11
REMARK    2  A    between atoms: C_16  and  C_18
REMARK    3  A    between atoms: C_21  and  O_24
REMARK    4  A    between atoms: O_24  and  C_25
REMARK                            x       y       z     vdW  Elec       q    Type
REMARK                         _______ _______ _______ _____ _____    ______ ____
ROOT
ATOM      1  C   UNL     1       1.186   7.338  -0.307  0.00  0.00    +0.042 C 
ATOM      2  C   UNL     1       2.397   7.970  -0.556  0.00  0.00    +0.152 C 
ATOM      3  C   UNL     1       2.678   9.412  -0.487  0.00  0.00    +0.364 C 
ATOM      4  O   UNL     1       1.900  10.303  -0.201  0.00  0.00    -0.243 OA
ATOM      5  O   UNL     1       3.984   9.536  -0.809  0.00  0.00    -0.402 OA
ATOM      6  C   UNL     1       4.484   8.310  -1.056  0.00  0.00    +0.232 C 
ATOM      7  N   UNL     1       3.575   7.384  -0.908  0.00  0.00    -0.205 NA
ENDROOT
BRANCH   1  15
ATOM      8  C   UNL     1      -1.232   1.738  -0.301  0.00  0.00    +0.001 A 
ATOM      9  C   UNL     1      -0.040   1.078  -0.049  0.00  0.00    +0.004 A 
ATOM     10  C   UNL     1       1.129   1.788   0.160  0.00  0.00    +0.046 A 
ATOM     11  C   UNL     1       1.112   3.170   0.123  0.00  0.00    +0.128 A 
ATOM     12  C   UNL     1      -0.098   3.844  -0.129  0.00  0.00    +0.017 A 
ATOM     13  C   UNL     1      -1.272   3.116  -0.338  0.00  0.00    +0.011 A 
ATOM     14  C   UNL     1      -0.090   5.311  -0.164  0.00  0.00    +0.018 C 
ATOM     15  C   UNL     1       1.117   5.938  -0.288  0.00  0.00    -0.008 C 
ATOM     16  C   UNL     1       2.374   5.116  -0.403  0.00  0.00    +0.264 C 
ATOM     17  O   UNL     1       2.240   3.894   0.324  0.00  0.00    -0.487 OA
ENDBRANCH   1  15
BRANCH   6  18
ATOM     18  C   UNL     1       5.884   8.045  -1.439  0.00  0.00    +0.037 A 
ATOM     19  C   UNL     1       6.312   6.735  -1.671  0.00  0.00    +0.017 A 
ATOM     20  C   UNL     1       7.619   6.493  -2.033  0.00  0.00    +0.046 A 
ATOM     21  C   UNL     1       8.514   7.549  -2.158  0.00  0.00    +0.127 A 
ATOM     22  C   UNL     1       8.094   8.853  -1.924  0.00  0.00    +0.046 A 
ATOM     23  C   UNL     1       6.788   9.104  -1.567  0.00  0.00    +0.017 A 
BRANCH  21  24
ATOM     24  O   UNL     1       9.802   7.306  -2.511  0.00  0.00    -0.434 OA
BRANCH  24  25
ATOM     25  C   UNL     1      10.167   5.942  -2.736  0.00  0.00    +0.541 C 
ATOM     26  F   UNL     1       9.950   5.202  -1.569  0.00  0.00    -0.166 F 
ATOM     27  F   UNL     1       9.388   5.417  -3.773  0.00  0.00    -0.166 F 
ENDBRANCH  24  25
ENDBRANCH  21  24
ENDBRANCH   6  18
TORSDOF 4
