REMARK  Name = ZINC50396172
REMARK  7 active torsions:
REMARK  status: ('A' for Active; 'I' for Inactive)
REMARK    1  A    between atoms: C_6  and  O_7
REMARK    2  A    between atoms: O_7  and  C_8
REMARK    3  A    between atoms: C_8  and  C_9
REMARK    4  A    between atoms: C_9  and  C_11
REMARK    5  A    between atoms: C_9  and  O_21
REMARK    6  A    between atoms: C_11  and  N_12
REMARK    7  A    between atoms: N_12  and  C_13
REMARK                            x       y       z     vdW  Elec       q    Type
REMARK                         _______ _______ _______ _____ _____    ______ ____
ROOT
ATOM      1  C   UNL     1      -2.470  -2.748   0.110  0.00  0.00    +0.135 C 
ENDROOT
BRANCH   1   2
ATOM      2  O   UNL     1      -3.206  -2.414   1.288  0.00  0.00    -0.390 OA
ATOM      3  H   UNL     1      -2.812  -2.748   2.106  0.00  0.00    +0.210 HD
ENDBRANCH   1   2
BRANCH   1   4
ATOM      4  C   UNL     1      -1.060  -2.162   0.205  0.00  0.00    +0.258 C 
BRANCH   4   5
ATOM      5  O   UNL     1      -1.137  -0.735   0.210  0.00  0.00    -0.489 OA
BRANCH   5  11
ATOM      6  C   UNL     1       0.035   1.334   0.300  0.00  0.00    +0.047 A 
ATOM      7  C   UNL     1       1.228   2.024   0.383  0.00  0.00    +0.019 A 
ATOM      8  C   UNL     1       2.425   1.333   0.455  0.00  0.00    +0.018 A 
ATOM      9  C   UNL     1       2.428  -0.050   0.445  0.00  0.00    +0.019 A 
ATOM     10  C   UNL     1       1.237  -0.745   0.363  0.00  0.00    +0.047 A 
ATOM     11  C   UNL     1       0.036  -0.053   0.290  0.00  0.00    +0.121 A 
ATOM     12 BR   UNL     1       4.057   2.281   0.567  0.00  0.00    -0.050 Br
ENDBRANCH   5  11
ENDBRANCH   4   5
ENDBRANCH   1   4
BRANCH   1  13
ATOM     13  C   UNL     1      -2.381  -4.270  -0.021  0.00  0.00    -0.046 C 
BRANCH  13  14
ATOM     14  N   UNL     1      -3.726  -4.823  -0.233  0.00  0.00    +0.388 N 
ATOM     15  H   UNL     1      -4.289  -4.660   0.588  0.00  0.00    -0.085 HD
ATOM     16  H   UNL     1      -4.153  -4.372  -1.028  0.00  0.00    -0.085 HD
BRANCH  14  17
ATOM     17  C   UNL     1      -3.628  -6.267  -0.482  0.00  0.00    +0.016 C 
ATOM     18  C   UNL     1      -3.105  -6.966   0.775  0.00  0.00    -0.005 C 
ATOM     19  C   UNL     1      -3.270  -8.479   0.593  0.00  0.00    +0.018 C 
ATOM     20  C   UNL     1      -4.763  -8.811   0.579  0.00  0.00    +0.104 C 
ATOM     21  N   UNL     1      -5.466  -7.956  -0.369  0.00  0.00    -0.317 N 
ATOM     22  C   UNL     1      -4.985  -6.805  -0.836  0.00  0.00    +0.199 C 
ATOM     23  O   UNL     1      -5.680  -6.157  -1.590  0.00  0.00    -0.278 OA
ATOM     24  H   UNL     1      -6.340  -8.243  -0.678  0.00  0.00    +0.149 HD
ENDBRANCH  14  17
ENDBRANCH  13  14
ENDBRANCH   1  13
TORSDOF 7
