REMARK  Name = ZINC33683163
REMARK  7 active torsions:
REMARK  status: ('A' for Active; 'I' for Inactive)
REMARK    1  A    between atoms: C_3  and  C_29
REMARK    2  A    between atoms: C_6  and  C_7
REMARK    3  A    between atoms: C_7  and  O_8
REMARK    4  A    between atoms: O_8  and  C_9
REMARK    5  A    between atoms: C_12  and  C_16
REMARK    6  A    between atoms: N_17  and  N_18
REMARK    7  A    between atoms: C_22  and  N_25
REMARK                            x       y       z     vdW  Elec       q    Type
REMARK                         _______ _______ _______ _____ _____    ______ ____
ROOT
ATOM      1  C   UNL     1      -9.629   4.145  -0.029  0.00  0.00    +0.153 A 
ATOM      2  C   UNL     1      -8.457   3.424   0.170  0.00  0.00    +0.084 A 
ATOM      3  C   UNL     1      -7.239   4.070   0.164  0.00  0.00    +0.033 A 
ATOM      4  C   UNL     1      -7.184   5.453  -0.033  0.00  0.00    -0.003 A 
ATOM      5  C   UNL     1      -8.364   6.173  -0.233  0.00  0.00    +0.028 A 
ATOM      6  C   UNL     1      -9.579   5.518  -0.231  0.00  0.00    +0.062 A 
ATOM      7 BR   UNL     1     -11.177   6.492  -0.502  0.00  0.00    -0.046 Br
ATOM      8 CL   UNL     1      -8.528   1.708   0.421  0.00  0.00    -0.080 Cl
ENDROOT
BRANCH   4   9
ATOM      9  C   UNL     1      -5.884   6.148  -0.035  0.00  0.00    +0.138 C 
ATOM     10  N   UNL     1      -4.783   5.466  -0.116  0.00  0.00    -0.189 NA
BRANCH  10  11
ATOM     11  N   UNL     1      -4.800   4.168  -0.643  0.00  0.00    -0.221 N 
ATOM     12  C   UNL     1      -3.649   3.390  -0.613  0.00  0.00    +0.138 A 
ATOM     13  C   UNL     1      -3.673   2.102  -1.139  0.00  0.00    +0.047 A 
ATOM     14  C   UNL     1      -2.520   1.339  -1.102  0.00  0.00    +0.037 A 
ATOM     15  C   UNL     1      -1.377   1.892  -0.539  0.00  0.00    +0.144 A 
ATOM     16  C   UNL     1      -1.426   3.175  -0.031  0.00  0.00    +0.145 A 
ATOM     17  N   UNL     1      -2.539   3.882  -0.084  0.00  0.00    -0.237 NA
ATOM     18  H   UNL     1      -5.725   3.765  -1.081  0.00  0.00    +0.176 HD
BRANCH  15  19
ATOM     19  N   UNL     1      -0.121   1.111  -0.479  0.00  0.00    +0.058 N 
ATOM     20  O   UNL     1      -0.086  -0.022  -0.925  0.00  0.00    -0.126 OA
ATOM     21  O   UNL     1       0.879   1.604   0.011  0.00  0.00    -0.126 OA
ENDBRANCH  15  19
ENDBRANCH  10  11
ENDBRANCH   4   9
BRANCH   1  22
ATOM     22  O   UNL     1     -10.827   3.504  -0.027  0.00  0.00    -0.485 OA
BRANCH  22  23
ATOM     23  C   UNL     1     -11.301   3.010  -1.282  0.00  0.00    +0.264 C 
BRANCH  23  29
ATOM     24  C   UNL     1     -12.684   0.981  -0.800  0.00  0.00    +0.008 A 
ATOM     25  C   UNL     1     -13.901   0.358  -0.614  0.00  0.00    +0.015 A 
ATOM     26  C   UNL     1     -15.083   1.093  -0.724  0.00  0.00    +0.063 A 
ATOM     27  C   UNL     1     -15.024   2.457  -1.016  0.00  0.00    +0.015 A 
ATOM     28  C   UNL     1     -13.801   3.069  -1.195  0.00  0.00    +0.008 A 
ATOM     29  C   UNL     1     -12.634   2.334  -1.085  0.00  0.00    -0.010 A 
BRANCH  26  30
ATOM     30  C   UNL     1     -16.389   0.431  -0.531  0.00  0.00    +0.387 C 
ATOM     31  O   UNL     1     -17.416   1.073  -0.627  0.00  0.00    -0.241 OA
ATOM     32  O   UNL     1     -16.442  -0.886  -0.249  0.00  0.00    -0.241 OA
ENDBRANCH  26  30
ENDBRANCH  23  29
ENDBRANCH  22  23
ENDBRANCH   1  22
TORSDOF 7
