REMARK  Name = ZINC16857553
REMARK  8 active torsions:
REMARK  status: ('A' for Active; 'I' for Inactive)
REMARK    1  A    between atoms: C_1  and  C_2
REMARK    2  A    between atoms: C_3  and  C_18
REMARK    3  A    between atoms: N_6  and  C_10
REMARK    4  A    between atoms: C_7  and  O_9
REMARK    5  A    between atoms: C_10  and  C_11
REMARK    6  A    between atoms: C_18  and  C_19
REMARK    7  A    between atoms: C_22  and  O_25
REMARK    8  A    between atoms: O_25  and  C_26
REMARK                            x       y       z     vdW  Elec       q    Type
REMARK                         _______ _______ _______ _____ _____    ______ ____
ROOT
ATOM      1  C   UNL     1      -0.655  -3.373  -1.063  0.00  0.00    +0.066 C 
ATOM      2  C   UNL     1      -1.391  -2.365  -1.908  0.00  0.00    +0.052 A 
ATOM      3  C   UNL     1      -1.876  -1.224  -1.341  0.00  0.00    +0.043 A 
ATOM      4  C   UNL     1      -2.563  -0.302  -2.151  0.00  0.00    +0.261 A 
ATOM      5  O   UNL     1      -3.016   0.727  -1.676  0.00  0.00    -0.267 OA
ATOM      6  N   UNL     1      -2.709  -0.576  -3.465  0.00  0.00    -0.258 N 
ATOM      7  C   UNL     1      -2.204  -1.730  -3.974  0.00  0.00    +0.299 A 
ATOM      8  N   UNL     1      -1.567  -2.590  -3.209  0.00  0.00    -0.201 NA
ENDROOT
BRANCH   7   9
ATOM      9  O   UNL     1      -2.359  -1.998  -5.286  0.00  0.00    -0.479 OA
ATOM     10  H   UNL     1      -1.986  -2.829  -5.611  0.00  0.00    +0.295 HD
ENDBRANCH   7   9
BRANCH   6  11
ATOM     11  C   UNL     1      -3.415   0.365  -4.338  0.00  0.00    +0.165 C 
BRANCH  11  12
ATOM     12  C   UNL     1      -4.884   0.027  -4.357  0.00  0.00    -0.027 A 
ATOM     13  C   UNL     1      -5.378  -0.854  -5.302  0.00  0.00    +0.007 A 
ATOM     14  C   UNL     1      -6.724  -1.168  -5.316  0.00  0.00    +0.020 A 
ATOM     15  C   UNL     1      -7.578  -0.593  -4.393  0.00  0.00    +0.041 A 
ATOM     16  C   UNL     1      -7.084   0.292  -3.451  0.00  0.00    +0.020 A 
ATOM     17  C   UNL     1      -5.737   0.601  -3.434  0.00  0.00    +0.007 A 
ATOM     18 CL   UNL     1      -9.270  -0.983  -4.415  0.00  0.00    -0.084 Cl
ENDBRANCH  11  12
ENDBRANCH   6  11
BRANCH   3  19
ATOM     19  C   UNL     1      -1.683  -0.958   0.130  0.00  0.00    +0.077 C 
BRANCH  19  20
ATOM     20  C   UNL     1      -2.894  -1.436   0.890  0.00  0.00    -0.043 A 
ATOM     21  C   UNL     1      -2.909  -2.705   1.438  0.00  0.00    +0.007 A 
ATOM     22  C   UNL     1      -4.018  -3.145   2.135  0.00  0.00    +0.046 A 
ATOM     23  C   UNL     1      -5.117  -2.313   2.283  0.00  0.00    +0.120 A 
ATOM     24  C   UNL     1      -5.101  -1.040   1.732  0.00  0.00    +0.046 A 
ATOM     25  C   UNL     1      -3.989  -0.604   1.037  0.00  0.00    +0.007 A 
BRANCH  23  26
ATOM     26  O   UNL     1      -6.210  -2.744   2.968  0.00  0.00    -0.495 OA
ATOM     27  C   UNL     1      -6.157  -4.066   3.508  0.00  0.00    +0.277 C 
ENDBRANCH  23  26
ENDBRANCH  19  20
ENDBRANCH   3  19
TORSDOF 6
