REMARK  Name = ZINC66445501
REMARK  7 active torsions:
REMARK  status: ('A' for Active; 'I' for Inactive)
REMARK    1  A    between atoms: C_1  and  C_2
REMARK    2  A    between atoms: C_2  and  C_3
REMARK    3  A    between atoms: C_2  and  C_4
REMARK    4  A    between atoms: C_7  and  S_10
REMARK    5  A    between atoms: S_10  and  N_13
REMARK    6  A    between atoms: N_13  and  C_14
REMARK    7  A    between atoms: C_21  and  C_23
REMARK                            x       y       z     vdW  Elec       q    Type
REMARK                         _______ _______ _______ _____ _____    ______ ____
ROOT
ATOM      1  C   UNL     1      -6.257  -0.815  -2.196  0.00  0.00    +0.050 A 
ATOM      2  C   UNL     1      -4.955  -0.900  -2.686  0.00  0.00    +0.027 A 
ATOM      3  C   UNL     1      -4.705  -0.761  -4.021  0.00  0.00    +0.032 A 
ATOM      4  C   UNL     1      -5.760  -0.531  -4.909  0.00  0.00    +0.089 A 
ATOM      5  C   UNL     1      -7.074  -0.445  -4.418  0.00  0.00    +0.068 A 
ATOM      6  C   UNL     1      -7.316  -0.594  -3.060  0.00  0.00    +0.052 A 
ATOM      7  N   UNL     1      -7.877  -0.217  -5.518  0.00  0.00    -0.340 N 
ATOM      8  C   UNL     1      -7.065  -0.171  -6.610  0.00  0.00    +0.137 A 
ATOM      9  N   UNL     1      -5.828  -0.355  -6.255  0.00  0.00    -0.230 NA
ATOM     10  H   UNL     1      -8.841  -0.110  -5.513  0.00  0.00    +0.167 HD
ENDROOT
BRANCH   8  11
ATOM     11  C   UNL     1      -7.533   0.058  -8.024  0.00  0.00    +0.184 C 
ATOM     12  C   UNL     1      -6.756   1.237  -8.663  0.00  0.00    +0.042 C 
ATOM     13  C   UNL     1      -6.882   0.891 -10.171  0.00  0.00    +0.031 C 
ATOM     14  C   UNL     1      -6.849  -0.653 -10.157  0.00  0.00    +0.161 C 
ATOM     15  O   UNL     1      -7.226  -1.082  -8.842  0.00  0.00    -0.369 OA
ENDBRANCH   8  11
BRANCH   1  16
ATOM     16  N   UNL     1      -6.495  -0.960  -0.826  0.00  0.00    -0.216 N 
ATOM     17  H   UNL     1      -6.705  -0.183  -0.285  0.00  0.00    +0.174 HD
BRANCH  16  18
ATOM     18  S   UNL     1      -6.420  -2.459  -0.126  0.00  0.00    +0.072 S 
ATOM     19  O   UNL     1      -6.738  -2.283   1.248  0.00  0.00    -0.150 OA
ATOM     20  O   UNL     1      -5.201  -3.048  -0.557  0.00  0.00    -0.150 OA
BRANCH  18  24
ATOM     21  C   UNL     1      -9.757  -4.941  -1.915  0.00  0.00    -0.045 A 
ATOM     22  C   UNL     1      -8.481  -5.016  -2.442  0.00  0.00    +0.006 A 
ATOM     23  C   UNL     1      -7.462  -4.258  -1.895  0.00  0.00    +0.029 A 
ATOM     24  C   UNL     1      -7.719  -3.425  -0.823  0.00  0.00    +0.109 A 
ATOM     25  C   UNL     1      -8.995  -3.349  -0.297  0.00  0.00    +0.029 A 
ATOM     26  C   UNL     1     -10.015  -4.104  -0.845  0.00  0.00    +0.006 A 
BRANCH  21  28
ATOM     27  C   UNL     1     -11.048  -5.395  -3.983  0.00  0.00    +0.012 C 
ATOM     28  C   UNL     1     -10.868  -5.768  -2.510  0.00  0.00    +0.013 C 
ATOM     29  C   UNL     1     -10.514  -7.252  -2.400  0.00  0.00    +0.012 C 
ENDBRANCH  21  28
ENDBRANCH  18  24
ENDBRANCH  16  18
ENDBRANCH   1  16
TORSDOF 5
