REMARK  Name = ZINC27239939
REMARK  12 active torsions:
REMARK  status: ('A' for Active; 'I' for Inactive)
REMARK    1  A    between atoms: C_1  and  C_2
REMARK    2  A    between atoms: C_2  and  C_3
REMARK    3  A    between atoms: C_6  and  C_9
REMARK    4  A    between atoms: C_9  and  C_10
REMARK    5  A    between atoms: C_9  and  C_27
REMARK    6  A    between atoms: C_9  and  O_30
REMARK    7  A    between atoms: C_10  and  C_12
REMARK    8  A    between atoms: C_10  and  O_20
REMARK    9  A    between atoms: C_12  and  N_13
REMARK   10  A    between atoms: O_20  and  C_21
REMARK   11  A    between atoms: C_27  and  C_28
REMARK   12  A    between atoms: C_27  and  C_29
REMARK                            x       y       z     vdW  Elec       q    Type
REMARK                         _______ _______ _______ _____ _____    ______ ____
ROOT
ATOM      1  C   UNL     1       3.427  -2.143  -4.369  0.00  0.00    +0.193 C 
ENDROOT
BRANCH   1   2
ATOM      2  C   UNL     1       2.064  -1.452  -4.449  0.00  0.00    +0.128 C 
BRANCH   2   6
ATOM      3  C   UNL     1      -0.863  -4.237  -5.836  0.00  0.00    -0.048 A 
ATOM      4  C   UNL     1      -1.032  -2.885  -6.066  0.00  0.00    +0.004 A 
ATOM      5  C   UNL     1      -0.085  -1.984  -5.617  0.00  0.00    +0.007 A 
ATOM      6  C   UNL     1       1.031  -2.435  -4.938  0.00  0.00    -0.012 A 
ATOM      7  C   UNL     1       1.200  -3.787  -4.707  0.00  0.00    +0.007 A 
ATOM      8  C   UNL     1       0.251  -4.688  -5.152  0.00  0.00    +0.004 A 
BRANCH   3  10
ATOM      9  C   UNL     1      -2.959  -5.423  -5.244  0.00  0.00    +0.009 C 
ATOM     10  C   UNL     1      -1.895  -5.220  -6.325  0.00  0.00    +0.032 C 
ENDBRANCH   3  10
ENDBRANCH   2   6
BRANCH   2  11
ATOM     11  C   UNL     1       1.668  -0.943  -3.062  0.00  0.00    +0.023 C 
ATOM     12  C   UNL     1       1.421  -2.133  -2.133  0.00  0.00    +0.010 C 
ATOM     13  C   UNL     1       2.796  -0.079  -2.495  0.00  0.00    +0.010 C 
ENDBRANCH   2  11
BRANCH   2  14
ATOM     14  O   UNL     1       2.142  -0.351  -5.357  0.00  0.00    -0.380 OA
ATOM     15  H   UNL     1       2.389  -0.601  -6.258  0.00  0.00    +0.211 HD
ENDBRANCH   2  14
ENDBRANCH   1   2
BRANCH   1  16
ATOM     16  C   UNL     1       3.776  -2.745  -5.732  0.00  0.00    -0.030 C 
BRANCH  16  17
ATOM     17  N   UNL     1       5.108  -3.360  -5.670  0.00  0.00    +0.382 N 
ATOM     18  C   UNL     1       5.029  -4.633  -4.992  0.00  0.00    -0.079 C 
ATOM     19  C   UNL     1       6.276  -4.882  -4.125  0.00  0.00    -0.019 C 
ATOM     20  C   UNL     1       7.580  -4.444  -4.819  0.00  0.00    -0.002 C 
ATOM     21  C   UNL     1       7.635  -4.822  -6.276  0.00  0.00    -0.002 C 
ATOM     22  C   UNL     1       7.064  -3.661  -7.125  0.00  0.00    -0.019 C 
ATOM     23  C   UNL     1       5.607  -3.609  -7.033  0.00  0.00    -0.079 C 
ATOM     24  H   UNL     1       5.744  -2.749  -5.179  0.00  0.00    -0.082 HD
ENDBRANCH  16  17
ENDBRANCH   1  16
BRANCH   1  25
ATOM     25  O   UNL     1       3.377  -3.182  -3.388  0.00  0.00    -0.487 OA
BRANCH  25  26
ATOM     26  C   UNL     1       4.369  -3.201  -2.459  0.00  0.00    +0.121 A 
ATOM     27  C   UNL     1       5.410  -2.288  -2.535  0.00  0.00    +0.045 A 
ATOM     28  C   UNL     1       6.416  -2.308  -1.588  0.00  0.00    +0.004 A 
ATOM     29  C   UNL     1       6.386  -3.239  -0.566  0.00  0.00    +0.000 A 
ATOM     30  C   UNL     1       5.349  -4.151  -0.488  0.00  0.00    +0.004 A 
ATOM     31  C   UNL     1       4.338  -4.130  -1.429  0.00  0.00    +0.045 A 
ENDBRANCH  25  26
ENDBRANCH   1  25
TORSDOF 9
