REMARK  Name = ZINC67042662
REMARK  3 active torsions:
REMARK  status: ('A' for Active; 'I' for Inactive)
REMARK    1  A    between atoms: C_5  and  C_7
REMARK    2  A    between atoms: N_16  and  C_17
REMARK    3  A    between atoms: C_22  and  C_25
REMARK                            x       y       z     vdW  Elec       q    Type
REMARK                         _______ _______ _______ _____ _____    ______ ____
ROOT
ATOM      1  C   UNL     1      -1.247  -3.966  -1.250  0.00  0.00    +0.168 C 
ATOM      2  C   UNL     1       0.004  -4.709  -0.767  0.00  0.00    +0.145 C 
ATOM      3  N   UNL     1       1.173  -4.150  -1.464  0.00  0.00    -0.281 N 
ATOM      4  C   UNL     1       1.347  -2.689  -1.462  0.00  0.00    +0.137 C 
ATOM      5  C   UNL     1       0.030  -2.045  -1.911  0.00  0.00    +0.179 C 
ATOM      6  O   UNL     1      -1.041  -2.558  -1.116  0.00  0.00    -0.369 OA
ATOM      7  C   UNL     1       2.059  -4.953  -2.086  0.00  0.00    +0.303 C 
ATOM      8  O   UNL     1       2.966  -4.469  -2.736  0.00  0.00    -0.253 OA
ATOM      9  N   UNL     1       1.941  -6.292  -1.988  0.00  0.00    -0.296 N 
ATOM     10  H   UNL     1       1.178  -6.678  -1.530  0.00  0.00    +0.151 HD
ENDROOT
BRANCH   1  15
ATOM     11  C   UNL     1      -3.895  -4.012   1.440  0.00  0.00    +0.001 A 
ATOM     12  C   UNL     1      -4.608  -5.149   1.109  0.00  0.00    +0.003 A 
ATOM     13  C   UNL     1      -4.234  -5.905   0.014  0.00  0.00    +0.039 A 
ATOM     14  C   UNL     1      -3.145  -5.523  -0.751  0.00  0.00    +0.129 A 
ATOM     15  C   UNL     1      -2.433  -4.383  -0.419  0.00  0.00    +0.018 A 
ATOM     16  C   UNL     1      -2.808  -3.629   0.677  0.00  0.00    +0.009 A 
ATOM     17  F   UNL     1      -2.779  -6.261  -1.822  0.00  0.00    -0.205 F 
ENDBRANCH   1  15
BRANCH   9  18
ATOM     18  C   UNL     1       2.964  -7.163  -2.571  0.00  0.00    +0.075 C 
ATOM     19  C   UNL     1       4.112  -7.338  -1.575  0.00  0.00    +0.022 C 
ATOM     20  C   UNL     1       3.579  -7.970  -0.288  0.00  0.00    +0.002 C 
ATOM     21  C   UNL     1       2.966  -9.335  -0.606  0.00  0.00    +0.012 C 
ATOM     22  C   UNL     1       1.817  -9.159  -1.601  0.00  0.00    +0.095 C 
ATOM     23  C   UNL     1       2.351  -8.528  -2.889  0.00  0.00    +0.034 C 
BRANCH  22  24
ATOM     24  C   UNL     1       1.204 -10.525  -1.919  0.00  0.00    +0.393 C 
ATOM     25  F   UNL     1       0.716 -11.102  -0.741  0.00  0.00    -0.170 F 
ATOM     26  F   UNL     1       0.154 -10.364  -2.829  0.00  0.00    -0.170 F 
ATOM     27  F   UNL     1       2.181 -11.356  -2.476  0.00  0.00    -0.170 F 
ENDBRANCH  22  24
ENDBRANCH   9  18
TORSDOF 3
