REMARK  Name = ZINC09109303
REMARK  8 active torsions:
REMARK  status: ('A' for Active; 'I' for Inactive)
REMARK    1  A    between atoms: C_1  and  C_2
REMARK    2  A    between atoms: C_16  and  C_33
REMARK    3  A    between atoms: C_18  and  C_27
REMARK    4  A    between atoms: C_27  and  C_29
REMARK    5  A    between atoms: C_29  and  C_30
REMARK    6  A    between atoms: C_29  and  C_31
REMARK    7  A    between atoms: C_29  and  C_32
REMARK    8  A    between atoms: C_33  and  C_35
REMARK                            x       y       z     vdW  Elec       q    Type
REMARK                         _______ _______ _______ _____ _____    ______ ____
ROOT
ATOM      1  C   UNL     1      -6.357  -4.269  -2.239  0.00  0.00    +0.044 C 
ATOM      2  C   UNL     1      -4.870  -4.169  -2.010  0.00  0.00    -0.044 C 
ATOM      3  C   UNL     1      -4.370  -3.881  -0.794  0.00  0.00    +0.000 C 
ATOM      4  C   UNL     1      -2.877  -3.806  -0.692  0.00  0.00    +0.118 C 
ATOM      5  C   UNL     1      -2.341  -3.000   0.484  0.00  0.00    +0.108 C 
ATOM      6  C   UNL     1      -3.314  -1.991   0.990  0.00  0.00    -0.008 A 
ATOM      7  C   UNL     1      -3.958  -0.941   0.371  0.00  0.00    +0.006 A 
ATOM      8  C   UNL     1      -4.820  -0.179   1.152  0.00  0.00    +0.000 A 
ATOM      9  C   UNL     1      -5.021  -0.463   2.488  0.00  0.00    +0.002 A 
ATOM     10  C   UNL     1      -4.379  -1.518   3.118  0.00  0.00    +0.023 A 
ATOM     11  C   UNL     1      -3.512  -2.292   2.345  0.00  0.00    +0.038 A 
ATOM     12  N   UNL     1      -2.752  -3.389   2.711  0.00  0.00    -0.284 N 
ATOM     13  C   UNL     1      -2.032  -3.874   1.675  0.00  0.00    +0.231 C 
ATOM     14  O   UNL     1      -1.283  -4.828   1.697  0.00  0.00    -0.274 OA
ATOM     15  C   UNL     1      -1.055  -2.333  -0.045  0.00  0.00    +0.109 C 
ATOM     16  C   UNL     1      -0.972  -2.765  -1.537  0.00  0.00    +0.153 C 
ATOM     17  N   UNL     1      -2.366  -3.070  -1.881  0.00  0.00    -0.311 N 
ATOM     18  C   UNL     1      -2.626  -3.796  -3.018  0.00  0.00    +0.038 A 
ATOM     19  C   UNL     1      -3.906  -4.385  -3.114  0.00  0.00    -0.001 A 
ATOM     20  C   UNL     1      -4.236  -5.139  -4.232  0.00  0.00    +0.010 A 
ATOM     21  C   UNL     1      -3.310  -5.304  -5.244  0.00  0.00    +0.001 A 
ATOM     22  C   UNL     1      -2.057  -4.724  -5.149  0.00  0.00    +0.002 A 
ATOM     23  C   UNL     1      -1.714  -3.971  -4.040  0.00  0.00    +0.024 A 
ATOM     24  H   UNL     1      -2.738  -3.767   3.604  0.00  0.00    +0.155 HD
ENDROOT
BRANCH  16  25
ATOM     25  C   UNL     1      -0.450  -1.637  -2.389  0.00  0.00    +0.160 C 
ATOM     26  O   UNL     1      -1.220  -0.927  -2.990  0.00  0.00    -0.295 OA
BRANCH  25  27
ATOM     27  C   UNL     1       1.034  -1.394  -2.490  0.00  0.00    +0.022 C 
ATOM     28  C   UNL     1       1.301  -0.287  -3.512  0.00  0.00    +0.018 C 
ATOM     29  C   UNL     1       1.576  -0.968  -1.124  0.00  0.00    +0.018 C 
ATOM     30  C   UNL     1       1.732  -2.680  -2.937  0.00  0.00    +0.018 C 
ENDBRANCH  25  27
ENDBRANCH  16  25
BRANCH  15  31
ATOM     31  C   UNL     1      -1.158  -0.833   0.063  0.00  0.00    +0.173 C 
ATOM     32  O   UNL     1      -1.727  -0.201  -0.802  0.00  0.00    -0.292 OA
BRANCH  31  33
ATOM     33  C   UNL     1      -0.570  -0.137   1.216  0.00  0.00    +0.053 A 
ATOM     34  C   UNL     1      -0.011  -0.869   2.269  0.00  0.00    +0.014 A 
ATOM     35  C   UNL     1       0.540  -0.209   3.346  0.00  0.00    +0.001 A 
ATOM     36  C   UNL     1       0.542   1.175   3.390  0.00  0.00    +0.003 A 
ATOM     37  C   UNL     1      -0.008   1.908   2.355  0.00  0.00    +0.039 A 
ATOM     38  C   UNL     1      -0.564   1.263   1.266  0.00  0.00    +0.134 A 
ATOM     39  F   UNL     1      -1.096   1.980   0.252  0.00  0.00    -0.205 F 
ENDBRANCH  31  33
ENDBRANCH  15  31
TORSDOF 4
