REMARK  Name = ZINC47146741
REMARK  4 active torsions:
REMARK  status: ('A' for Active; 'I' for Inactive)
REMARK    1  A    between atoms: C_4  and  N_7
REMARK    2  A    between atoms: C_12  and  C_26
REMARK    3  A    between atoms: C_30  and  O_32
REMARK    4  A    between atoms: O_32  and  C_33
REMARK                            x       y       z     vdW  Elec       q    Type
REMARK                         _______ _______ _______ _____ _____    ______ ____
ROOT
ATOM      1  N   UNL     1       3.757  -0.682   0.507  0.00  0.00    -0.209 N 
ATOM      2  C   UNL     1       3.808  -2.024   0.332  0.00  0.00    +0.232 C 
ATOM      3  O   UNL     1       2.871  -2.777   0.178  0.00  0.00    -0.274 OA
ATOM      4  C   UNL     1       5.260  -2.387   0.367  0.00  0.00    +0.110 C 
ATOM      5  C   UNL     1       5.699  -3.675  -0.217  0.00  0.00    +0.072 C 
ATOM      6  C   UNL     1       5.990  -3.655  -1.674  0.00  0.00    +0.033 A 
ATOM      7  C   UNL     1       6.107  -2.595  -2.494  0.00  0.00    +0.088 A 
ATOM      8  N   UNL     1       6.416  -2.904  -3.800  0.00  0.00    -0.311 N 
ATOM      9  H   UNL     1       6.536  -2.194  -4.450  0.00  0.00    +0.170 HD
ATOM     10  C   UNL     1       6.552  -4.189  -4.175  0.00  0.00    +0.289 A 
ATOM     11  O   UNL     1       6.814  -4.631  -5.279  0.00  0.00    -0.260 OA
ATOM     12  S   UNL     1       6.272  -5.038  -2.750  0.00  0.00    -0.030 S 
ATOM     13  S   UNL     1       5.850  -0.942  -1.905  0.00  0.00    -0.093 S 
ATOM     14  C   UNL     1       5.960  -1.108  -0.107  0.00  0.00    +0.152 C 
ATOM     15  C   UNL     1       4.960  -0.078   0.443  0.00  0.00    +0.240 C 
ATOM     16  O   UNL     1       5.208   1.065   0.763  0.00  0.00    -0.274 OA
ENDROOT
BRANCH   1  20
ATOM     17  C   UNL     1       0.200   1.391   1.164  0.00  0.00    +0.000 A 
ATOM     18  C   UNL     1       1.399   2.077   1.112  0.00  0.00    +0.002 A 
ATOM     19  C   UNL     1       2.579   1.393   0.895  0.00  0.00    +0.024 A 
ATOM     20  C   UNL     1       2.561   0.015   0.729  0.00  0.00    +0.044 A 
ATOM     21  C   UNL     1       1.355  -0.671   0.782  0.00  0.00    +0.024 A 
ATOM     22  C   UNL     1       0.178   0.018   0.999  0.00  0.00    +0.002 A 
ENDBRANCH   1  20
BRANCH   5  23
ATOM     23  C   UNL     1       4.621  -4.698   0.030  0.00  0.00    -0.035 A 
ATOM     24  C   UNL     1       4.609  -5.417   1.212  0.00  0.00    +0.004 A 
ATOM     25  C   UNL     1       3.621  -6.356   1.442  0.00  0.00    +0.004 A 
ATOM     26  C   UNL     1       2.643  -6.579   0.492  0.00  0.00    +0.046 A 
ATOM     27  C   UNL     1       2.653  -5.859  -0.694  0.00  0.00    +0.129 A 
ATOM     28  C   UNL     1       3.643  -4.913  -0.920  0.00  0.00    +0.050 A 
BRANCH  27  29
ATOM     29  O   UNL     1       1.692  -6.077  -1.630  0.00  0.00    -0.456 OA
BRANCH  29  30
ATOM     30  C   UNL     1       0.679  -6.928  -1.319  0.00  0.00    +0.128 A 
ATOM     31  C   UNL     1      -0.342  -6.514  -0.475  0.00  0.00    +0.046 A 
ATOM     32  C   UNL     1      -1.370  -7.381  -0.161  0.00  0.00    +0.004 A 
ATOM     33  C   UNL     1      -1.383  -8.660  -0.685  0.00  0.00    +0.000 A 
ATOM     34  C   UNL     1      -0.366  -9.075  -1.526  0.00  0.00    +0.004 A 
ATOM     35  C   UNL     1       0.661  -8.210  -1.849  0.00  0.00    +0.046 A 
ENDBRANCH  29  30
ENDBRANCH  27  29
ENDBRANCH   5  23
TORSDOF 4
