REMARK  Name = ZINC17448073
REMARK  12 active torsions:
REMARK  status: ('A' for Active; 'I' for Inactive)
REMARK    1  A    between atoms: C_1  and  C_2
REMARK    2  A    between atoms: C_10  and  C_11
REMARK    3  A    between atoms: N_13  and  N_14
REMARK    4  A    between atoms: C_15  and  C_17
REMARK    5  A    between atoms: C_17  and  C_19
REMARK    6  A    between atoms: C_17  and  N_23
REMARK    7  A    between atoms: C_19  and  C_20
REMARK    8  A    between atoms: C_20  and  S_21
REMARK    9  A    between atoms: S_21  and  C_22
REMARK   10  A    between atoms: N_23  and  S_24
REMARK   11  A    between atoms: S_24  and  C_27
REMARK   12  A    between atoms: C_28  and  C_29
REMARK                            x       y       z     vdW  Elec       q    Type
REMARK                         _______ _______ _______ _____ _____    ______ ____
ROOT
ATOM      1  N   UNL     1      -1.007   3.145   3.605  0.00  0.00    -0.233 N 
ATOM      2  C   UNL     1      -0.818   1.811   3.589  0.00  0.00    +0.248 C 
ATOM      3  O   UNL     1      -1.270   1.123   4.479  0.00  0.00    -0.273 OA
ATOM      4  H   UNL     1      -0.646   3.695   2.893  0.00  0.00    +0.173 HD
ENDROOT
BRANCH   1   7
ATOM      5  C   UNL     1      -1.916   5.072   4.668  0.00  0.00    +0.296 C 
ATOM      6  O   UNL     1      -1.463   5.762   3.775  0.00  0.00    -0.265 OA
ATOM      7  N   UNL     1      -1.727   3.738   4.651  0.00  0.00    -0.228 N 
ATOM      8  H   UNL     1      -2.088   3.188   5.364  0.00  0.00    +0.173 HD
BRANCH   5  18
ATOM      9  C   UNL     1      -2.482   8.117   4.949  0.00  0.00    +0.048 C 
ATOM     10  C   UNL     1      -2.919   7.023   5.889  0.00  0.00    +0.008 A 
ATOM     11  C   UNL     1      -3.698   7.178   7.117  0.00  0.00    +0.024 A 
ATOM     12  C   UNL     1      -4.254   8.271   7.786  0.00  0.00    +0.012 A 
ATOM     13  C   UNL     1      -4.940   8.074   8.951  0.00  0.00    +0.001 A 
ATOM     14  C   UNL     1      -5.087   6.796   9.473  0.00  0.00    +0.004 A 
ATOM     15  C   UNL     1      -4.546   5.705   8.829  0.00  0.00    +0.047 A 
ATOM     16  C   UNL     1      -3.843   5.880   7.642  0.00  0.00    +0.136 A 
ATOM     17  O   UNL     1      -3.217   5.030   6.806  0.00  0.00    -0.450 OA
ATOM     18  C   UNL     1      -2.671   5.693   5.765  0.00  0.00    +0.195 A 
ENDBRANCH   5  18
ENDBRANCH   1   7
BRANCH   2  19
ATOM     19  C   UNL     1      -0.044   1.174   2.463  0.00  0.00    +0.164 C 
BRANCH  19  20
ATOM     20  N   UNL     1       0.022  -0.275   2.675  0.00  0.00    -0.179 NA
ATOM     21  H   UNL     1      -0.737  -0.744   3.057  0.00  0.00    +0.149 HD
BRANCH  20  22
ATOM     22  S   UNL     1       1.390  -1.110   2.261  0.00  0.00    +0.052 S 
ATOM     23  O   UNL     1       1.160  -2.467   2.617  0.00  0.00    -0.154 OA
ATOM     24  O   UNL     1       1.723  -0.715   0.938  0.00  0.00    -0.154 OA
BRANCH  22  25
ATOM     25  C   UNL     1       2.689  -0.531   3.301  0.00  0.00    +0.153 C 
ATOM     26  C   UNL     1       3.251  -1.350   4.179  0.00  0.00    +0.028 C 
BRANCH  26  27
ATOM     27  C   UNL     1       4.341  -0.864   5.051  0.00  0.00    -0.024 A 
ATOM     28  C   UNL     1       4.783   0.456   4.950  0.00  0.00    +0.008 A 
ATOM     29  C   UNL     1       5.797   0.905   5.771  0.00  0.00    +0.001 A 
ATOM     30  C   UNL     1       6.382   0.047   6.686  0.00  0.00    +0.000 A 
ATOM     31  C   UNL     1       5.951  -1.263   6.787  0.00  0.00    +0.001 A 
ATOM     32  C   UNL     1       4.935  -1.724   5.976  0.00  0.00    +0.008 A 
ENDBRANCH  26  27
ENDBRANCH  22  25
ENDBRANCH  20  22
ENDBRANCH  19  20
BRANCH  19  33
ATOM     33  C   UNL     1      -0.744   1.464   1.135  0.00  0.00    +0.040 C 
BRANCH  33  34
ATOM     34  C   UNL     1      -2.143   0.845   1.149  0.00  0.00    +0.071 C 
BRANCH  34  35
ATOM     35  S   UNL     1      -3.018   1.291  -0.376  0.00  0.00    -0.164 S 
ATOM     36  C   UNL     1      -4.636   0.490  -0.204  0.00  0.00    +0.084 C 
ENDBRANCH  34  35
ENDBRANCH  33  34
ENDBRANCH  19  33
ENDBRANCH   2  19
TORSDOF 10
