REMARK  Name = ZINC34888950
REMARK  13 active torsions:
REMARK  status: ('A' for Active; 'I' for Inactive)
REMARK    1  A    between atoms: C_1  and  C_2
REMARK    2  A    between atoms: N_8  and  C_9
REMARK    3  A    between atoms: C_9  and  C_10
REMARK    4  A    between atoms: C_10  and  C_11
REMARK    5  A    between atoms: C_11  and  N_12
REMARK    6  A    between atoms: C_13  and  C_15
REMARK    7  A    between atoms: C_15  and  S_16
REMARK    8  A    between atoms: S_16  and  C_17
REMARK    9  A    between atoms: C_28  and  C_31
REMARK   10  A    between atoms: C_32  and  C_34
REMARK   11  A    between atoms: C_34  and  C_35
REMARK   12  A    between atoms: C_34  and  C_36
REMARK   13  A    between atoms: C_34  and  C_37
REMARK                            x       y       z     vdW  Elec       q    Type
REMARK                         _______ _______ _______ _____ _____    ______ ____
ROOT
ATOM      1  C   UNL     1       0.484   0.330  11.065  0.00  0.00    +0.192 A 
ATOM      2  N   UNL     1       0.365   0.623  12.352  0.00  0.00    -0.207 NA
ATOM      3  C   UNL     1       1.023  -0.077  13.270  0.00  0.00    +0.127 A 
ATOM      4  C   UNL     1       1.843  -1.130  12.861  0.00  0.00    +0.083 A 
ATOM      5  C   UNL     1       1.940  -1.404  11.509  0.00  0.00    +0.135 A 
ATOM      6  N   UNL     1       1.251  -0.667  10.648  0.00  0.00    -0.210 NA
ATOM      7 CL   UNL     1       2.946  -2.701  10.946  0.00  0.00    -0.062 Cl
ATOM      8  N   UNL     1       0.896   0.233  14.615  0.00  0.00    -0.312 N 
ATOM      9  C   UNL     1      -0.139   1.171  15.072  0.00  0.00    +0.125 C 
ATOM     10  C   UNL     1       0.535   2.295  15.868  0.00  0.00    +0.127 C 
ATOM     11  N   UNL     1       1.433   1.692  16.863  0.00  0.00    -0.295 N 
ATOM     12  C   UNL     1       2.469   0.755  16.406  0.00  0.00    +0.090 C 
ATOM     13  C   UNL     1       1.791  -0.374  15.610  0.00  0.00    +0.128 C 
ATOM     14  C   UNL     1       3.471   1.491  15.515  0.00  0.00    +0.029 C 
ATOM     15  C   UNL     1       1.310   1.994  18.171  0.00  0.00    +0.221 C 
ATOM     16  O   UNL     1       2.116   1.568  18.970  0.00  0.00    -0.275 OA
ENDROOT
BRANCH  15  17
ATOM     17  C   UNL     1       0.171   2.862  18.640  0.00  0.00    +0.039 C 
ATOM     18  C   UNL     1       0.240   3.017  20.160  0.00  0.00    +0.020 C 
ATOM     19  C   UNL     1       0.274   4.239  17.981  0.00  0.00    +0.020 C 
ATOM     20  C   UNL     1      -1.159   2.210  18.254  0.00  0.00    +0.020 C 
ENDBRANCH  15  17
BRANCH   1  21
ATOM     21  S   UNL     1      -0.406   1.283   9.881  0.00  0.00    -0.077 S 
BRANCH  21  22
ATOM     22  C   UNL     1       0.043   0.536   8.290  0.00  0.00    +0.173 C 
BRANCH  22  24
ATOM     23  N   UNL     1      -0.475   0.885   5.896  0.00  0.00    -0.315 N 
ATOM     24  C   UNL     1      -0.660   1.268   7.175  0.00  0.00    +0.223 C 
ATOM     25  O   UNL     1      -1.392   2.201   7.429  0.00  0.00    -0.275 OA
ATOM     26  H   UNL     1       0.110   0.139   5.693  0.00  0.00    +0.149 HD
BRANCH  23  27
ATOM     27  C   UNL     1      -1.159   1.597   4.813  0.00  0.00    +0.102 C 
BRANCH  27  28
ATOM     28  C   UNL     1      -0.780   0.967   3.471  0.00  0.00    +0.000 C 
BRANCH  28  29
ATOM     29  C   UNL     1      -1.494   1.710   2.340  0.00  0.00    -0.077 C 
BRANCH  29  36
ATOM     30  C   UNL     1      -1.252   3.344   0.069  0.00  0.00    -0.013 C 
ATOM     31  C   UNL     1      -1.719   1.891  -0.040  0.00  0.00    -0.072 C 
ATOM     32  C   UNL     1      -1.276   1.313  -1.386  0.00  0.00    -0.016 C 
ATOM     33  C   UNL     1      -1.746  -0.141  -1.490  0.00  0.00    -0.003 C 
ATOM     34  C   UNL     1      -1.186  -0.934  -0.306  0.00  0.00    -0.019 C 
ATOM     35  C   UNL     1      -1.633  -0.273   1.000  0.00  0.00    -0.078 C 
ATOM     36  N   UNL     1      -1.130   1.105   1.051  0.00  0.00    +0.381 N 
ATOM     37  H   UNL     1      -0.125   1.100   0.956  0.00  0.00    -0.081 HD
ENDBRANCH  29  36
ENDBRANCH  28  29
ENDBRANCH  27  28
ENDBRANCH  23  27
ENDBRANCH  22  24
ENDBRANCH  21  22
ENDBRANCH   1  21
TORSDOF 8
