REMARK  Name = ZINC39462481
REMARK  12 active torsions:
REMARK  status: ('A' for Active; 'I' for Inactive)
REMARK    1  A    between atoms: C_1  and  C_2
REMARK    2  A    between atoms: C_2  and  C_3
REMARK    3  A    between atoms: C_2  and  N_4
REMARK    4  A    between atoms: N_4  and  C_5
REMARK    5  A    between atoms: N_4  and  C_34
REMARK    6  A    between atoms: C_5  and  C_6
REMARK    7  A    between atoms: C_6  and  N_7
REMARK    8  A    between atoms: C_8  and  S_19
REMARK    9  A    between atoms: S_19  and  C_20
REMARK   10  A    between atoms: C_20  and  C_21
REMARK   11  A    between atoms: C_34  and  C_35
REMARK   12  A    between atoms: C_34  and  C_36
REMARK                            x       y       z     vdW  Elec       q    Type
REMARK                         _______ _______ _______ _____ _____    ______ ____
ROOT
ATOM      1  N   UNL     1      -3.042   2.024  -2.231  0.00  0.00    -0.272 N 
ATOM      2  C   UNL     1      -2.371   2.346  -3.491  0.00  0.00    +0.222 C 
ATOM      3  N   UNL     1      -3.240   2.019  -4.628  0.00  0.00    -0.317 N 
ATOM      4  C   UNL     1      -4.586   2.358  -4.561  0.00  0.00    +0.041 A 
ATOM      5  C   UNL     1      -5.324   2.638  -5.699  0.00  0.00    +0.024 A 
ATOM      6  C   UNL     1      -6.663   2.959  -5.583  0.00  0.00    +0.002 A 
ATOM      7  C   UNL     1      -7.273   3.003  -4.339  0.00  0.00    +0.001 A 
ATOM      8  C   UNL     1      -6.551   2.731  -3.196  0.00  0.00    +0.015 A 
ATOM      9  C   UNL     1      -5.199   2.409  -3.297  0.00  0.00    +0.058 A 
ATOM     10  C   UNL     1      -4.380   2.130  -2.105  0.00  0.00    +0.250 C 
ATOM     11  O   UNL     1      -4.906   1.999  -1.017  0.00  0.00    -0.270 OA
ATOM     12  H   UNL     1      -2.880   1.574  -5.411  0.00  0.00    +0.149 HD
ENDROOT
BRANCH   1  13
ATOM     13  C   UNL     1      -2.245   1.573  -1.087  0.00  0.00    +0.092 C 
BRANCH  13  14
ATOM     14  C   UNL     1      -2.116   0.049  -1.125  0.00  0.00    -0.059 C 
BRANCH  14  15
ATOM     15  N   UNL     1      -1.449  -0.416   0.099  0.00  0.00    +0.384 N 
ATOM     16  H   UNL     1      -1.933  -0.052   0.905  0.00  0.00    -0.081 HD
BRANCH  15  18
ATOM     17  C   UNL     1       0.439   0.207  -1.332  0.00  0.00    -0.014 C 
ATOM     18  C   UNL     1      -0.058   0.056   0.107  0.00  0.00    -0.074 C 
ATOM     19  C   UNL     1       0.016   1.409   0.817  0.00  0.00    -0.014 C 
ENDBRANCH  15  18
BRANCH  15  20
ATOM     20  C   UNL     1      -1.467  -1.885   0.138  0.00  0.00    -0.074 C 
ATOM     21  C   UNL     1      -0.884  -2.366   1.468  0.00  0.00    -0.014 C 
ATOM     22  C   UNL     1      -2.909  -2.380   0.004  0.00  0.00    -0.014 C 
ENDBRANCH  15  20
ENDBRANCH  14  15
ENDBRANCH  13  14
ENDBRANCH   1  13
BRANCH   2  23
ATOM     23  S   UNL     1      -1.983   4.118  -3.529  0.00  0.00    -0.111 S 
BRANCH  23  24
ATOM     24  C   UNL     1      -3.601   4.925  -3.387  0.00  0.00    +0.146 C 
BRANCH  24  25
ATOM     25  C   UNL     1      -3.419   6.421  -3.406  0.00  0.00    +0.120 A 
ATOM     26  N   UNL     1      -4.524   7.206  -3.304  0.00  0.00    -0.310 N 
ATOM     27  H   UNL     1      -5.399   6.795  -3.222  0.00  0.00    +0.170 HD
ATOM     28  C   UNL     1      -4.414   8.555  -3.315  0.00  0.00    +0.259 A 
ATOM     29  O   UNL     1      -5.395   9.270  -3.225  0.00  0.00    -0.267 OA
ATOM     30  C   UNL     1      -3.064   9.123  -3.441  0.00  0.00    +0.066 A 
ATOM     31  C   UNL     1      -2.842  10.498  -3.463  0.00  0.00    +0.035 A 
ATOM     32  C   UNL     1      -1.555  10.977  -3.584  0.00  0.00    +0.042 A 
ATOM     33  C   UNL     1      -0.482  10.100  -3.683  0.00  0.00    +0.022 A 
ATOM     34  C   UNL     1      -0.680   8.738  -3.663  0.00  0.00    +0.030 A 
ATOM     35  C   UNL     1      -1.975   8.229  -3.541  0.00  0.00    +0.078 A 
ATOM     36  N   UNL     1      -2.215   6.894  -3.513  0.00  0.00    -0.233 NA
ATOM     37 CL   UNL     1      -1.272  12.690  -3.612  0.00  0.00    -0.084 Cl
ENDBRANCH  24  25
ENDBRANCH  23  24
ENDBRANCH   2  23
TORSDOF 8
