REMARK  Name = ZINC27753652
REMARK  6 active torsions:
REMARK  status: ('A' for Active; 'I' for Inactive)
REMARK    1  A    between atoms: C_6  and  C_7
REMARK    2  A    between atoms: C_10  and  S_13
REMARK    3  A    between atoms: N_11  and  N_12
REMARK    4  A    between atoms: S_13  and  C_14
REMARK    5  A    between atoms: C_14  and  C_15
REMARK    6  A    between atoms: N_17  and  C_18
REMARK                            x       y       z     vdW  Elec       q    Type
REMARK                         _______ _______ _______ _____ _____    ______ ____
ROOT
ATOM      1  C   UNL     1      10.546  -2.729   5.773  0.00  0.00    +0.069 A 
ATOM      2  C   UNL     1      10.390  -4.057   6.036  0.00  0.00    +0.031 A 
ATOM      3  C   UNL     1       9.105  -4.424   5.607  0.00  0.00    +0.036 A 
ATOM      4  C   UNL     1       8.511  -3.317   5.085  0.00  0.00    +0.095 A 
ATOM      5  N   UNL     1       9.385  -2.273   5.186  0.00  0.00    -0.261 N 
ENDROOT
BRANCH   1  11
ATOM      6  C   UNL     1      11.669  -0.527   6.079  0.00  0.00    +0.011 A 
ATOM      7  C   UNL     1      12.793   0.221   6.358  0.00  0.00    +0.020 A 
ATOM      8  C   UNL     1      14.000  -0.407   6.615  0.00  0.00    +0.041 A 
ATOM      9  C   UNL     1      14.086  -1.789   6.600  0.00  0.00    +0.020 A 
ATOM     10  C   UNL     1      12.968  -2.549   6.327  0.00  0.00    +0.011 A 
ATOM     11  C   UNL     1      11.747  -1.922   6.067  0.00  0.00    +0.000 A 
ATOM     12 CL   UNL     1      15.413   0.543   6.958  0.00  0.00    -0.084 Cl
ENDBRANCH   1  11
BRANCH   5  13
ATOM     13  N   UNL     1       9.149  -0.992   4.775  0.00  0.00    -0.297 N 
ATOM     14  H   UNL     1       8.185  -0.730   4.316  0.00  0.00    +0.163 HD
ATOM     15  H   UNL     1       9.925  -0.221   4.903  0.00  0.00    +0.163 HD
ENDBRANCH   5  13
BRANCH   4  16
ATOM     16  S   UNL     1       6.888  -3.241   4.403  0.00  0.00    -0.097 S 
BRANCH  16  17
ATOM     17  C   UNL     1       6.703  -1.508   3.901  0.00  0.00    +0.171 C 
BRANCH  17  18
ATOM     18  C   UNL     1       5.340  -1.304   3.293  0.00  0.00    +0.227 C 
ATOM     19  O   UNL     1       4.568  -2.236   3.207  0.00  0.00    -0.275 OA
ATOM     20  N   UNL     1       4.977  -0.085   2.846  0.00  0.00    -0.285 N 
ATOM     21  H   UNL     1       5.704   0.740   2.848  0.00  0.00    +0.155 HD
BRANCH  20  22
ATOM     22  C   UNL     1       3.674   0.130   2.378  0.00  0.00    +0.037 A 
ATOM     23  C   UNL     1       2.611  -0.563   2.940  0.00  0.00    +0.027 A 
ATOM     24  C   UNL     1       1.325  -0.352   2.480  0.00  0.00    +0.051 A 
ATOM     25  C   UNL     1       1.094   0.552   1.456  0.00  0.00    +0.166 A 
ATOM     26  C   UNL     1       2.158   1.249   0.889  0.00  0.00    +0.168 A 
ATOM     27  C   UNL     1       3.446   1.036   1.352  0.00  0.00    +0.072 A 
ATOM     28  O   UNL     1       1.672   2.068  -0.088  0.00  0.00    -0.453 OA
ATOM     29  C   UNL     1       0.258   2.169   0.162  0.00  0.00    +0.466 C 
ATOM     30  O   UNL     1      -0.060   0.935   0.832  0.00  0.00    -0.453 OA
ENDBRANCH  20  22
ENDBRANCH  17  18
ENDBRANCH  16  17
ENDBRANCH   4  16
TORSDOF 6
