REMARK  Name = ZINC02280777
REMARK  11 active torsions:
REMARK  status: ('A' for Active; 'I' for Inactive)
REMARK    1  A    between atoms: C_1  and  C_2
REMARK    2  A    between atoms: C_5  and  S_8
REMARK    3  A    between atoms: S_8  and  N_11
REMARK    4  A    between atoms: N_11  and  C_12
REMARK    5  A    between atoms: C_14  and  O_31
REMARK    6  A    between atoms: C_15  and  O_29
REMARK    7  A    between atoms: C_17  and  C_18
REMARK    8  A    between atoms: C_18  and  C_20
REMARK    9  A    between atoms: C_18  and  O_28
REMARK   10  A    between atoms: O_29  and  C_30
REMARK   11  A    between atoms: O_31  and  C_32
REMARK                            x       y       z     vdW  Elec       q    Type
REMARK                         _______ _______ _______ _____ _____    ______ ____
ROOT
ATOM      1  C   UNL     1      -1.032   3.056  -0.176  0.00  0.00    +0.058 A 
ATOM      2  C   UNL     1       0.242   3.568  -0.388  0.00  0.00    +0.074 A 
ATOM      3  C   UNL     1       1.268   2.728  -0.785  0.00  0.00    +0.163 A 
ATOM      4  C   UNL     1       1.021   1.371  -0.972  0.00  0.00    +0.162 A 
ATOM      5  C   UNL     1      -0.250   0.863  -0.760  0.00  0.00    +0.057 A 
ATOM      6  C   UNL     1      -1.276   1.703  -0.369  0.00  0.00    +0.011 A 
ENDROOT
BRANCH   1   7
ATOM      7  N   UNL     1      -2.070   3.904   0.226  0.00  0.00    -0.216 N 
ATOM      8  H   UNL     1      -2.749   3.582   0.838  0.00  0.00    +0.174 HD
BRANCH   7   9
ATOM      9  S   UNL     1      -2.138   5.457  -0.345  0.00  0.00    +0.072 S 
ATOM     10  O   UNL     1      -3.354   6.013   0.135  0.00  0.00    -0.150 OA
ATOM     11  O   UNL     1      -0.872   6.045  -0.075  0.00  0.00    -0.150 OA
BRANCH   9  16
ATOM     12  C   UNL     1      -2.642   5.132  -6.349  0.00  0.00    +0.044 C 
ATOM     13  C   UNL     1      -2.516   5.213  -4.849  0.00  0.00    -0.050 A 
ATOM     14  C   UNL     1      -3.651   5.234  -4.060  0.00  0.00    +0.005 A 
ATOM     15  C   UNL     1      -3.535   5.309  -2.685  0.00  0.00    +0.029 A 
ATOM     16  C   UNL     1      -2.285   5.362  -2.098  0.00  0.00    +0.109 A 
ATOM     17  C   UNL     1      -1.150   5.345  -2.887  0.00  0.00    +0.029 A 
ATOM     18  C   UNL     1      -1.265   5.266  -4.263  0.00  0.00    +0.005 A 
ENDBRANCH   9  16
ENDBRANCH   7   9
ENDBRANCH   1   7
BRANCH   4  19
ATOM     19  O   UNL     1       2.028   0.544  -1.363  0.00  0.00    -0.491 OA
ATOM     20  C   UNL     1       1.704  -0.837  -1.535  0.00  0.00    +0.277 C 
ENDBRANCH   4  19
BRANCH   3  21
ATOM     21  O   UNL     1       2.515   3.228  -0.993  0.00  0.00    -0.491 OA
ATOM     22  C   UNL     1       2.696   4.630  -0.782  0.00  0.00    +0.277 C 
ENDBRANCH   3  21
BRANCH   6  23
ATOM     23  C   UNL     1      -2.659   1.148  -0.145  0.00  0.00    +0.178 C 
BRANCH  23  24
ATOM     24  C   UNL     1      -2.631   0.178   1.007  0.00  0.00    +0.004 A 
ATOM     25  C   UNL     1      -2.456  -1.173   0.769  0.00  0.00    +0.009 A 
ATOM     26  C   UNL     1      -2.430  -2.063   1.826  0.00  0.00    +0.020 A 
ATOM     27  C   UNL     1      -2.579  -1.604   3.123  0.00  0.00    +0.042 A 
ATOM     28  C   UNL     1      -2.754  -0.253   3.361  0.00  0.00    +0.040 A 
ATOM     29  C   UNL     1      -2.775   0.639   2.303  0.00  0.00    +0.048 A 
ATOM     30 CL   UNL     1      -2.989   2.336   2.602  0.00  0.00    -0.083 Cl
ATOM     31 CL   UNL     1      -2.546  -2.723   4.449  0.00  0.00    -0.083 Cl
ENDBRANCH  23  24
BRANCH  23  32
ATOM     32  O   UNL     1      -3.098   0.473  -1.326  0.00  0.00    -0.382 OA
ATOM     33  H   UNL     1      -2.533  -0.266  -1.589  0.00  0.00    +0.211 HD
ENDBRANCH  23  32
ENDBRANCH   6  23
TORSDOF 8
