REMARK  Name = ZINC63913170
REMARK  7 active torsions:
REMARK  status: ('A' for Active; 'I' for Inactive)
REMARK    1  A    between atoms: C_7  and  C_10
REMARK    2  A    between atoms: C_10  and  C_11
REMARK    3  A    between atoms: C_11  and  N_12
REMARK    4  A    between atoms: N_15  and  C_16
REMARK    5  A    between atoms: C_16  and  C_17
REMARK    6  A    between atoms: C_17  and  C_19
REMARK    7  A    between atoms: C_17  and  N_24
REMARK                            x       y       z     vdW  Elec       q    Type
REMARK                         _______ _______ _______ _____ _____    ______ ____
ROOT
ATOM      1  N   UNL     1      -1.081  -4.631  -1.145  0.00  0.00    -0.299 N 
ATOM      2  C   UNL     1      -1.234  -5.218  -2.348  0.00  0.00    +0.300 C 
ATOM      3  O   UNL     1      -0.722  -4.725  -3.334  0.00  0.00    -0.253 OA
ATOM      4  N   UNL     1      -1.954  -6.352  -2.458  0.00  0.00    -0.298 N 
ATOM      5  H   UNL     1      -1.489  -5.024  -0.357  0.00  0.00    +0.150 HD
ATOM      6  H   UNL     1      -2.362  -6.746  -1.671  0.00  0.00    +0.150 HD
ENDROOT
BRANCH   1   7
ATOM      7  C   UNL     1      -0.298  -3.398  -1.025  0.00  0.00    +0.110 C 
BRANCH   7   8
ATOM      8  C   UNL     1      -0.282  -2.944   0.436  0.00  0.00    +0.052 C 
BRANCH   8  15
ATOM      9  C   UNL     1      -1.463   1.490   0.442  0.00  0.00    +0.001 A 
ATOM     10  C   UNL     1      -0.374   2.361   0.582  0.00  0.00    +0.002 A 
ATOM     11  C   UNL     1       0.897   1.926   0.704  0.00  0.00    +0.026 A 
ATOM     12  C   UNL     1       1.184   0.533   0.693  0.00  0.00    +0.043 A 
ATOM     13  N   UNL     1       2.313  -0.127   0.792  0.00  0.00    -0.380 N 
ATOM     14  C   UNL     1       2.023  -1.563   0.720  0.00  0.00    +0.144 C 
ATOM     15  C   UNL     1       0.523  -1.676   0.559  0.00  0.00    -0.040 C 
ATOM     16  C   UNL     1       0.051  -0.409   0.546  0.00  0.00    -0.001 A 
ATOM     17  C   UNL     1      -1.301   0.147   0.420  0.00  0.00    +0.010 A 
ATOM     18  H   UNL     1       3.192   0.268   0.896  0.00  0.00    +0.160 HD
ENDBRANCH   8  15
ENDBRANCH   7   8
ENDBRANCH   1   7
BRANCH   4  19
ATOM     19  C   UNL     1      -2.120  -6.991  -3.766  0.00  0.00    +0.130 C 
BRANCH  19  20
ATOM     20  C   UNL     1      -2.890  -8.302  -3.599  0.00  0.00    +0.111 C 
BRANCH  20  21
ATOM     21  N   UNL     1      -2.216  -9.142  -2.599  0.00  0.00    -0.289 NA
ATOM     22  C   UNL     1      -0.825  -9.412  -2.989  0.00  0.00    +0.113 C 
ATOM     23  C   UNL     1      -0.144 -10.237  -1.894  0.00  0.00    +0.175 C 
ATOM     24  O   UNL     1      -0.889 -11.439  -1.678  0.00  0.00    -0.377 OA
ATOM     25  C   UNL     1      -2.249 -11.213  -1.296  0.00  0.00    +0.175 C 
ATOM     26  C   UNL     1      -2.950 -10.398  -2.385  0.00  0.00    +0.113 C 
ENDBRANCH  20  21
BRANCH  20  27
ATOM     27  C   UNL     1      -4.295  -8.006  -3.141  0.00  0.00    +0.008 A 
ATOM     28  C   UNL     1      -5.439  -7.966  -3.868  0.00  0.00    +0.013 A 
ATOM     29  C   UNL     1      -6.628  -7.669  -3.229  0.00  0.00    +0.008 A 
ATOM     30  C   UNL     1      -6.616  -7.427  -1.895  0.00  0.00    +0.045 A 
ATOM     31  S   UNL     1      -4.886  -7.623  -1.501  0.00  0.00    -0.100 S 
ENDBRANCH  20  27
ENDBRANCH  19  20
ENDBRANCH   4  19
TORSDOF 7
