REMARK  Name = ZINC12646238
REMARK  8 active torsions:
REMARK  status: ('A' for Active; 'I' for Inactive)
REMARK    1  A    between atoms: C_1  and  C_2
REMARK    2  A    between atoms: C_2  and  N_61
REMARK    3  A    between atoms: C_6  and  C_8
REMARK    4  A    between atoms: C_8  and  N_9
REMARK    5  A    between atoms: N_9  and  C_10
REMARK    6  A    between atoms: C_10  and  C_11
REMARK    7  A    between atoms: C_17  and  C_23
REMARK    8  A    between atoms: N_26  and  C_27
REMARK                            x       y       z     vdW  Elec       q    Type
REMARK                         _______ _______ _______ _____ _____    ______ ____
ROOT
ATOM      1  N   UNL     1       3.113   0.668  -1.072  0.00  0.00    -0.282 N 
ATOM      2  C   UNL     1       4.195   1.338  -1.515  0.00  0.00    +0.307 C 
ATOM      3  O   UNL     1       4.748   2.146  -0.793  0.00  0.00    -0.252 OA
ATOM      4  N   UNL     1       4.665   1.114  -2.758  0.00  0.00    -0.269 N 
ATOM      5  H   UNL     1       4.273   0.415  -3.305  0.00  0.00    +0.156 HD
ENDROOT
BRANCH   4   6
ATOM      6  C   UNL     1       5.718   1.888  -3.259  0.00  0.00    +0.035 A 
ATOM      7  C   UNL     1       5.835   3.222  -2.893  0.00  0.00    +0.025 A 
ATOM      8  C   UNL     1       6.879   3.982  -3.385  0.00  0.00    +0.022 A 
ATOM      9  C   UNL     1       7.800   3.418  -4.250  0.00  0.00    +0.041 A 
ATOM     10  C   UNL     1       7.682   2.090  -4.620  0.00  0.00    +0.022 A 
ATOM     11  C   UNL     1       6.644   1.324  -4.126  0.00  0.00    +0.025 A 
ATOM     12 CL   UNL     1       9.106   4.379  -4.871  0.00  0.00    -0.084 Cl
ENDBRANCH   4   6
BRANCH   1  13
ATOM     13  C   UNL     1       2.447  -0.304  -1.942  0.00  0.00    +0.094 C 
BRANCH  13  17
ATOM     14  C   UNL     1       4.721  -3.111  -2.392  0.00  0.00    -0.078 C 
ATOM     15  C   UNL     1       3.530  -3.372  -3.347  0.00  0.00    -0.020 C 
ATOM     16  C   UNL     1       2.339  -2.728  -2.599  0.00  0.00    -0.016 C 
ATOM     17  C   UNL     1       2.974  -1.707  -1.636  0.00  0.00    -0.051 C 
ATOM     18  N   UNL     1       4.417  -1.768  -1.868  0.00  0.00    +0.382 N 
ATOM     19  H   UNL     1       4.687  -1.057  -2.558  0.00  0.00    -0.081 HD
BRANCH  18  21
ATOM     20  C   UNL     1       6.663  -1.681  -0.834  0.00  0.00    -0.017 C 
ATOM     21  C   UNL     1       5.161  -1.521  -0.594  0.00  0.00    -0.082 C 
ENDBRANCH  18  21
ENDBRANCH  13  17
ENDBRANCH   1  13
BRANCH   1  22
ATOM     22  C   UNL     1       2.602   0.913   0.279  0.00  0.00    +0.149 C 
BRANCH  22  23
ATOM     23  C   UNL     1       1.485   1.922   0.219  0.00  0.00    +0.035 A 
ATOM     24  C   UNL     1       0.196   1.502   0.182  0.00  0.00    +0.020 A 
ATOM     25  C   UNL     1      -0.866   2.508   0.118  0.00  0.00    -0.001 A 
ATOM     26  C   UNL     1      -2.214   2.136   0.084  0.00  0.00    +0.010 A 
ATOM     27  C   UNL     1      -3.181   3.099   0.030  0.00  0.00    +0.001 A 
ATOM     28  C   UNL     1      -2.838   4.444   0.015  0.00  0.00    +0.005 A 
ATOM     29  C   UNL     1      -1.517   4.834   0.053  0.00  0.00    -0.026 A 
ATOM     30  C   UNL     1      -0.515   3.871   0.108  0.00  0.00    +0.052 A 
ATOM     31  N   UNL     1       0.815   4.232   0.148  0.00  0.00    -0.322 N 
ATOM     32  H   UNL     1       1.055   5.172   0.137  0.00  0.00    +0.169 HD
ATOM     33  C   UNL     1       1.784   3.301   0.201  0.00  0.00    +0.254 A 
ATOM     34  O   UNL     1       2.949   3.657   0.234  0.00  0.00    -0.268 OA
ATOM     35  C   UNL     1      -1.160   6.298   0.035  0.00  0.00    +0.046 C 
ENDBRANCH  22  23
ENDBRANCH   1  22
TORSDOF 6
