REMARK  Name = ZINC09331345
REMARK  5 active torsions:
REMARK  status: ('A' for Active; 'I' for Inactive)
REMARK    1  A    between atoms: C_1  and  C_2
REMARK    2  A    between atoms: C_5  and  C_8
REMARK    3  A    between atoms: C_8  and  C_10
REMARK    4  A    between atoms: C_12  and  C_29
REMARK    5  A    between atoms: C_32  and  N_35
REMARK                            x       y       z     vdW  Elec       q    Type
REMARK                         _______ _______ _______ _____ _____    ______ ____
ROOT
ATOM      1  C   UNL     1      -0.449  -0.290   0.040  0.00  0.00    +0.069 C 
ATOM      2  C   UNL     1       0.151  -0.550   1.439  0.00  0.00    +0.016 C 
ATOM      3  C   UNL     1       1.667  -0.341   1.237  0.00  0.00    -0.047 C 
ATOM      4  C   UNL     1       1.983   1.148   1.567  0.00  0.00    +0.052 C 
ATOM      5  S   UNL     1       3.471   1.370   0.493  0.00  0.00    -0.181 S 
ATOM      6  C   UNL     1       2.987   0.176  -0.825  0.00  0.00    -0.005 C 
ATOM      7  C   UNL     1       0.691  -0.622  -0.931  0.00  0.00    +0.052 C 
ATOM      8  C   UNL     1       0.446  -1.944  -1.609  0.00  0.00    -0.027 A 
ATOM      9  C   UNL     1       0.301  -3.231  -1.142  0.00  0.00    +0.004 A 
ATOM     10  C   UNL     1       0.082  -4.269  -2.030  0.00  0.00    +0.000 A 
ATOM     11  C   UNL     1       0.009  -4.010  -3.387  0.00  0.00    +0.002 A 
ATOM     12  C   UNL     1       0.154  -2.721  -3.859  0.00  0.00    +0.023 A 
ATOM     13  C   UNL     1       0.374  -1.671  -2.970  0.00  0.00    +0.036 A 
ATOM     14  N   UNL     1       0.550  -0.305  -3.199  0.00  0.00    -0.286 N 
ATOM     15  C   UNL     1       0.740   0.381  -2.056  0.00  0.00    +0.212 C 
ATOM     16  O   UNL     1       0.918   1.576  -1.952  0.00  0.00    -0.277 OA
ATOM     17  H   UNL     1       0.536   0.103  -4.078  0.00  0.00    +0.155 HD
ATOM     18  N   UNL     1       1.941  -0.702  -0.182  0.00  0.00    +0.401 N 
ATOM     19  H   UNL     1       2.281  -1.670  -0.208  0.00  0.00    -0.078 HD
ENDROOT
BRANCH   2  20
ATOM     20  C   UNL     1      -0.390   0.439   2.439  0.00  0.00    -0.045 A 
ATOM     21  C   UNL     1      -0.843   0.001   3.670  0.00  0.00    +0.006 A 
ATOM     22  C   UNL     1      -1.335   0.909   4.589  0.00  0.00    +0.033 A 
ATOM     23  C   UNL     1      -1.383   2.254   4.274  0.00  0.00    +0.126 A 
ATOM     24  C   UNL     1      -0.936   2.692   3.041  0.00  0.00    +0.033 A 
ATOM     25  C   UNL     1      -0.439   1.784   2.124  0.00  0.00    +0.006 A 
BRANCH  23  26
ATOM     26  N   UNL     1      -1.915   3.225   5.256  0.00  0.00    +0.056 N 
ATOM     27  O   UNL     1      -1.958   4.410   4.978  0.00  0.00    -0.126 OA
ATOM     28  O   UNL     1      -2.309   2.840   6.342  0.00  0.00    -0.126 OA
ENDBRANCH  23  26
ENDBRANCH   2  20
BRANCH   1  29
ATOM     29  C   UNL     1      -0.855   1.155  -0.099  0.00  0.00    +0.166 C 
ATOM     30  O   UNL     1      -0.029   1.990  -0.402  0.00  0.00    -0.292 OA
BRANCH  29  35
ATOM     31  C   UNL     1      -6.319   2.705   0.788  0.00  0.00    +0.044 C 
ATOM     32  C   UNL     1      -4.887   2.299   0.555  0.00  0.00    -0.050 A 
ATOM     33  C   UNL     1      -3.947   3.255   0.214  0.00  0.00    +0.004 A 
ATOM     34  C   UNL     1      -2.634   2.892   0.000  0.00  0.00    +0.011 A 
ATOM     35  C   UNL     1      -2.254   1.552   0.128  0.00  0.00    +0.018 A 
ATOM     36  C   UNL     1      -3.211   0.590   0.467  0.00  0.00    +0.011 A 
ATOM     37  C   UNL     1      -4.519   0.971   0.683  0.00  0.00    +0.004 A 
ENDBRANCH  29  35
ENDBRANCH   1  29
TORSDOF 4
