REMARK  Name = ZINC42356105
REMARK  11 active torsions:
REMARK  status: ('A' for Active; 'I' for Inactive)
REMARK    1  A    between atoms: C_1  and  C_2
REMARK    2  A    between atoms: C_2  and  C_4
REMARK    3  A    between atoms: C_2  and  N_14
REMARK    4  A    between atoms: C_6  and  O_12
REMARK    5  A    between atoms: C_9  and  O_10
REMARK    6  A    between atoms: O_10  and  C_11
REMARK    7  A    between atoms: O_12  and  C_13
REMARK    8  A    between atoms: C_15  and  C_17
REMARK    9  A    between atoms: C_17  and  C_19
REMARK   10  A    between atoms: C_17  and  N_20
REMARK   11  A    between atoms: C_24  and  C_26
REMARK                            x       y       z     vdW  Elec       q    Type
REMARK                         _______ _______ _______ _____ _____    ______ ____
ROOT
ATOM      1  N   UNL     1      -0.530  -0.547  -0.791  0.00  0.00    -0.310 N 
ATOM      2  C   UNL     1      -0.931  -0.658  -2.073  0.00  0.00    +0.200 C 
ATOM      3  O   UNL     1      -2.054  -0.328  -2.388  0.00  0.00    -0.278 OA
ATOM      4  H   UNL     1       0.369  -0.812  -0.540  0.00  0.00    +0.149 HD
ENDROOT
BRANCH   1   6
ATOM      5  C   UNL     1      -1.395   1.502   0.225  0.00  0.00    +0.033 C 
ATOM      6  C   UNL     1      -1.451  -0.027   0.222  0.00  0.00    +0.104 C 
BRANCH   6   7
ATOM      7  C   UNL     1      -1.052  -0.548   1.579  0.00  0.00    +0.018 A 
ATOM      8  C   UNL     1       0.257  -0.920   1.818  0.00  0.00    +0.054 A 
ATOM      9  C   UNL     1       0.624  -1.399   3.067  0.00  0.00    +0.121 A 
ATOM     10  C   UNL     1      -0.323  -1.504   4.075  0.00  0.00    +0.049 A 
ATOM     11  C   UNL     1      -1.631  -1.131   3.836  0.00  0.00    +0.049 A 
ATOM     12  C   UNL     1      -1.997  -0.647   2.588  0.00  0.00    +0.125 A 
BRANCH  12  13
ATOM     13  O   UNL     1      -3.284  -0.276   2.354  0.00  0.00    -0.495 OA
ATOM     14  C   UNL     1      -4.205  -0.405   3.440  0.00  0.00    +0.277 C 
ENDBRANCH  12  13
BRANCH   9  15
ATOM     15  O   UNL     1       1.912  -1.766   3.302  0.00  0.00    -0.495 OA
ATOM     16  C   UNL     1       2.220  -2.250   4.611  0.00  0.00    +0.277 C 
ENDBRANCH   9  15
ENDBRANCH   6   7
ENDBRANCH   1   6
BRANCH   2  17
ATOM     17  C   UNL     1       0.017  -1.194  -3.115  0.00  0.00    +0.017 C 
ATOM     18  C   UNL     1       0.442  -2.614  -2.737  0.00  0.00    -0.004 C 
BRANCH  17  19
ATOM     19  N   UNL     1      -0.654  -1.215  -4.422  0.00  0.00    +0.392 N 
ATOM     20  C   UNL     1       0.203  -1.905  -5.410  0.00  0.00    -0.077 C 
ATOM     21  C   UNL     1      -0.025  -1.137  -6.736  0.00  0.00    -0.020 C 
ATOM     22  C   UNL     1      -0.154   0.325  -6.234  0.00  0.00    -0.012 C 
ATOM     23  C   UNL     1      -0.885   0.166  -4.884  0.00  0.00    -0.030 C 
ATOM     24  H   UNL     1      -1.536  -1.700  -4.344  0.00  0.00    -0.080 HD
BRANCH  23  25
ATOM     25  C   UNL     1      -0.328   1.142  -3.881  0.00  0.00    -0.024 A 
ATOM     26  C   UNL     1      -0.987   2.027  -3.094  0.00  0.00    +0.009 A 
ATOM     27  C   UNL     1      -0.261   2.833  -2.237  0.00  0.00    +0.008 A 
ATOM     28  C   UNL     1       1.089   2.713  -2.209  0.00  0.00    +0.045 A 
ATOM     29  S   UNL     1       1.372   1.427  -3.414  0.00  0.00    -0.103 S 
ENDBRANCH  23  25
ENDBRANCH  17  19
ENDBRANCH   2  17
TORSDOF 7
