REMARK  Name = ZINC07371371
REMARK  13 active torsions:
REMARK  status: ('A' for Active; 'I' for Inactive)
REMARK    1  A    between atoms: C_1  and  C_2
REMARK    2  A    between atoms: C_3  and  C_28
REMARK    3  A    between atoms: C_4  and  C_27
REMARK    4  A    between atoms: C_7  and  C_8
REMARK    5  A    between atoms: C_8  and  C_10
REMARK    6  A    between atoms: C_10  and  C_12
REMARK    7  A    between atoms: C_10  and  O_13
REMARK    8  A    between atoms: O_13  and  C_14
REMARK    9  A    between atoms: C_14  and  C_16
REMARK   10  A    between atoms: C_18  and  N_24
REMARK   11  A    between atoms: C_21  and  N_22
REMARK   12  A    between atoms: N_22  and  C_23
REMARK   13  A    between atoms: C_28  and  C_30
REMARK                            x       y       z     vdW  Elec       q    Type
REMARK                         _______ _______ _______ _____ _____    ______ ____
ROOT
ATOM      1  C   UNL     1       0.113  -1.463   3.666  0.00  0.00    +0.246 C 
ATOM      2  C   UNL     1       1.532  -1.998   3.868  0.00  0.00    +0.061 C 
ENDROOT
BRANCH   1   3
ATOM      3  C   UNL     1       0.121  -0.417   2.582  0.00  0.00    +0.219 C 
ATOM      4  O   UNL     1       0.119   0.761   2.874  0.00  0.00    -0.287 OA
BRANCH   3  11
ATOM      5  C   UNL     1       0.136   1.546   0.173  0.00  0.00    +0.047 C 
ATOM      6  C   UNL     1       0.136   0.040   0.136  0.00  0.00    -0.012 A 
ATOM      7  C   UNL     1       0.149  -0.774  -1.019  0.00  0.00    +0.041 A 
ATOM      8  C   UNL     1       0.144  -2.093  -0.589  0.00  0.00    +0.024 A 
ATOM      9  N   UNL     1       0.128  -2.106   0.751  0.00  0.00    -0.355 N 
ATOM     10  H   UNL     1       0.121  -2.903   1.304  0.00  0.00    +0.166 HD
ATOM     11  C   UNL     1       0.129  -0.808   1.221  0.00  0.00    +0.090 A 
ATOM     12  C   UNL     1       0.154  -3.309  -1.480  0.00  0.00    +0.064 C 
BRANCH   7  13
ATOM     13  C   UNL     1       0.165  -0.312  -2.411  0.00  0.00    +0.162 C 
ATOM     14  O   UNL     1      -0.875  -0.207  -3.027  0.00  0.00    -0.292 OA
ATOM     15  C   UNL     1       1.473   0.032  -3.076  0.00  0.00    +0.091 C 
ENDBRANCH   7  13
ENDBRANCH   3  11
ENDBRANCH   1   3
BRANCH   1  16
ATOM     16  O   UNL     1      -0.354  -0.882   4.885  0.00  0.00    -0.450 OA
BRANCH  16  17
ATOM     17  C   UNL     1      -1.003  -1.696   5.742  0.00  0.00    +0.342 C 
ATOM     18  O   UNL     1      -1.167  -2.867   5.461  0.00  0.00    -0.245 OA
BRANCH  17  19
ATOM     19  C   UNL     1      -1.514  -1.166   7.018  0.00  0.00    +0.082 A 
ATOM     20  C   UNL     1      -1.437   0.202   7.292  0.00  0.00    +0.049 A 
ATOM     21  C   UNL     1      -1.916   0.691   8.487  0.00  0.00    +0.127 A 
ATOM     22  C   UNL     1      -2.475  -0.167   9.422  0.00  0.00    +0.034 A 
ATOM     23  C   UNL     1      -2.557  -1.520   9.166  0.00  0.00    +0.026 A 
ATOM     24  C   UNL     1      -2.085  -2.032   7.964  0.00  0.00    +0.041 A 
BRANCH  24  25
ATOM     25  N   UNL     1      -2.172  -3.393   7.702  0.00  0.00    -0.346 N 
ATOM     26  C   UNL     1      -2.653  -4.309   8.739  0.00  0.00    +0.125 C 
ATOM     27  H   UNL     1      -1.915  -3.737   6.832  0.00  0.00    +0.146 HD
ENDBRANCH  24  25
BRANCH  21  28
ATOM     28  N   UNL     1      -1.834   2.141   8.775  0.00  0.00    +0.056 N 
ATOM     29  O   UNL     1      -1.347   2.892   7.963  0.00  0.00    -0.126 OA
ATOM     30  O   UNL     1      -2.254   2.573   9.823  0.00  0.00    -0.126 OA
ENDBRANCH  21  28
ENDBRANCH  17  19
ENDBRANCH  16  17
ENDBRANCH   1  16
TORSDOF 8
