REMARK  Name = ZINC33379395
REMARK  8 active torsions:
REMARK  status: ('A' for Active; 'I' for Inactive)
REMARK    1  A    between atoms: C_2  and  C_3
REMARK    2  A    between atoms: C_3  and  N_4
REMARK    3  A    between atoms: C_7  and  C_22
REMARK    4  A    between atoms: N_11  and  C_12
REMARK    5  A    between atoms: C_15  and  S_18
REMARK    6  A    between atoms: S_18  and  N_21
REMARK    7  A    between atoms: C_22  and  C_23
REMARK    8  A    between atoms: N_25  and  C_26
REMARK                            x       y       z     vdW  Elec       q    Type
REMARK                         _______ _______ _______ _____ _____    ______ ____
ROOT
ATOM      1  N   UNL     1      -7.837  -2.994  -0.917  0.00  0.00    -0.246 N 
ATOM      2  C   UNL     1      -8.823  -2.753  -1.764  0.00  0.00    +0.235 C 
ATOM      3  O   UNL     1      -9.769  -3.502  -1.881  0.00  0.00    -0.274 OA
ATOM      4  C   UNL     1      -8.696  -1.477  -2.581  0.00  0.00    +0.149 C 
ATOM      5  S   UNL     1      -7.103  -0.829  -1.936  0.00  0.00    -0.077 S 
ATOM      6  C   UNL     1      -6.759  -2.145  -0.778  0.00  0.00    +0.164 C 
ATOM      7  N   UNL     1      -5.725  -2.272   0.020  0.00  0.00    -0.226 NA
ENDROOT
BRANCH   7   8
ATOM      8  C   UNL     1      -4.740  -1.320   0.022  0.00  0.00    +0.067 A 
ATOM      9  C   UNL     1      -4.231  -0.839   1.230  0.00  0.00    +0.030 A 
ATOM     10  C   UNL     1      -3.239   0.119   1.224  0.00  0.00    +0.030 A 
ATOM     11  C   UNL     1      -2.748   0.604   0.025  0.00  0.00    +0.105 A 
ATOM     12  C   UNL     1      -3.252   0.136  -1.176  0.00  0.00    +0.030 A 
ATOM     13  C   UNL     1      -4.241  -0.826  -1.185  0.00  0.00    +0.030 A 
BRANCH  11  14
ATOM     14  S   UNL     1      -1.480   1.827   0.026  0.00  0.00    +0.056 S 
ATOM     15  O   UNL     1      -1.567   2.499   1.276  0.00  0.00    -0.153 OA
ATOM     16  O   UNL     1      -1.575   2.512  -1.215  0.00  0.00    -0.153 OA
BRANCH  14  17
ATOM     17  N   UNL     1      -0.029   1.030   0.017  0.00  0.00    -0.204 NA
ATOM     18  H   UNL     1       0.791   1.762   0.018  0.00  0.00    +0.144 HD
ATOM     19  H   UNL     1       0.039   0.403  -0.885  0.00  0.00    +0.144 HD
ENDBRANCH  14  17
ENDBRANCH  11  14
ENDBRANCH   7   8
BRANCH   1  20
ATOM     20  C   UNL     1      -7.892  -4.206  -0.096  0.00  0.00    +0.142 C 
BRANCH  20  22
ATOM     21  C   UNL     1      -9.641  -4.620   1.557  0.00  0.00    +0.005 C 
ATOM     22  C   UNL     1      -8.604  -3.904   1.198  0.00  0.00    -0.015 C 
ENDBRANCH  20  22
ENDBRANCH   1  20
BRANCH   4  23
ATOM     23  C   UNL     1      -8.613  -1.784  -4.077  0.00  0.00    +0.120 C 
BRANCH  23  24
ATOM     24  C   UNL     1      -8.612  -0.493  -4.856  0.00  0.00    +0.219 C 
ATOM     25  O   UNL     1      -8.673   0.568  -4.271  0.00  0.00    -0.275 OA
ATOM     26  N   UNL     1      -8.545  -0.517  -6.201  0.00  0.00    -0.285 N 
ATOM     27  H   UNL     1      -8.413  -1.474  -6.728  0.00  0.00    +0.155 HD
BRANCH  26  28
ATOM     28  C   UNL     1      -8.642   0.674  -6.929  0.00  0.00    +0.033 A 
ATOM     29  C   UNL     1      -9.274   0.685  -8.165  0.00  0.00    +0.025 A 
ATOM     30  C   UNL     1      -9.373   1.864  -8.878  0.00  0.00    +0.022 A 
ATOM     31  C   UNL     1      -8.833   3.031  -8.367  0.00  0.00    +0.041 A 
ATOM     32  C   UNL     1      -8.197   3.022  -7.138  0.00  0.00    +0.022 A 
ATOM     33  C   UNL     1      -8.101   1.847  -6.418  0.00  0.00    +0.025 A 
ATOM     34 CL   UNL     1      -8.953   4.509  -9.270  0.00  0.00    -0.084 Cl
ENDBRANCH  26  28
ENDBRANCH  23  24
ENDBRANCH   4  23
TORSDOF 8
