REMARK  Name = ZINC03303576
REMARK  9 active torsions:
REMARK  status: ('A' for Active; 'I' for Inactive)
REMARK    1  A    between atoms: C_1  and  C_2
REMARK    2  A    between atoms: C_3  and  C_12
REMARK    3  A    between atoms: C_12  and  C_14
REMARK    4  A    between atoms: C_14  and  S_15
REMARK    5  A    between atoms: S_15  and  C_16
REMARK    6  A    between atoms: C_19  and  C_20
REMARK    7  A    between atoms: N_27  and  C_28
REMARK    8  A    between atoms: C_31  and  O_34
REMARK    9  A    between atoms: O_34  and  C_35
REMARK                            x       y       z     vdW  Elec       q    Type
REMARK                         _______ _______ _______ _____ _____    ______ ____
ROOT
ATOM      1  C   UNL     1       0.417   2.974  -0.042  0.00  0.00    +0.169 C 
ATOM      2  N   UNL     1      -0.887   3.008   0.038  0.00  0.00    -0.220 NA
ATOM      3  C   UNL     1      -1.375   1.734  -0.027  0.00  0.00    +0.132 C 
ATOM      4  C   UNL     1      -2.702   1.347   0.018  0.00  0.00    +0.079 C 
ATOM      5  C   UNL     1      -0.202   0.857  -0.151  0.00  0.00    +0.275 C 
ATOM      6  O   UNL     1      -0.195  -0.359  -0.236  0.00  0.00    -0.268 OA
ATOM      7  N   UNL     1       0.868   1.682  -0.158  0.00  0.00    -0.214 N 
ENDROOT
BRANCH   7   8
ATOM      8  C   UNL     1       2.210   1.287  -0.267  0.00  0.00    +0.044 A 
ATOM      9  C   UNL     1       2.949   1.639  -1.388  0.00  0.00    +0.027 A 
ATOM     10  C   UNL     1       4.271   1.254  -1.492  0.00  0.00    +0.048 A 
ATOM     11  C   UNL     1       4.858   0.507  -0.480  0.00  0.00    +0.127 A 
ATOM     12  C   UNL     1       4.118   0.150   0.638  0.00  0.00    +0.048 A 
ATOM     13  C   UNL     1       2.798   0.539   0.745  0.00  0.00    +0.027 A 
BRANCH  11  14
ATOM     14  O   UNL     1       6.158   0.123  -0.586  0.00  0.00    -0.434 OA
BRANCH  14  15
ATOM     15  C   UNL     1       6.860   0.525  -1.764  0.00  0.00    +0.541 C 
ATOM     16  F   UNL     1       6.220  -0.003  -2.891  0.00  0.00    -0.166 F 
ATOM     17  F   UNL     1       6.872   1.921  -1.846  0.00  0.00    -0.166 F 
ENDBRANCH  14  15
ENDBRANCH  11  14
ENDBRANCH   7   8
BRANCH   4  18
ATOM     18  C   UNL     1      -3.035  -0.020   0.104  0.00  0.00    +0.130 A 
ATOM     19  C   UNL     1      -4.308  -0.555   0.030  0.00  0.00    +0.049 A 
ATOM     20  C   UNL     1      -4.165  -1.944   0.159  0.00  0.00    +0.042 A 
ATOM     21  C   UNL     1      -2.846  -2.199   0.312  0.00  0.00    +0.195 A 
ATOM     22  O   UNL     1      -2.170  -1.041   0.279  0.00  0.00    -0.463 OA
ENDBRANCH   4  18
BRANCH   1  23
ATOM     23  S   UNL     1       1.458   4.396  -0.005  0.00  0.00    -0.082 S 
BRANCH  23  24
ATOM     24  C   UNL     1       0.209   5.695   0.159  0.00  0.00    +0.156 C 
BRANCH  24  25
ATOM     25  C   UNL     1       0.887   7.040   0.212  0.00  0.00    +0.176 C 
ATOM     26  O   UNL     1       2.099   7.108   0.238  0.00  0.00    -0.291 OA
BRANCH  25  29
ATOM     27  C   UNL     1      -0.222   8.485  -2.296  0.00  0.00    +0.064 C 
ATOM     28  C   UNL     1      -0.401   8.898  -0.858  0.00  0.00    +0.024 A 
ATOM     29  C   UNL     1       0.110   8.225   0.231  0.00  0.00    +0.046 A 
ATOM     30  C   UNL     1      -0.320   8.984   1.422  0.00  0.00    +0.010 A 
ATOM     31  C   UNL     1      -0.134   8.820   2.792  0.00  0.00    +0.011 A 
ATOM     32  C   UNL     1      -0.682   9.731   3.668  0.00  0.00    +0.001 A 
ATOM     33  C   UNL     1      -1.416  10.808   3.190  0.00  0.00    +0.002 A 
ATOM     34  C   UNL     1      -1.599  10.986   1.837  0.00  0.00    +0.026 A 
ATOM     35  C   UNL     1      -1.058  10.074   0.936  0.00  0.00    +0.047 A 
ATOM     36  N   UNL     1      -1.085   9.980  -0.441  0.00  0.00    -0.358 N 
ATOM     37  H   UNL     1      -1.535  10.608  -1.028  0.00  0.00    +0.166 HD
ENDBRANCH  25  29
ENDBRANCH  24  25
ENDBRANCH  23  24
ENDBRANCH   1  23
TORSDOF 8
