REMARK  Name = ZINC31996191
REMARK  5 active torsions:
REMARK  status: ('A' for Active; 'I' for Inactive)
REMARK    1  A    between atoms: C_1  and  N_2
REMARK    2  A    between atoms: N_2  and  C_3
REMARK    3  A    between atoms: N_2  and  C_4
REMARK    4  A    between atoms: C_7  and  C_10
REMARK    5  A    between atoms: C_11  and  C_12
REMARK                            x       y       z     vdW  Elec       q    Type
REMARK                         _______ _______ _______ _____ _____    ______ ____
ROOT
ATOM      1  C   UNL     1      -6.071  -4.982   0.029  0.00  0.00    +0.239 C 
ATOM      2  O   UNL     1      -7.130  -4.392   0.135  0.00  0.00    -0.271 OA
ATOM      3  N   UNL     1      -6.056  -6.326  -0.081  0.00  0.00    -0.298 N 
ATOM      4  C   UNL     1      -4.784  -7.061  -0.104  0.00  0.00    +0.108 C 
ATOM      5  C   UNL     1      -4.746  -7.954  -1.342  0.00  0.00    +0.019 C 
ATOM      6  C   UNL     1      -5.989  -8.847  -1.362  0.00  0.00    +0.008 C 
ATOM      7  C   UNL     1      -7.245  -7.976  -1.428  0.00  0.00    -0.029 C 
ATOM      8  C   UNL     1      -7.310  -7.083  -0.186  0.00  0.00    +0.113 C 
ATOM      9  C   UNL     1      -8.486  -8.870  -1.478  0.00  0.00    +0.005 C 
ATOM     10  C   UNL     1      -9.733  -7.990  -1.600  0.00  0.00    -0.019 C 
ATOM     11  C   UNL     1      -9.615  -7.116  -2.850  0.00  0.00    -0.083 C 
ATOM     12  N   UNL     1      -8.412  -6.279  -2.753  0.00  0.00    +0.379 N 
ATOM     13  C   UNL     1      -7.197  -7.102  -2.683  0.00  0.00    -0.074 C 
ATOM     14  H   UNL     1      -8.344  -5.630  -3.638  0.00  0.00    -0.086 HD
ATOM     15  H   UNL     1      -8.468  -5.659  -1.847  0.00  0.00    -0.086 HD
ENDROOT
BRANCH   1  17
ATOM     16  C   UNL     1      -4.833  -2.884   0.022  0.00  0.00    +0.013 C 
ATOM     17  C   UNL     1      -4.815  -4.234   0.020  0.00  0.00    +0.068 C 
BRANCH  16  21
ATOM     18  C   UNL     1      -1.194  -0.715  -0.005  0.00  0.00    +0.029 A 
ATOM     19  C   UNL     1      -1.173  -2.107  -0.013  0.00  0.00    +0.023 A 
ATOM     20  C   UNL     1      -2.348  -2.813   0.002  0.00  0.00    +0.010 A 
ATOM     21  C   UNL     1      -3.571  -2.132   0.013  0.00  0.00    -0.025 A 
ATOM     22  C   UNL     1      -3.588  -0.732   0.016  0.00  0.00    +0.010 A 
ATOM     23  C   UNL     1      -2.408  -0.034   0.007  0.00  0.00    +0.023 A 
BRANCH  18  25
ATOM     24  C   UNL     1      -0.019   1.462  -0.013  0.00  0.00    +0.129 C 
ATOM     25  N   UNL     1       0.001  -0.003  -0.015  0.00  0.00    -0.336 N 
ATOM     26  C   UNL     1       1.280  -0.718  -0.028  0.00  0.00    +0.129 C 
ENDBRANCH  18  25
ENDBRANCH  16  21
ENDBRANCH   1  17
TORSDOF 3
