REMARK  Name = ZINC20465411
REMARK  9 active torsions:
REMARK  status: ('A' for Active; 'I' for Inactive)
REMARK    1  A    between atoms: C_6  and  C_7
REMARK    2  A    between atoms: C_7  and  N_8
REMARK    3  A    between atoms: N_8  and  C_9
REMARK    4  A    between atoms: C_9  and  C_10
REMARK    5  A    between atoms: C_12  and  N_22
REMARK    6  A    between atoms: C_14  and  O_21
REMARK    7  A    between atoms: C_16  and  C_19
REMARK    8  A    between atoms: C_19  and  O_20
REMARK    9  A    between atoms: N_25  and  C_28
REMARK                            x       y       z     vdW  Elec       q    Type
REMARK                         _______ _______ _______ _____ _____    ______ ____
ROOT
ATOM      1  C   UNL     1       4.426  -0.536  -2.927  0.00  0.00    +0.122 C 
ATOM      2  C   UNL     1       5.929  -0.871  -2.991  0.00  0.00    +0.115 C 
ATOM      3  C   UNL     1       6.567   0.389  -3.633  0.00  0.00    +0.165 C 
ATOM      4  C   UNL     1       5.355   1.040  -4.346  0.00  0.00    +0.174 C 
ATOM      5  O   UNL     1       4.260   0.797  -3.438  0.00  0.00    -0.369 OA
ENDROOT
BRANCH   2   6
ATOM      6  N   UNL     1       6.465  -1.089  -1.641  0.00  0.00    -0.292 NA
ATOM      7  C   UNL     1       7.923  -0.909  -1.619  0.00  0.00    +0.104 C 
ATOM      8  C   UNL     1       8.432  -1.066  -0.183  0.00  0.00    +0.120 C 
ATOM      9  N   UNL     1       8.061  -2.395   0.322  0.00  0.00    -0.327 N 
ATOM     10  C   UNL     1       6.603  -2.576   0.299  0.00  0.00    +0.120 C 
ATOM     11  C   UNL     1       6.094  -2.419  -1.136  0.00  0.00    +0.104 C 
BRANCH   9  12
ATOM     12  C   UNL     1       8.572  -2.603   1.607  0.00  0.00    +0.030 A 
ATOM     13  C   UNL     1       7.716  -2.928   2.651  0.00  0.00    +0.026 A 
ATOM     14  C   UNL     1       8.223  -3.137   3.919  0.00  0.00    +0.040 A 
ATOM     15  C   UNL     1       9.582  -3.013   4.151  0.00  0.00    +0.124 A 
ATOM     16  C   UNL     1      10.437  -2.684   3.112  0.00  0.00    +0.040 A 
ATOM     17  C   UNL     1       9.935  -2.479   1.842  0.00  0.00    +0.026 A 
ATOM     18  F   UNL     1      10.076  -3.214   5.392  0.00  0.00    -0.205 F 
ENDBRANCH   9  12
ENDBRANCH   2   6
BRANCH   3  19
ATOM     19  O   UNL     1       7.099   1.260  -2.633  0.00  0.00    -0.388 OA
ATOM     20  H   UNL     1       7.588   2.200  -2.926  0.00  0.00    +0.210 HD
ENDBRANCH   3  19
BRANCH   1  21
ATOM     21  C   UNL     1       3.940  -0.603  -1.478  0.00  0.00    -0.049 C 
BRANCH  21  22
ATOM     22  N   UNL     1       2.588  -0.033  -1.388  0.00  0.00    +0.383 N 
ATOM     23  H   UNL     1       1.918  -0.612  -2.041  0.00  0.00    -0.085 HD
ATOM     24  H   UNL     1       2.623   1.011  -1.730  0.00  0.00    -0.085 HD
BRANCH  22  25
ATOM     25  C   UNL     1       2.088  -0.080  -0.007  0.00  0.00    -0.047 C 
BRANCH  25  31
ATOM     26  C   UNL     1      -0.402  -0.300  -0.138  0.00  0.00    +0.004 A 
ATOM     27  C   UNL     1      -1.672   0.242  -0.095  0.00  0.00    +0.038 A 
ATOM     28  C   UNL     1      -1.839   1.596   0.141  0.00  0.00    +0.123 A 
ATOM     29  C   UNL     1      -0.732   2.407   0.324  0.00  0.00    +0.038 A 
ATOM     30  C   UNL     1       0.538   1.864   0.276  0.00  0.00    +0.004 A 
ATOM     31  C   UNL     1       0.703   0.511   0.045  0.00  0.00    -0.064 A 
ATOM     32  F   UNL     1      -3.081   2.126   0.188  0.00  0.00    -0.205 F 
ENDBRANCH  25  31
ENDBRANCH  22  25
ENDBRANCH  21  22
ENDBRANCH   1  21
BRANCH   4  33
ATOM     33  C   UNL     1       5.578   2.542  -4.532  0.00  0.00    +0.190 C 
BRANCH  33  34
ATOM     34  O   UNL     1       4.452   3.111  -5.203  0.00  0.00    -0.392 OA
ATOM     35  H   UNL     1       4.432   4.189  -5.425  0.00  0.00    +0.210 HD
ENDBRANCH  33  34
ENDBRANCH   4  33
TORSDOF 9
