REMARK  Name = ZINC57850254
REMARK  11 active torsions:
REMARK  status: ('A' for Active; 'I' for Inactive)
REMARK    1  A    between atoms: C_1  and  C_2
REMARK    2  A    between atoms: C_2  and  C_3
REMARK    3  A    between atoms: C_3  and  C_4
REMARK    4  A    between atoms: C_3  and  C_6
REMARK    5  A    between atoms: C_3  and  N_23
REMARK    6  A    between atoms: C_4  and  C_5
REMARK    7  A    between atoms: C_6  and  N_7
REMARK    8  A    between atoms: C_10  and  C_14
REMARK    9  A    between atoms: C_10  and  C_15
REMARK   10  A    between atoms: C_18  and  C_22
REMARK   11  A    between atoms: C_20  and  C_21
REMARK                            x       y       z     vdW  Elec       q    Type
REMARK                         _______ _______ _______ _____ _____    ______ ____
ROOT
ATOM      1  N   UNL     1       1.670  -2.639   1.950  0.00  0.00    -0.225 N 
ATOM      2  C   UNL     1       2.991  -2.897   1.900  0.00  0.00    +0.251 C 
ATOM      3  O   UNL     1       3.690  -2.951   0.910  0.00  0.00    -0.272 OA
ATOM      4  C   UNL     1       3.423  -3.105   3.338  0.00  0.00    +0.135 C 
ATOM      5  N   UNL     1       2.178  -2.922   4.103  0.00  0.00    -0.281 N 
ATOM      6  C   UNL     1       1.212  -2.649   3.207  0.00  0.00    +0.310 C 
ATOM      7  O   UNL     1       0.053  -2.439   3.506  0.00  0.00    -0.252 OA
ATOM      8  C   UNL     1       4.463  -2.058   3.744  0.00  0.00    +0.047 C 
ATOM      9  H   UNL     1       2.074  -2.984   5.066  0.00  0.00    +0.152 HD
ENDROOT
BRANCH   4  10
ATOM     10  C   UNL     1       3.966  -4.497   3.533  0.00  0.00    -0.013 A 
ATOM     11  C   UNL     1       5.218  -4.679   4.089  0.00  0.00    +0.007 A 
ATOM     12  C   UNL     1       5.716  -5.956   4.268  0.00  0.00    +0.004 A 
ATOM     13  C   UNL     1       4.961  -7.051   3.891  0.00  0.00    -0.050 A 
ATOM     14  C   UNL     1       3.709  -6.869   3.335  0.00  0.00    +0.007 A 
ATOM     15  C   UNL     1       3.209  -5.592   3.160  0.00  0.00    -0.045 A 
ATOM     16  C   UNL     1       1.841  -5.394   2.560  0.00  0.00    +0.044 C 
ATOM     17  C   UNL     1       5.505  -8.444   4.085  0.00  0.00    +0.044 C 
ENDBRANCH   4  10
BRANCH   1  18
ATOM     18  C   UNL     1       0.838  -2.373   0.773  0.00  0.00    +0.105 C 
BRANCH  18  19
ATOM     19  C   UNL     1       0.834  -0.871   0.480  0.00  0.00    -0.055 C 
BRANCH  19  20
ATOM     20  N   UNL     1       2.208  -0.419   0.221  0.00  0.00    +0.383 N 
ATOM     21  H   UNL     1       2.205   0.571   0.028  0.00  0.00    -0.089 HD
ATOM     22  H   UNL     1       2.781  -0.602   1.031  0.00  0.00    -0.089 HD
ATOM     23  H   UNL     1       2.581  -0.916  -0.574  0.00  0.00    -0.089 HD
ENDBRANCH  19  20
BRANCH  19  25
ATOM     24  C   UNL     1       0.061   0.888  -1.116  0.00  0.00    +0.002 C 
ATOM     25  C   UNL     1      -0.034  -0.594  -0.749  0.00  0.00    -0.015 C 
ENDBRANCH  19  25
BRANCH  19  26
ATOM     26  C   UNL     1       0.268  -0.118   1.685  0.00  0.00    -0.015 C 
ATOM     27  C   UNL     1      -1.162  -0.589   1.955  0.00  0.00    +0.002 C 
ENDBRANCH  19  26
ENDBRANCH  18  19
ENDBRANCH   1  18
TORSDOF 6
