REMARK  Name = ZINC40815134
REMARK  8 active torsions:
REMARK  status: ('A' for Active; 'I' for Inactive)
REMARK    1  A    between atoms: C_1  and  C_2
REMARK    2  A    between atoms: C_5  and  S_8
REMARK    3  A    between atoms: S_8  and  N_11
REMARK    4  A    between atoms: N_11  and  N_12
REMARK    5  A    between atoms: C_19  and  C_32
REMARK    6  A    between atoms: C_20  and  C_22
REMARK    7  A    between atoms: N_24  and  N_25
REMARK    8  A    between atoms: N_28  and  C_31
REMARK                            x       y       z     vdW  Elec       q    Type
REMARK                         _______ _______ _______ _____ _____    ______ ____
ROOT
ATOM      1  N   UNL     1       2.500  -4.622   1.014  0.00  0.00    -0.170 NA
ATOM      2  C   UNL     1       3.744  -4.989   1.005  0.00  0.00    +0.071 C 
ATOM      3  C   UNL     1       4.340  -5.825  -0.118  0.00  0.00    +0.058 C 
ATOM      4  C   UNL     1       5.247  -6.891   0.506  0.00  0.00    +0.014 C 
ATOM      5  C   UNL     1       6.436  -6.239   1.218  0.00  0.00    +0.075 C 
ATOM      6  C   UNL     1       5.932  -5.200   2.187  0.00  0.00    +0.115 A 
ATOM      7  C   UNL     1       4.689  -4.621   2.084  0.00  0.00    +0.042 A 
ATOM      8  C   UNL     1       4.560  -3.708   3.138  0.00  0.00    +0.009 A 
ATOM      9  C   UNL     1       5.734  -3.762   3.836  0.00  0.00    +0.194 A 
ATOM     10  O   UNL     1       6.544  -4.676   3.247  0.00  0.00    -0.454 OA
ATOM     11  C   UNL     1       3.366  -2.840   3.441  0.00  0.00    +0.048 C 
ENDROOT
BRANCH   9  12
ATOM     12  C   UNL     1       6.058  -2.974   5.031  0.00  0.00    +0.293 C 
ATOM     13  O   UNL     1       5.245  -2.189   5.480  0.00  0.00    -0.265 OA
ATOM     14  N   UNL     1       7.256  -3.120   5.630  0.00  0.00    -0.242 N 
ATOM     15  H   UNL     1       7.904  -3.747   5.272  0.00  0.00    +0.170 HD
BRANCH  14  16
ATOM     16  N   UNL     1       7.558  -2.387   6.742  0.00  0.00    -0.230 NA
ATOM     17  C   UNL     1       8.685  -1.480   6.486  0.00  0.00    +0.087 C 
ATOM     18  C   UNL     1       8.952  -0.636   7.734  0.00  0.00    -0.062 C 
ATOM     19  N   UNL     1       9.260  -1.519   8.866  0.00  0.00    +0.380 N 
ATOM     20  C   UNL     1       8.115  -2.402   9.126  0.00  0.00    -0.062 C 
ATOM     21  C   UNL     1       7.842  -3.261   7.889  0.00  0.00    +0.087 C 
ATOM     22  C   UNL     1       9.534  -0.708  10.060  0.00  0.00    -0.096 C 
ATOM     23  H   UNL     1      10.071  -2.077   8.646  0.00  0.00    -0.082 HD
ENDBRANCH  14  16
ENDBRANCH   9  12
BRANCH   1  24
ATOM     24  N   UNL     1       1.651  -4.999  -0.034  0.00  0.00    -0.136 N 
ATOM     25  H   UNL     1       1.993  -5.536  -0.767  0.00  0.00    +0.197 HD
BRANCH  24  26
ATOM     26  S   UNL     1       0.063  -4.530  -0.023  0.00  0.00    +0.086 S 
ATOM     27  O   UNL     1      -0.476  -4.950   1.223  0.00  0.00    -0.149 OA
ATOM     28  O   UNL     1      -0.490  -4.937  -1.267  0.00  0.00    -0.149 OA
BRANCH  26  33
ATOM     29  C   UNL     1      -0.018   1.503   0.010  0.00  0.00    +0.044 C 
ATOM     30  C   UNL     1       0.002  -0.004   0.002  0.00  0.00    -0.050 A 
ATOM     31  C   UNL     1       0.006  -0.689  -1.199  0.00  0.00    +0.005 A 
ATOM     32  C   UNL     1       0.025  -2.071  -1.206  0.00  0.00    +0.029 A 
ATOM     33  C   UNL     1       0.040  -2.768  -0.013  0.00  0.00    +0.110 A 
ATOM     34  C   UNL     1       0.037  -2.084   1.188  0.00  0.00    +0.029 A 
ATOM     35  C   UNL     1       0.023  -0.702   1.195  0.00  0.00    +0.005 A 
ENDBRANCH  26  33
ENDBRANCH  24  26
ENDBRANCH   1  24
TORSDOF 5
