REMARK  Name = ZINC20690278
REMARK  6 active torsions:
REMARK  status: ('A' for Active; 'I' for Inactive)
REMARK    1  A    between atoms: C_1  and  O_2
REMARK    2  A    between atoms: O_2  and  C_3
REMARK    3  A    between atoms: C_6  and  C_10
REMARK    4  A    between atoms: C_8  and  O_9
REMARK    5  A    between atoms: C_21  and  S_26
REMARK    6  A    between atoms: S_26  and  N_29
REMARK                            x       y       z     vdW  Elec       q    Type
REMARK                         _______ _______ _______ _____ _____    ______ ____
ROOT
ATOM      1  C   UNL     1      -2.559   3.864   0.046  0.00  0.00    +0.105 C 
ATOM      2  C   UNL     1      -3.195   3.828  -1.333  0.00  0.00    +0.029 C 
ATOM      3  C   UNL     1      -2.506   4.635  -2.441  0.00  0.00    +0.033 C 
ATOM      4  C   UNL     1      -3.689   4.995  -3.342  0.00  0.00    -0.030 C 
ATOM      5  C   UNL     1      -4.811   5.008  -2.633  0.00  0.00    -0.023 C 
ATOM      6  C   UNL     1      -4.482   4.698  -1.218  0.00  0.00    +0.049 C 
ATOM      7  C   UNL     1      -5.431   3.995  -0.328  0.00  0.00    -0.018 A 
ATOM      8  C   UNL     1      -6.796   4.050  -0.510  0.00  0.00    +0.034 A 
ATOM      9  C   UNL     1      -7.644   3.407   0.373  0.00  0.00    +0.106 A 
ATOM     10  C   UNL     1      -7.122   2.706   1.445  0.00  0.00    +0.030 A 
ATOM     11  C   UNL     1      -5.757   2.638   1.631  0.00  0.00    +0.025 A 
ATOM     12  C   UNL     1      -4.896   3.274   0.745  0.00  0.00    +0.031 A 
ATOM     13  N   UNL     1      -3.513   3.177   0.944  0.00  0.00    -0.336 N 
ATOM     14  H   UNL     1      -3.140   2.576   1.786  0.00  0.00    +0.147 HD
ENDROOT
BRANCH   1  18
ATOM     15  C   UNL     1       1.178   1.785   0.000  0.00  0.00    +0.161 A 
ATOM     16  C   UNL     1      -0.013   1.076   0.008  0.00  0.00    +0.050 A 
ATOM     17  C   UNL     1      -1.219   1.751   0.017  0.00  0.00    +0.009 A 
ATOM     18  C   UNL     1      -1.241   3.133   0.030  0.00  0.00    -0.023 A 
ATOM     19  C   UNL     1      -0.057   3.846   0.022  0.00  0.00    +0.054 A 
ATOM     20  C   UNL     1       1.155   3.176   0.008  0.00  0.00    +0.159 A 
BRANCH  15  22
ATOM     21  C   UNL     1       2.312  -0.305  -0.020  0.00  0.00    +0.277 C 
ATOM     22  O   UNL     1       2.365   1.123  -0.014  0.00  0.00    -0.491 OA
ENDBRANCH  15  22
BRANCH  20  23
ATOM     23  O   UNL     1       2.321   3.877   0.001  0.00  0.00    -0.503 OA
ATOM     24  H   UNL     1       2.302   4.976   0.006  0.00  0.00    +0.292 HD
ENDBRANCH  20  23
ENDBRANCH   1  18
BRANCH   9  25
ATOM     25  S   UNL     1      -9.388   3.482   0.134  0.00  0.00    +0.061 S 
ATOM     26  O   UNL     1      -9.982   3.256   1.404  0.00  0.00    -0.153 OA
ATOM     27  O   UNL     1      -9.643   4.654  -0.629  0.00  0.00    -0.153 OA
BRANCH  25  28
ATOM     28  N   UNL     1      -9.806   2.195  -0.821  0.00  0.00    -0.177 NA
ATOM     29  C   UNL     1      -9.829   2.325  -2.284  0.00  0.00    +0.109 C 
ATOM     30  C   UNL     1      -8.959   1.212  -2.887  0.00  0.00    +0.017 C 
ATOM     31  C   UNL     1      -9.443  -0.144  -2.368  0.00  0.00    +0.003 C 
ATOM     32  C   UNL     1      -9.299  -0.191  -0.845  0.00  0.00    +0.017 C 
ATOM     33  C   UNL     1     -10.168   0.904  -0.220  0.00  0.00    +0.109 C 
ENDBRANCH  25  28
ENDBRANCH   9  25
TORSDOF 5
