REMARK  Name = ZINC39452639
REMARK  4 active torsions:
REMARK  status: ('A' for Active; 'I' for Inactive)
REMARK    1  A    between atoms: C_1  and  O_2
REMARK    2  A    between atoms: O_2  and  N_3
REMARK    3  A    between atoms: C_20  and  C_25
REMARK    4  A    between atoms: C_30  and  O_31
REMARK                            x       y       z     vdW  Elec       q    Type
REMARK                         _______ _______ _______ _____ _____    ______ ____
ROOT
ATOM      1  N   UNL     1       0.673  -0.506   0.941  0.00  0.00    -0.139 N 
ATOM      2  C   UNL     1       2.037  -0.778   0.907  0.00  0.00    +0.149 A 
ATOM      3  C   UNL     1       2.678  -1.335   1.996  0.00  0.00    +0.085 A 
ATOM      4  C   UNL     1       1.915  -1.641   3.219  0.00  0.00    +0.100 A 
ATOM      5  C   UNL     1       0.525  -1.351   3.227  0.00  0.00    +0.070 A 
ATOM      6  C   UNL     1      -0.081  -0.756   2.025  0.00  0.00    +0.293 A 
ATOM      7  O   UNL     1      -1.270  -0.494   2.011  0.00  0.00    -0.264 OA
ATOM      8  C   UNL     1      -0.240  -1.621   4.352  0.00  0.00    +0.026 A 
ATOM      9  C   UNL     1       0.407  -2.184   5.463  0.00  0.00    +0.014 A 
ATOM     10  C   UNL     1       1.845  -2.454   5.384  0.00  0.00    +0.073 A 
ATOM     11  N   UNL     1       2.517  -2.168   4.269  0.00  0.00    -0.245 NA
ATOM     12  C   UNL     1       2.485  -3.017   6.504  0.00  0.00    +0.028 A 
ATOM     13  C   UNL     1       1.762  -3.296   7.622  0.00  0.00    +0.003 A 
ATOM     14  C   UNL     1       0.395  -3.040   7.694  0.00  0.00    +0.015 A 
ATOM     15  C   UNL     1      -0.284  -2.495   6.646  0.00  0.00    +0.023 A 
ATOM     16  I   UNL     1      -2.340  -2.125   6.797  0.00  0.00    -0.043 I 
ATOM     17  N   UNL     1       4.030  -1.608   1.935  0.00  0.00    -0.333 N 
ATOM     18  C   UNL     1       4.630  -1.867   0.617  0.00  0.00    +0.112 C 
ATOM     19  C   UNL     1       4.260  -0.707  -0.315  0.00  0.00    +0.108 C 
ATOM     20  C   UNL     1       2.771  -0.482  -0.264  0.00  0.00    +0.187 C 
ATOM     21  O   UNL     1       2.196  -0.041  -1.239  0.00  0.00    -0.290 OA
ATOM     22  H   UNL     1       4.571  -1.629   2.740  0.00  0.00    +0.147 HD
ENDROOT
BRANCH  18  23
ATOM     23  C   UNL     1       4.091  -3.160   0.059  0.00  0.00    +0.014 A 
ATOM     24  C   UNL     1       2.937  -3.710   0.581  0.00  0.00    +0.009 A 
ATOM     25  C   UNL     1       2.443  -4.896   0.070  0.00  0.00    +0.001 A 
ATOM     26  C   UNL     1       3.102  -5.534  -0.965  0.00  0.00    +0.004 A 
ATOM     27  C   UNL     1       4.257  -4.988  -1.490  0.00  0.00    +0.046 A 
ATOM     28  C   UNL     1       4.752  -3.795  -0.983  0.00  0.00    +0.122 A 
BRANCH  28  29
ATOM     29  O   UNL     1       5.885  -3.252  -1.502  0.00  0.00    -0.506 OA
ATOM     30  H   UNL     1       6.697  -3.548  -1.068  0.00  0.00    +0.292 HD
ENDBRANCH  28  29
ENDBRANCH  18  23
BRANCH   1  32
ATOM     31  C   UNL     1       0.065   1.489  -0.218  0.00  0.00    +0.311 C 
ATOM     32  O   UNL     1       0.060   0.060  -0.203  0.00  0.00    -0.411 OA
ENDBRANCH   1  32
TORSDOF 3
