REMARK  Name = ZINC02247866
REMARK  9 active torsions:
REMARK  status: ('A' for Active; 'I' for Inactive)
REMARK    1  A    between atoms: C_1  and  C_2
REMARK    2  A    between atoms: C_2  and  C_3
REMARK    3  A    between atoms: C_2  and  C_4
REMARK    4  A    between atoms: C_7  and  C_10
REMARK    5  A    between atoms: N_11  and  N_12
REMARK    6  A    between atoms: C_13  and  N_35
REMARK    7  A    between atoms: C_14  and  C_25
REMARK    8  A    between atoms: N_27  and  C_28
REMARK    9  A    between atoms: C_28  and  C_29
REMARK                            x       y       z     vdW  Elec       q    Type
REMARK                         _______ _______ _______ _____ _____    ______ ____
ROOT
ATOM      1  N   UNL     1      -2.537   4.101   0.036  0.00  0.00    -0.198 N 
ATOM      2  C   UNL     1      -3.215   4.492  -1.080  0.00  0.00    +0.134 A 
ATOM      3  C   UNL     1      -4.391   5.147  -0.729  0.00  0.00    +0.105 A 
ATOM      4  C   UNL     1      -4.435   5.168   0.743  0.00  0.00    +0.124 A 
ATOM      5  C   UNL     1      -3.216   4.480   1.179  0.00  0.00    +0.183 A 
ATOM      6  N   UNL     1      -2.977   4.341   2.465  0.00  0.00    -0.224 NA
ATOM      7  C   UNL     1      -3.844   4.827   3.361  0.00  0.00    +0.092 A 
ATOM      8  C   UNL     1      -3.596   4.683   4.739  0.00  0.00    +0.030 A 
ATOM      9  C   UNL     1      -4.483   5.180   5.643  0.00  0.00    +0.002 A 
ATOM     10  C   UNL     1      -5.642   5.833   5.226  0.00  0.00    +0.002 A 
ATOM     11  C   UNL     1      -5.916   5.992   3.903  0.00  0.00    +0.030 A 
ATOM     12  C   UNL     1      -5.022   5.492   2.938  0.00  0.00    +0.090 A 
ATOM     13  N   UNL     1      -5.283   5.642   1.633  0.00  0.00    -0.241 NA
ENDROOT
BRANCH   3  14
ATOM     14  C   UNL     1      -5.384   5.710  -1.641  0.00  0.00    +0.250 C 
ATOM     15  O   UNL     1      -5.280   6.863  -2.019  0.00  0.00    -0.270 OA
ATOM     16  N   UNL     1      -6.415   4.952  -2.065  0.00  0.00    -0.309 N 
ATOM     17  H   UNL     1      -6.497   4.034  -1.765  0.00  0.00    +0.149 HD
BRANCH  16  18
ATOM     18  C   UNL     1      -7.410   5.516  -2.980  0.00  0.00    +0.136 C 
BRANCH  18  19
ATOM     19  C   UNL     1      -8.465   4.455  -3.302  0.00  0.00    +0.135 C 
ATOM     20  C   UNL     1      -9.518   5.039  -4.264  0.00  0.00    +0.035 C 
ATOM     21  C   UNL     1      -9.460   4.108  -5.500  0.00  0.00    +0.031 C 
ATOM     22  C   UNL     1      -8.814   2.828  -4.912  0.00  0.00    +0.160 C 
ATOM     23  O   UNL     1      -7.849   3.340  -3.968  0.00  0.00    -0.375 OA
ENDBRANCH  18  19
ENDBRANCH  16  18
ENDBRANCH   3  14
BRANCH   2  24
ATOM     24  N   UNL     1      -2.798   4.269  -2.367  0.00  0.00    -0.342 N 
ATOM     25  H   UNL     1      -1.965   3.801  -2.533  0.00  0.00    +0.144 HD
ATOM     26  H   UNL     1      -3.337   4.579  -3.112  0.00  0.00    +0.144 HD
ENDBRANCH   2  24
BRANCH   1  28
ATOM     27  C   UNL     1      -1.302   2.116   0.020  0.00  0.00    +0.141 C 
ATOM     28  N   UNL     1      -1.316   3.414   0.027  0.00  0.00    -0.171 NA
BRANCH  27  32
ATOM     29  C   UNL     1       2.396   0.034  -0.021  0.00  0.00    -0.045 A 
ATOM     30  C   UNL     1       1.208  -0.674  -0.013  0.00  0.00    +0.004 A 
ATOM     31  C   UNL     1       0.002  -0.004   0.002  0.00  0.00    +0.010 A 
ATOM     32  C   UNL     1      -0.017   1.393   0.010  0.00  0.00    -0.005 A 
ATOM     33  C   UNL     1       1.187   2.101   0.002  0.00  0.00    +0.010 A 
ATOM     34  C   UNL     1       2.385   1.418  -0.014  0.00  0.00    +0.004 A 
BRANCH  29  36
ATOM     35  C   UNL     1       4.496  -0.320  -1.292  0.00  0.00    +0.012 C 
ATOM     36  C   UNL     1       3.710  -0.705  -0.037  0.00  0.00    +0.013 C 
ATOM     37  C   UNL     1       4.520  -0.334   1.206  0.00  0.00    +0.012 C 
ENDBRANCH  29  36
ENDBRANCH  27  32
ENDBRANCH   1  28
TORSDOF 7
