REMARK  Name = ZINC42437952
REMARK  5 active torsions:
REMARK  status: ('A' for Active; 'I' for Inactive)
REMARK    1  A    between atoms: C_1  and  C_2
REMARK    2  A    between atoms: C_6  and  C_20
REMARK    3  A    between atoms: N_9  and  C_10
REMARK    4  A    between atoms: C_10  and  C_11
REMARK    5  A    between atoms: C_11  and  C_13
REMARK                            x       y       z     vdW  Elec       q    Type
REMARK                         _______ _______ _______ _____ _____    ______ ____
ROOT
ATOM      1  C   UNL     1      -0.019   1.526   0.010  0.00  0.00    -0.013 C 
ATOM      2  C   UNL     1       0.002  -0.004   0.002  0.00  0.00    -0.071 C 
ATOM      3  C   UNL     1      -1.434  -0.533   0.011  0.00  0.00    -0.015 C 
ATOM      4  C   UNL     1      -1.408  -2.064   0.003  0.00  0.00    +0.009 C 
ATOM      5  C   UNL     1      -0.600  -2.558   1.206  0.00  0.00    +0.058 C 
ATOM      6  C   UNL     1       0.805  -1.954   1.152  0.00  0.00    -0.065 C 
ATOM      7  N   UNL     1       0.713  -0.490   1.191  0.00  0.00    +0.387 N 
ATOM      8  H   UNL     1       0.213  -0.206   2.020  0.00  0.00    -0.081 HD
ENDROOT
BRANCH   5   9
ATOM      9  C   UNL     1      -0.504  -4.062   1.165  0.00  0.00    +0.212 C 
ATOM     10  O   UNL     1       0.582  -4.599   1.103  0.00  0.00    -0.276 OA
ATOM     11  N   UNL     1      -1.625  -4.809   1.197  0.00  0.00    -0.329 N 
ATOM     12  H   UNL     1      -2.493  -4.380   1.247  0.00  0.00    +0.145 HD
ATOM     13  H   UNL     1      -1.563  -5.777   1.171  0.00  0.00    +0.145 HD
ENDBRANCH   5   9
BRANCH   7  14
ATOM     14  C   UNL     1       2.066   0.083   1.218  0.00  0.00    +0.003 C 
BRANCH  14  15
ATOM     15  C   UNL     1       2.754  -0.315   2.498  0.00  0.00    +0.149 C 
ATOM     16  O   UNL     1       2.175  -1.009   3.309  0.00  0.00    -0.294 OA
BRANCH  15  17
ATOM     17  C   UNL     1       4.119   0.134   2.764  0.00  0.00    +0.042 A 
ATOM     18  C   UNL     1       4.842   0.965   1.827  0.00  0.00    +0.040 A 
ATOM     19  C   UNL     1       6.092   1.309   2.192  0.00  0.00    +0.080 A 
ATOM     20  S   UNL     1       6.286   0.521   3.776  0.00  0.00    -0.065 S 
ATOM     21  C   UNL     1       4.784  -0.211   3.928  0.00  0.00    +0.090 A 
ATOM     22 CL   UNL     1       4.198  -1.181   5.243  0.00  0.00    -0.075 Cl
ATOM     23 CL   UNL     1       7.237   2.285   1.327  0.00  0.00    -0.076 Cl
ENDBRANCH  15  17
ENDBRANCH  14  15
ENDBRANCH   7  14
TORSDOF 4
