REMARK  Name = ZINC35449348
REMARK  7 active torsions:
REMARK  status: ('A' for Active; 'I' for Inactive)
REMARK    1  A    between atoms: C_1  and  C_2
REMARK    2  A    between atoms: C_2  and  C_3
REMARK    3  A    between atoms: C_3  and  C_4
REMARK    4  A    between atoms: C_4  and  S_5
REMARK    5  A    between atoms: S_5  and  C_6
REMARK    6  A    between atoms: C_16  and  C_18
REMARK    7  A    between atoms: C_23  and  N_24
REMARK                            x       y       z     vdW  Elec       q    Type
REMARK                         _______ _______ _______ _____ _____    ______ ____
ROOT
ATOM      1  C   UNL     1      -0.164  -3.871  -2.265  0.00  0.00    +0.171 A 
ATOM      2  N   UNL     1       0.678  -4.853  -2.019  0.00  0.00    -0.185 NA
ATOM      3  C   UNL     1       0.253  -6.011  -1.492  0.00  0.00    +0.280 A 
ATOM      4  O   UNL     1       1.047  -6.913  -1.267  0.00  0.00    -0.265 OA
ATOM      5  C   UNL     1      -1.118  -6.183  -1.198  0.00  0.00    +0.069 A 
ATOM      6  C   UNL     1      -1.977  -5.160  -1.453  0.00  0.00    +0.111 A 
ATOM      7  N   UNL     1      -1.492  -3.994  -1.987  0.00  0.00    -0.322 N 
ATOM      8  N   UNL     1      -3.316  -5.293  -1.169  0.00  0.00    -0.304 N 
ATOM      9  C   UNL     1      -3.753  -6.256  -0.301  0.00  0.00    +0.017 C 
ATOM     10  C   UNL     1      -2.974  -7.316   0.001  0.00  0.00    +0.024 C 
ATOM     11  C   UNL     1      -1.609  -7.477  -0.618  0.00  0.00    +0.095 C 
ATOM     12  C   UNL     1      -3.410  -8.302   0.903  0.00  0.00    +0.162 C 
ATOM     13  O   UNL     1      -2.686  -9.247   1.149  0.00  0.00    -0.292 OA
ATOM     14  C   UNL     1      -4.755  -8.210   1.570  0.00  0.00    +0.080 C 
ATOM     15  C   UNL     1      -5.148  -6.734   1.699  0.00  0.00    +0.014 C 
ATOM     16  C   UNL     1      -5.127  -6.104   0.304  0.00  0.00    +0.051 C 
ATOM     17  H   UNL     1      -3.957  -4.698  -1.588  0.00  0.00    +0.153 HD
ATOM     18  H   UNL     1      -2.097  -3.258  -2.171  0.00  0.00    +0.169 HD
ENDROOT
BRANCH  11  19
ATOM     19  C   UNL     1      -1.682  -8.511  -1.712  0.00  0.00    -0.001 A 
ATOM     20  C   UNL     1      -2.584  -8.355  -2.749  0.00  0.00    +0.056 A 
ATOM     21  C   UNL     1      -2.654  -9.305  -3.755  0.00  0.00    +0.167 A 
ATOM     22  C   UNL     1      -1.813 -10.415  -3.719  0.00  0.00    +0.168 A 
ATOM     23  C   UNL     1      -0.912 -10.564  -2.678  0.00  0.00    +0.082 A 
ATOM     24  C   UNL     1      -0.844  -9.609  -1.680  0.00  0.00    +0.134 A 
ATOM     25  O   UNL     1      -2.073 -11.194  -4.810  0.00  0.00    -0.453 OA
ATOM     26  C   UNL     1      -3.358 -10.761  -5.294  0.00  0.00    +0.466 C 
ATOM     27  O   UNL     1      -3.440  -9.389  -4.868  0.00  0.00    -0.453 OA
BRANCH  24  28
ATOM     28  N   UNL     1       0.124  -9.767  -0.572  0.00  0.00    +0.057 N 
ATOM     29  O   UNL     1       1.245 -10.157  -0.799  0.00  0.00    -0.126 OA
ATOM     30  O   UNL     1      -0.207  -9.506   0.562  0.00  0.00    -0.126 OA
ENDBRANCH  24  28
ENDBRANCH  11  19
BRANCH   1  31
ATOM     31  S   UNL     1       0.438  -2.368  -2.959  0.00  0.00    -0.088 S 
BRANCH  31  32
ATOM     32  C   UNL     1       2.219  -2.656  -3.153  0.00  0.00    +0.077 C 
BRANCH  32  33
ATOM     33  C   UNL     1       2.874  -1.412  -3.755  0.00  0.00    +0.011 C 
BRANCH  33  35
ATOM     34  C   UNL     1       5.032  -0.411  -4.521  0.00  0.00    +0.004 C 
ATOM     35  C   UNL     1       4.376  -1.656  -3.919  0.00  0.00    -0.003 C 
ENDBRANCH  33  35
ENDBRANCH  32  33
ENDBRANCH  31  32
ENDBRANCH   1  31
TORSDOF 6
