REMARK  Name = ZINC06844573
REMARK  3 active torsions:
REMARK  status: ('A' for Active; 'I' for Inactive)
REMARK    1  A    between atoms: C_1  and  C_2
REMARK    2  A    between atoms: C_2  and  C_3
REMARK    3  A    between atoms: N_16  and  C_17
REMARK                            x       y       z     vdW  Elec       q    Type
REMARK                         _______ _______ _______ _____ _____    ______ ____
ROOT
ATOM      1  C   UNL     1      -3.357  -4.632   1.379  0.00  0.00    +0.191 C 
ATOM      2  C   UNL     1      -2.321  -4.239   0.316  0.00  0.00    +0.159 C 
ATOM      3  N   UNL     1      -2.326  -2.769   0.212  0.00  0.00    -0.248 N 
ATOM      4  C   UNL     1      -3.571  -2.117   0.235  0.00  0.00    +0.080 A 
ATOM      5  C   UNL     1      -3.664  -0.786  -0.144  0.00  0.00    +0.027 A 
ATOM      6  C   UNL     1      -4.891  -0.149  -0.122  0.00  0.00    +0.002 A 
ATOM      7  C   UNL     1      -6.023  -0.839   0.272  0.00  0.00    +0.004 A 
ATOM      8  C   UNL     1      -5.936  -2.167   0.643  0.00  0.00    +0.047 A 
ATOM      9  C   UNL     1      -4.710  -2.815   0.623  0.00  0.00    +0.142 A 
ATOM     10  O   UNL     1      -4.634  -4.122   0.987  0.00  0.00    -0.485 OA
ATOM     11  C   UNL     1      -1.176  -2.074   0.103  0.00  0.00    +0.311 C 
ATOM     12  O   UNL     1      -1.194  -0.859   0.155  0.00  0.00    -0.252 OA
ATOM     13  N   UNL     1      -0.008  -2.725  -0.062  0.00  0.00    -0.268 N 
ATOM     14  H   UNL     1      -0.002  -3.688  -0.179  0.00  0.00    +0.156 HD
ENDROOT
BRANCH  13  15
ATOM     15  C   UNL     1       1.196  -2.011  -0.065  0.00  0.00    +0.049 A 
ATOM     16  C   UNL     1       1.217  -0.682  -0.464  0.00  0.00    +0.024 A 
ATOM     17  C   UNL     1       2.406   0.020  -0.465  0.00  0.00    +0.002 A 
ATOM     18  C   UNL     1       3.577  -0.601  -0.069  0.00  0.00    +0.001 A 
ATOM     19  C   UNL     1       3.561  -1.925   0.329  0.00  0.00    +0.017 A 
ATOM     20  C   UNL     1       2.374  -2.632   0.332  0.00  0.00    +0.039 A 
ATOM     21 BR   UNL     1       2.352  -4.441   0.885  0.00  0.00    -0.048 Br
ENDBRANCH  13  15
BRANCH   1  23
ATOM     22  C   UNL     1      -4.364  -6.543   2.633  0.00  0.00    +0.007 C 
ATOM     23  C   UNL     1      -3.425  -6.156   1.489  0.00  0.00    +0.043 C 
ENDBRANCH   1  23
TORSDOF 2
