REMARK  Name = ZINC40646335
REMARK  5 active torsions:
REMARK  status: ('A' for Active; 'I' for Inactive)
REMARK    1  A    between atoms: C_4  and  N_7
REMARK    2  A    between atoms: N_7  and  C_8
REMARK    3  A    between atoms: N_7  and  N_14
REMARK    4  A    between atoms: C_16  and  N_29
REMARK    5  A    between atoms: C_17  and  N_21
REMARK                            x       y       z     vdW  Elec       q    Type
REMARK                         _______ _______ _______ _____ _____    ______ ____
ROOT
ATOM      1  N   UNL     1       4.796  -0.046  -0.177  0.00  0.00    -0.242 N 
ATOM      2  C   UNL     1       5.569   0.669   0.725  0.00  0.00    +0.171 A 
ATOM      3  C   UNL     1       6.753   1.274   0.316  0.00  0.00    +0.207 A 
ATOM      4  C   UNL     1       7.493   1.980   1.259  0.00  0.00    +0.160 A 
ATOM      5  N   UNL     1       7.044   2.051   2.511  0.00  0.00    -0.218 NA
ATOM      6  C   UNL     1       5.917   1.464   2.860  0.00  0.00    +0.225 A 
ATOM      7  N   UNL     1       5.186   0.791   1.995  0.00  0.00    -0.217 NA
ATOM      8  H   UNL     1       5.082  -0.130  -1.100  0.00  0.00    +0.172 HD
ENDROOT
BRANCH   4   9
ATOM      9  N   UNL     1       8.681   2.601   0.901  0.00  0.00    -0.282 N 
ATOM     10  C   UNL     1       9.468   3.212   1.874  0.00  0.00    +0.124 A 
ATOM     11  C   UNL     1      10.712   3.731   1.528  0.00  0.00    +0.045 A 
ATOM     12  C   UNL     1      11.483   4.335   2.504  0.00  0.00    +0.020 A 
ATOM     13  C   UNL     1      10.983   4.401   3.799  0.00  0.00    +0.036 A 
ATOM     14  C   UNL     1       9.740   3.864   4.071  0.00  0.00    +0.128 A 
ATOM     15  N   UNL     1       9.024   3.298   3.118  0.00  0.00    -0.239 NA
ATOM     16 BR   UNL     1      11.994   5.215   5.174  0.00  0.00    -0.049 Br
ATOM     17  H   UNL     1       8.964   2.610  -0.027  0.00  0.00    +0.155 HD
ENDBRANCH   4   9
BRANCH   3  18
ATOM     18  N   UNL     1       7.215   1.169  -1.087  0.00  0.00    +0.063 N 
ATOM     19  O   UNL     1       6.875   1.998  -1.899  0.00  0.00    -0.126 OA
ATOM     20  O   UNL     1       7.931   0.254  -1.421  0.00  0.00    -0.126 OA
ENDBRANCH   3  18
BRANCH   1  21
ATOM     21  N   UNL     1       3.602  -0.646   0.245  0.00  0.00    -0.221 N 
BRANCH  21  25
ATOM     22  C   UNL     1       0.224   1.691   0.928  0.00  0.00    +0.000 A 
ATOM     23  C   UNL     1       1.162   2.091  -0.006  0.00  0.00    +0.002 A 
ATOM     24  C   UNL     1       2.284   1.319  -0.235  0.00  0.00    +0.025 A 
ATOM     25  C   UNL     1       2.469   0.138   0.474  0.00  0.00    +0.053 A 
ATOM     26  C   UNL     1       1.525  -0.260   1.412  0.00  0.00    +0.025 A 
ATOM     27  C   UNL     1       0.405   0.517   1.636  0.00  0.00    +0.002 A 
ENDBRANCH  21  25
BRANCH  21  28
ATOM     28  C   UNL     1       3.545  -2.029   0.436  0.00  0.00    +0.053 A 
ATOM     29  C   UNL     1       2.501  -2.764  -0.110  0.00  0.00    +0.025 A 
ATOM     30  C   UNL     1       2.448  -4.131   0.081  0.00  0.00    +0.002 A 
ATOM     31  C   UNL     1       3.432  -4.767   0.815  0.00  0.00    +0.000 A 
ATOM     32  C   UNL     1       4.473  -4.038   1.360  0.00  0.00    +0.002 A 
ATOM     33  C   UNL     1       4.535  -2.672   1.168  0.00  0.00    +0.025 A 
ENDBRANCH  21  28
ENDBRANCH   1  21
TORSDOF 5
