REMARK  Name = ZINC59267064
REMARK  8 active torsions:
REMARK  status: ('A' for Active; 'I' for Inactive)
REMARK    1  A    between atoms: C_1  and  C_2
REMARK    2  A    between atoms: C_5  and  C_39
REMARK    3  A    between atoms: C_6  and  N_8
REMARK    4  A    between atoms: N_8  and  S_9
REMARK    5  A    between atoms: S_9  and  C_12
REMARK    6  A    between atoms: C_25  and  C_28
REMARK    7  A    between atoms: C_32  and  O_34
REMARK    8  A    between atoms: O_34  and  C_35
REMARK                            x       y       z     vdW  Elec       q    Type
REMARK                         _______ _______ _______ _____ _____    ______ ____
ROOT
ATOM      1  C   UNL     1      -2.688  -1.040   3.460  0.00  0.00    +0.109 A 
ATOM      2  C   UNL     1      -3.480   0.013   3.039  0.00  0.00    +0.030 A 
ATOM      3  C   UNL     1      -4.836  -0.176   2.867  0.00  0.00    +0.025 A 
ATOM      4  C   UNL     1      -5.405  -1.421   3.112  0.00  0.00    +0.031 A 
ATOM      5  C   UNL     1      -4.610  -2.482   3.521  0.00  0.00    -0.018 A 
ATOM      6  C   UNL     1      -3.249  -2.280   3.694  0.00  0.00    +0.034 A 
ATOM      7  C   UNL     1      -5.177  -3.841   3.755  0.00  0.00    +0.049 C 
ATOM      8  C   UNL     1      -5.320  -4.151   5.223  0.00  0.00    -0.023 C 
ATOM      9  C   UNL     1      -6.399  -4.862   5.433  0.00  0.00    -0.030 C 
ATOM     10  C   UNL     1      -7.135  -5.123   4.137  0.00  0.00    +0.033 C 
ATOM     11  C   UNL     1      -6.572  -4.056   3.171  0.00  0.00    +0.029 C 
ATOM     12  C   UNL     1      -7.461  -2.832   3.249  0.00  0.00    +0.105 C 
ATOM     13  N   UNL     1      -6.775  -1.591   2.953  0.00  0.00    -0.336 N 
ATOM     14  H   UNL     1      -7.300  -0.835   2.649  0.00  0.00    +0.147 HD
ENDROOT
BRANCH  12  15
ATOM     15  C   UNL     1      -8.577  -2.986   2.248  0.00  0.00    -0.024 A 
ATOM     16  C   UNL     1      -8.350  -2.715   0.912  0.00  0.00    +0.006 A 
ATOM     17  C   UNL     1      -9.372  -2.856  -0.008  0.00  0.00    +0.004 A 
ATOM     18  C   UNL     1     -10.624  -3.268   0.406  0.00  0.00    +0.045 A 
ATOM     19  C   UNL     1     -10.855  -3.541   1.746  0.00  0.00    +0.121 A 
ATOM     20  C   UNL     1      -9.825  -3.405   2.667  0.00  0.00    +0.051 A 
BRANCH  19  21
ATOM     21  O   UNL     1     -12.085  -3.947   2.156  0.00  0.00    -0.487 OA
BRANCH  21  22
ATOM     22  C   UNL     1     -13.060  -4.189   1.140  0.00  0.00    +0.193 C 
ATOM     23  C   UNL     1     -14.089  -3.064   1.012  0.00  0.00    +0.114 C 
ATOM     24  S   UNL     1     -15.347  -4.274   0.517  0.00  0.00    -0.153 S 
ATOM     25  C   UNL     1     -14.168  -5.147   1.585  0.00  0.00    +0.114 C 
ENDBRANCH  21  22
ENDBRANCH  19  21
ENDBRANCH  12  15
BRANCH   1  26
ATOM     26  S   UNL     1      -0.958  -0.801   3.690  0.00  0.00    +0.072 S 
ATOM     27  O   UNL     1      -0.528  -1.800   4.605  0.00  0.00    -0.150 OA
ATOM     28  O   UNL     1      -0.768   0.586   3.931  0.00  0.00    -0.150 OA
BRANCH  26  29
ATOM     29  N   UNL     1      -0.221  -1.136   2.245  0.00  0.00    -0.216 N 
ATOM     30  H   UNL     1       0.433  -1.850   2.188  0.00  0.00    +0.174 HD
BRANCH  29  36
ATOM     31  C   UNL     1      -1.458   3.168   0.220  0.00  0.00    +0.044 C 
ATOM     32  C   UNL     1      -1.146   1.699   0.097  0.00  0.00    -0.049 A 
ATOM     33  C   UNL     1      -1.177   1.087  -1.143  0.00  0.00    +0.004 A 
ATOM     34  C   UNL     1      -0.891  -0.260  -1.261  0.00  0.00    +0.005 A 
ATOM     35  C   UNL     1      -0.574  -1.001  -0.139  0.00  0.00    -0.028 A 
ATOM     36  C   UNL     1      -0.541  -0.390   1.108  0.00  0.00    +0.051 A 
ATOM     37  C   UNL     1      -0.824   0.966   1.222  0.00  0.00    +0.028 A 
ATOM     38  C   UNL     1      -0.263  -2.470  -0.268  0.00  0.00    +0.046 C 
ENDBRANCH  29  36
ENDBRANCH  26  29
ENDBRANCH   1  26
TORSDOF 6
