REMARK  Name = ZINC09377898
REMARK  15 active torsions:
REMARK  status: ('A' for Active; 'I' for Inactive)
REMARK    1  A    between atoms: C_1  and  C_2
REMARK    2  A    between atoms: C_2  and  N_3
REMARK    3  A    between atoms: N_3  and  C_4
REMARK    4  A    between atoms: C_4  and  C_5
REMARK    5  A    between atoms: N_7  and  C_8
REMARK    6  A    between atoms: C_11  and  N_14
REMARK    7  A    between atoms: C_15  and  C_17
REMARK    8  A    between atoms: C_18  and  C_20
REMARK    9  A    between atoms: C_21  and  C_22
REMARK   10  A    between atoms: C_24  and  C_36
REMARK   11  A    between atoms: N_25  and  C_28
REMARK   12  A    between atoms: C_26  and  C_27
REMARK   13  A    between atoms: N_32  and  C_33
REMARK   14  A    between atoms: C_33  and  C_34
REMARK   15  A    between atoms: C_33  and  C_35
REMARK                            x       y       z     vdW  Elec       q    Type
REMARK                         _______ _______ _______ _____ _____    ______ ____
ROOT
ATOM      1  N   UNL     1      -3.870  10.649   1.587  0.00  0.00    -0.289 N 
ATOM      2  C   UNL     1      -4.173   9.343   1.730  0.00  0.00    +0.240 C 
ATOM      3  O   UNL     1      -5.301   9.011   2.046  0.00  0.00    -0.271 OA
ENDROOT
BRANCH   1   5
ATOM      4  C   UNL     1      -2.412  11.122  -0.319  0.00  0.00    +0.024 C 
ATOM      5  C   UNL     1      -2.513  11.049   1.206  0.00  0.00    +0.105 C 
ENDBRANCH   1   5
BRANCH   2   6
ATOM      6  C   UNL     1      -3.179   8.357   1.511  0.00  0.00    +0.068 C 
ATOM      7  C   UNL     1      -3.483   7.047   1.654  0.00  0.00    +0.015 C 
BRANCH   7   8
ATOM      8  C   UNL     1      -2.453   6.027   1.427  0.00  0.00    -0.004 A 
ATOM      9  C   UNL     1      -1.054   6.253   1.043  0.00  0.00    +0.031 A 
ATOM     10  C   UNL     1      -0.480   5.041   0.953  0.00  0.00    +0.023 A 
ATOM     11  N   UNL     1      -1.411   4.081   1.240  0.00  0.00    -0.302 N 
ATOM     12  C   UNL     1      -2.603   4.658   1.532  0.00  0.00    +0.029 A 
ATOM     13  C   UNL     1      -3.870   3.932   1.905  0.00  0.00    +0.064 C 
ATOM     14  C   UNL     1       0.958   4.781   0.588  0.00  0.00    +0.064 C 
BRANCH  11  15
ATOM     15  C   UNL     1      -1.167   2.706   1.240  0.00  0.00    +0.136 A 
ATOM     16  C   UNL     1      -1.320   1.861   2.296  0.00  0.00    +0.068 A 
ATOM     17  C   UNL     1      -0.965   0.578   1.873  0.00  0.00    +0.136 A 
ATOM     18  N   UNL     1      -0.616   0.638   0.614  0.00  0.00    -0.178 NA
ATOM     19  N   UNL     1      -0.737   1.967   0.185  0.00  0.00    -0.246 N 
BRANCH  19  20
ATOM     20  C   UNL     1      -0.444   2.470  -1.159  0.00  0.00    +0.103 C 
ATOM     21  C   UNL     1      -1.371   1.792  -2.170  0.00  0.00    +0.032 C 
ATOM     22  C   UNL     1       1.012   2.161  -1.514  0.00  0.00    +0.032 C 
ENDBRANCH  19  20
ENDBRANCH  11  15
ENDBRANCH   7   8
ENDBRANCH   2   6
BRANCH   1  23
ATOM     23  C   UNL     1      -4.898  11.668   1.813  0.00  0.00    +0.204 C 
BRANCH  23  24
ATOM     24  C   UNL     1      -4.885  12.082   3.262  0.00  0.00    +0.235 C 
ATOM     25  O   UNL     1      -4.094  11.575   4.030  0.00  0.00    -0.274 OA
ATOM     26  N   UNL     1      -5.751  13.015   3.704  0.00  0.00    -0.284 N 
ATOM     27  H   UNL     1      -6.423  13.376   3.105  0.00  0.00    +0.155 HD
BRANCH  26  28
ATOM     28  C   UNL     1      -5.681  13.463   5.029  0.00  0.00    +0.034 A 
ATOM     29  C   UNL     1      -5.348  12.578   6.046  0.00  0.00    +0.025 A 
ATOM     30  C   UNL     1      -5.276  13.021   7.351  0.00  0.00    +0.025 A 
ATOM     31  C   UNL     1      -5.544  14.350   7.649  0.00  0.00    +0.033 A 
ATOM     32  C   UNL     1      -5.881  15.235   6.633  0.00  0.00    +0.025 A 
ATOM     33  C   UNL     1      -5.950  14.793   5.327  0.00  0.00    +0.025 A 
BRANCH  31  34
ATOM     34  N   UNL     1      -5.474  14.799   8.974  0.00  0.00    -0.286 N 
ATOM     35  C   UNL     1      -4.577  14.258   9.822  0.00  0.00    +0.214 C 
ATOM     36  O   UNL     1      -3.767  13.451   9.416  0.00  0.00    -0.276 OA
ATOM     37  C   UNL     1      -4.579  14.656  11.276  0.00  0.00    +0.109 C 
ATOM     38  H   UNL     1      -6.071  15.498   9.282  0.00  0.00    +0.155 HD
ENDBRANCH  31  34
ENDBRANCH  26  28
ENDBRANCH  23  24
ENDBRANCH   1  23
TORSDOF 9
