REMARK  Name = ZINC43423533
REMARK  6 active torsions:
REMARK  status: ('A' for Active; 'I' for Inactive)
REMARK    1  A    between atoms: C_1  and  C_2
REMARK    2  A    between atoms: C_2  and  C_3
REMARK    3  A    between atoms: C_3  and  C_5
REMARK    4  A    between atoms: C_3  and  N_25
REMARK    5  A    between atoms: C_5  and  C_7
REMARK    6  A    between atoms: C_5  and  N_14
REMARK                            x       y       z     vdW  Elec       q    Type
REMARK                         _______ _______ _______ _____ _____    ______ ____
ROOT
ATOM      1  C   UNL     1      -1.001  -2.011   0.192  0.00  0.00    +0.074 C 
ENDROOT
BRANCH   1   2
ATOM      2  N   UNL     1      -2.240  -2.763   0.435  0.00  0.00    -0.289 NA
ATOM      3  C   UNL     1      -2.435  -3.009   1.880  0.00  0.00    +0.113 C 
ATOM      4  C   UNL     1      -3.749  -3.736   2.151  0.00  0.00    +0.175 C 
ATOM      5  O   UNL     1      -4.857  -3.086   1.501  0.00  0.00    -0.374 OA
ATOM      6  C   UNL     1      -4.626  -2.972   0.109  0.00  0.00    +0.135 C 
ATOM      7  C   UNL     1      -3.398  -2.035  -0.062  0.00  0.00    +0.086 C 
ATOM      8  C   UNL     1      -3.418  -1.697  -1.548  0.00  0.00    +0.021 C 
ATOM      9  C   UNL     1      -4.909  -1.768  -1.965  0.00  0.00    +0.004 C 
ATOM     10  C   UNL     1      -5.700  -2.251  -0.711  0.00  0.00    +0.033 C 
ENDBRANCH   1   2
BRANCH   1  11
ATOM     11  C   UNL     1      -0.553  -2.228  -1.230  0.00  0.00    -0.014 A 
ATOM     12  C   UNL     1      -0.719  -1.226  -2.168  0.00  0.00    +0.006 A 
ATOM     13  C   UNL     1      -0.307  -1.426  -3.473  0.00  0.00    +0.000 A 
ATOM     14  C   UNL     1       0.271  -2.627  -3.840  0.00  0.00    +0.001 A 
ATOM     15  C   UNL     1       0.438  -3.629  -2.903  0.00  0.00    +0.020 A 
ATOM     16  C   UNL     1       0.031  -3.428  -1.596  0.00  0.00    +0.046 A 
ATOM     17 CL   UNL     1       0.246  -4.684  -0.416  0.00  0.00    -0.083 Cl
ENDBRANCH   1  11
BRANCH   1  18
ATOM     18  C   UNL     1      -1.256  -0.520   0.424  0.00  0.00    -0.053 C 
BRANCH  18  19
ATOM     19  N   UNL     1      -1.750  -0.315   1.792  0.00  0.00    +0.381 N 
ATOM     20  H   UNL     1      -1.706   0.666   2.022  0.00  0.00    -0.090 HD
ATOM     21  H   UNL     1      -2.706  -0.633   1.856  0.00  0.00    -0.090 HD
ATOM     22  H   UNL     1      -1.179  -0.838   2.438  0.00  0.00    -0.090 HD
ENDBRANCH  18  19
BRANCH  18  24
ATOM     23  C   UNL     1      -0.231   1.757   0.340  0.00  0.00    +0.002 C 
ATOM     24  C   UNL     1       0.048   0.257   0.231  0.00  0.00    -0.018 C 
ENDBRANCH  18  24
ENDBRANCH   1  18
TORSDOF 5
