REMARK  Name = ZINC39974776
REMARK  11 active torsions:
REMARK  status: ('A' for Active; 'I' for Inactive)
REMARK    1  A    between atoms: C_1  and  C_2
REMARK    2  A    between atoms: C_5  and  C_8
REMARK    3  A    between atoms: C_8  and  N_9
REMARK    4  A    between atoms: N_9  and  C_10
REMARK    5  A    between atoms: C_10  and  N_12
REMARK    6  A    between atoms: N_12  and  C_13
REMARK    7  A    between atoms: C_16  and  S_19
REMARK    8  A    between atoms: S_19  and  N_22
REMARK    9  A    between atoms: N_22  and  C_23
REMARK   10  A    between atoms: C_23  and  C_24
REMARK   11  A    between atoms: C_23  and  C_25
REMARK                            x       y       z     vdW  Elec       q    Type
REMARK                         _______ _______ _______ _____ _____    ______ ____
ROOT
ATOM      1  N   UNL     1       2.986  -6.500  -0.050  0.00  0.00    -0.297 N 
ATOM      2  H   UNL     1       3.457  -5.889  -0.638  0.00  0.00    +0.154 HD
ENDROOT
BRANCH   1   3
ATOM      3  C   UNL     1       3.350  -7.851  -0.008  0.00  0.00    +0.033 A 
ATOM      4  C   UNL     1       2.372  -8.836  -0.040  0.00  0.00    +0.025 A 
ATOM      5  C   UNL     1       2.734 -10.168   0.001  0.00  0.00    +0.030 A 
ATOM      6  C   UNL     1       4.069 -10.521   0.073  0.00  0.00    +0.105 A 
ATOM      7  C   UNL     1       5.046  -9.542   0.104  0.00  0.00    +0.030 A 
ATOM      8  C   UNL     1       4.690  -8.209   0.059  0.00  0.00    +0.025 A 
BRANCH   6   9
ATOM      9  S   UNL     1       4.527 -12.222   0.126  0.00  0.00    +0.059 S 
ATOM     10  O   UNL     1       5.807 -12.279   0.742  0.00  0.00    -0.153 OA
ATOM     11  O   UNL     1       3.405 -12.929   0.634  0.00  0.00    -0.153 OA
BRANCH   9  12
ATOM     12  N   UNL     1       4.733 -12.722  -1.439  0.00  0.00    -0.187 NA
ATOM     13  H   UNL     1       4.142 -13.393  -1.815  0.00  0.00    +0.148 HD
BRANCH  12  14
ATOM     14  C   UNL     1       5.807 -12.152  -2.256  0.00  0.00    +0.070 C 
ATOM     15  C   UNL     1       7.036 -13.061  -2.189  0.00  0.00    +0.025 C 
ATOM     16  C   UNL     1       5.338 -12.035  -3.707  0.00  0.00    +0.025 C 
ENDBRANCH  12  14
ENDBRANCH   9  12
ENDBRANCH   6   9
ENDBRANCH   1   3
BRANCH   1  17
ATOM     17  C   UNL     1       1.982  -6.049   0.727  0.00  0.00    +0.135 C 
ATOM     18  S   UNL     1       1.080  -7.146   1.683  0.00  0.00    -0.019 S 
BRANCH  17  19
ATOM     19  N   UNL     1       1.688  -4.734   0.751  0.00  0.00    -0.322 N 
ATOM     20  H   UNL     1       2.199  -4.112   0.210  0.00  0.00    +0.148 HD
BRANCH  19  21
ATOM     21  C   UNL     1       0.596  -4.243   1.596  0.00  0.00    +0.138 C 
BRANCH  21  26
ATOM     22  C   UNL     1       0.128   1.487   1.008  0.00  0.00    +0.044 C 
ATOM     23  C   UNL     1       0.250  -0.007   1.161  0.00  0.00    -0.050 A 
ATOM     24  C   UNL     1      -0.462  -0.848   0.327  0.00  0.00    +0.003 A 
ATOM     25  C   UNL     1      -0.350  -2.219   0.468  0.00  0.00    +0.005 A 
ATOM     26  C   UNL     1       0.475  -2.749   1.442  0.00  0.00    -0.030 A 
ATOM     27  C   UNL     1       1.188  -1.908   2.276  0.00  0.00    +0.005 A 
ATOM     28  C   UNL     1       1.079  -0.537   2.133  0.00  0.00    +0.003 A 
ENDBRANCH  21  26
ENDBRANCH  19  21
ENDBRANCH  17  19
ENDBRANCH   1  17
TORSDOF 8
