REMARK  Name = ZINC44492806
REMARK  4 active torsions:
REMARK  status: ('A' for Active; 'I' for Inactive)
REMARK    1  A    between atoms: C_3  and  S_9
REMARK    2  A    between atoms: S_9  and  N_12
REMARK    3  A    between atoms: N_12  and  C_13
REMARK    4  A    between atoms: C_13  and  C_14
REMARK                            x       y       z     vdW  Elec       q    Type
REMARK                         _______ _______ _______ _____ _____    ______ ____
ROOT
ATOM      1  S   UNL     1       4.021   2.357  -0.073  0.00  0.00    +0.059 S 
ATOM      2  O   UNL     1       5.033   1.924  -0.972  0.00  0.00    -0.153 OA
ATOM      3  O   UNL     1       3.503   3.680  -0.088  0.00  0.00    -0.153 OA
ENDROOT
BRANCH   1   6
ATOM      4  C   UNL     1       1.630  -0.571  -1.435  0.00  0.00    +0.017 A 
ATOM      5  C   UNL     1       2.706   0.278  -1.255  0.00  0.00    +0.031 A 
ATOM      6  C   UNL     1       2.649   1.276  -0.301  0.00  0.00    +0.119 A 
ATOM      7  C   UNL     1       1.513   1.426   0.475  0.00  0.00    +0.045 A 
ATOM      8  C   UNL     1       0.436   0.578   0.296  0.00  0.00    +0.032 A 
ATOM      9  C   UNL     1       0.494  -0.421  -0.659  0.00  0.00    +0.019 A 
ATOM     10 BR   UNL     1      -0.978  -1.581  -0.905  0.00  0.00    -0.050 Br
ATOM     11 BR   UNL     1       1.435   2.792   1.781  0.00  0.00    -0.048 Br
ENDBRANCH   1   6
BRANCH   1  12
ATOM     12  N   UNL     1       4.603   2.094   1.455  0.00  0.00    -0.191 NA
ATOM     13  H   UNL     1       4.577   2.806   2.113  0.00  0.00    +0.148 HD
BRANCH  12  14
ATOM     14  C   UNL     1       5.155   0.785   1.814  0.00  0.00    +0.090 C 
BRANCH  14  15
ATOM     15  C   UNL     1       5.965   0.910   3.106  0.00  0.00    -0.056 C 
ATOM     16  C   UNL     1       6.438  -0.477   3.546  0.00  0.00    -0.015 C 
ATOM     17  C   UNL     1       7.248  -0.347   4.840  0.00  0.00    -0.003 C 
ATOM     18  C   UNL     1       6.386   0.337   5.904  0.00  0.00    -0.019 C 
ATOM     19  C   UNL     1       5.914   1.693   5.376  0.00  0.00    -0.082 C 
ATOM     20  N   UNL     1       5.124   1.499   4.155  0.00  0.00    +0.382 N 
ATOM     21  H   UNL     1       4.769   2.389   3.840  0.00  0.00    -0.085 HD
ATOM     22  H   UNL     1       4.350   0.881   4.350  0.00  0.00    -0.085 HD
ENDBRANCH  14  15
ENDBRANCH  12  14
ENDBRANCH   1  12
TORSDOF 4
