REMARK  Name = ZINC55576631
REMARK  5 active torsions:
REMARK  status: ('A' for Active; 'I' for Inactive)
REMARK    1  A    between atoms: C_1  and  C_2
REMARK    2  A    between atoms: C_5  and  C_8
REMARK    3  A    between atoms: C_9  and  S_10
REMARK    4  A    between atoms: S_10  and  N_13
REMARK    5  A    between atoms: C_16  and  N_19
REMARK                            x       y       z     vdW  Elec       q    Type
REMARK                         _______ _______ _______ _____ _____    ______ ____
ROOT
ATOM      1  N   UNL     1       1.542  -7.156   1.772  0.00  0.00    -0.177 NA
ATOM      2  C   UNL     1       2.724  -7.351   0.921  0.00  0.00    +0.111 C 
ATOM      3  C   UNL     1       3.286  -8.754   1.173  0.00  0.00    +0.042 C 
ATOM      4  C   UNL     1       3.552  -8.931   2.670  0.00  0.00    +0.095 C 
ATOM      5  C   UNL     1       2.239  -8.791   3.443  0.00  0.00    +0.042 C 
ATOM      6  C   UNL     1       1.666  -7.383   3.218  0.00  0.00    +0.111 C 
ENDROOT
BRANCH   4   7
ATOM      7  N   UNL     1       4.121 -10.259   2.911  0.00  0.00    -0.289 N 
ATOM      8  C   UNL     1       5.362 -10.523   3.486  0.00  0.00    +0.070 A 
ATOM      9  C   UNL     1       6.375  -9.712   3.975  0.00  0.00    +0.028 A 
ATOM     10  C   UNL     1       7.519 -10.282   4.499  0.00  0.00    +0.002 A 
ATOM     11  C   UNL     1       7.658 -11.659   4.537  0.00  0.00    +0.002 A 
ATOM     12  C   UNL     1       6.655 -12.474   4.052  0.00  0.00    +0.028 A 
ATOM     13  C   UNL     1       5.502 -11.911   3.525  0.00  0.00    +0.067 A 
ATOM     14  N   UNL     1       4.342 -12.449   2.972  0.00  0.00    -0.306 N 
ATOM     15  H   UNL     1       4.150 -13.393   2.864  0.00  0.00    +0.170 HD
ATOM     16  C   UNL     1       3.531 -11.434   2.619  0.00  0.00    +0.328 A 
ATOM     17  O   UNL     1       2.433 -11.559   2.110  0.00  0.00    -0.247 OA
ENDBRANCH   4   7
BRANCH   1  18
ATOM     18  S   UNL     1       0.098  -6.682   1.113  0.00  0.00    +0.054 S 
ATOM     19  O   UNL     1      -0.917  -7.106   2.012  0.00  0.00    -0.153 OA
ATOM     20  O   UNL     1       0.123  -7.080  -0.251  0.00  0.00    -0.153 OA
BRANCH  18  22
ATOM     21  C   UNL     1       0.060  -4.251  -0.021  0.00  0.00    +0.028 C 
ATOM     22  C   UNL     1       0.074  -4.920   1.123  0.00  0.00    +0.153 C 
BRANCH  21  27
ATOM     23  C   UNL     1      -0.018   1.503   0.010  0.00  0.00    +0.044 C 
ATOM     24  C   UNL     1       0.002  -0.004   0.002  0.00  0.00    -0.050 A 
ATOM     25  C   UNL     1       0.006  -0.686  -1.202  0.00  0.00    +0.004 A 
ATOM     26  C   UNL     1       0.024  -2.066  -1.216  0.00  0.00    +0.008 A 
ATOM     27  C   UNL     1       0.040  -2.773  -0.013  0.00  0.00    -0.024 A 
ATOM     28  C   UNL     1       0.037  -2.079   1.197  0.00  0.00    +0.008 A 
ATOM     29  C   UNL     1       0.023  -0.699   1.198  0.00  0.00    +0.004 A 
ENDBRANCH  21  27
ENDBRANCH  18  22
ENDBRANCH   1  18
TORSDOF 4
