REMARK  Name = ZINC13843655
REMARK  4 active torsions:
REMARK  status: ('A' for Active; 'I' for Inactive)
REMARK    1  A    between atoms: C_1  and  C_2
REMARK    2  A    between atoms: N_6  and  C_19
REMARK    3  A    between atoms: N_8  and  S_9
REMARK    4  A    between atoms: S_9  and  C_12
REMARK                            x       y       z     vdW  Elec       q    Type
REMARK                         _______ _______ _______ _____ _____    ______ ____
ROOT
ATOM      1  C   UNL     1      -0.946   0.691  -0.254  0.00  0.00    +0.029 C 
ATOM      2  C   UNL     1      -0.218  -0.597   0.136  0.00  0.00    +0.138 C 
ATOM      3  C   UNL     1       0.549  -1.174  -1.042  0.00  0.00    +0.239 C 
ATOM      4  O   UNL     1      -0.007  -1.541  -2.055  0.00  0.00    -0.274 OA
ATOM      5  N   UNL     1       1.861  -1.250  -0.894  0.00  0.00    -0.217 N 
ATOM      6  C   UNL     1       2.501  -0.833   0.259  0.00  0.00    +0.189 C 
ATOM      7  N   UNL     1       3.776  -0.856   0.524  0.00  0.00    -0.105 NA
ATOM      8  S   UNL     1       1.166  -0.255   1.299  0.00  0.00    -0.076 S 
ENDROOT
BRANCH   5   9
ATOM      9  C   UNL     1       2.630  -1.773  -1.943  0.00  0.00    +0.043 A 
ATOM     10  C   UNL     1       3.131  -0.930  -2.925  0.00  0.00    +0.024 A 
ATOM     11  C   UNL     1       3.889  -1.448  -3.957  0.00  0.00    +0.002 A 
ATOM     12  C   UNL     1       4.149  -2.805  -4.012  0.00  0.00    +0.000 A 
ATOM     13  C   UNL     1       3.651  -3.647  -3.035  0.00  0.00    +0.002 A 
ATOM     14  C   UNL     1       2.897  -3.134  -1.998  0.00  0.00    +0.024 A 
ENDBRANCH   5   9
BRANCH   7  15
ATOM     15  S   UNL     1       4.328  -0.300   1.984  0.00  0.00    +0.107 S 
ATOM     16  O   UNL     1       4.067   1.097   2.011  0.00  0.00    -0.146 OA
ATOM     17  O   UNL     1       3.826  -1.188   2.973  0.00  0.00    -0.146 OA
BRANCH  15  18
ATOM     18  C   UNL     1       6.080  -0.485   1.983  0.00  0.00    +0.151 A 
ATOM     19  C   UNL     1       7.030   0.393   1.581  0.00  0.00    +0.038 A 
ATOM     20  C   UNL     1       8.361   0.029   1.672  0.00  0.00    +0.030 A 
ATOM     21  C   UNL     1       8.675  -1.197   2.161  0.00  0.00    +0.080 A 
ATOM     22  S   UNL     1       7.063  -1.876   2.518  0.00  0.00    -0.056 S 
ATOM     23 CL   UNL     1      10.239  -1.916   2.386  0.00  0.00    -0.076 Cl
ENDBRANCH  15  18
ENDBRANCH   7  15
TORSDOF 3
