REMARK  Name = ZINC33808436
REMARK  5 active torsions:
REMARK  status: ('A' for Active; 'I' for Inactive)
REMARK    1  A    between atoms: C_1  and  C_2
REMARK    2  A    between atoms: C_5  and  C_22
REMARK    3  A    between atoms: C_6  and  C_7
REMARK    4  A    between atoms: C_6  and  C_8
REMARK    5  A    between atoms: N_24  and  C_25
REMARK                            x       y       z     vdW  Elec       q    Type
REMARK                         _______ _______ _______ _____ _____    ______ ____
ROOT
ATOM      1  C   UNL     1      -0.056   1.524   0.037  0.00  0.00    +0.018 C 
ATOM      2  C   UNL     1      -0.027  -0.005   0.023  0.00  0.00    +0.018 C 
ATOM      3  C   UNL     1      -1.413  -0.722   0.085  0.00  0.00    +0.015 C 
ATOM      4  C   UNL     1      -1.071  -2.167   0.518  0.00  0.00    +0.024 C 
ATOM      5  C   UNL     1       0.483  -2.160   0.670  0.00  0.00    +0.097 C 
ATOM      6  C   UNL     1       0.706  -0.706   1.225  0.00  0.00    -0.005 C 
ATOM      7  C   UNL     1       2.184  -0.317   1.310  0.00  0.00    +0.013 C 
ATOM      8  C   UNL     1      -0.021  -0.492   2.554  0.00  0.00    +0.013 C 
ATOM      9  C   UNL     1       1.002  -1.982  -0.759  0.00  0.00    +0.079 A 
ATOM     10  C   UNL     1       0.705  -0.657  -1.153  0.00  0.00    +0.071 A 
ATOM     11  N   UNL     1       1.031  -0.208  -2.338  0.00  0.00    -0.248 NA
ATOM     12  C   UNL     1       1.685  -1.009  -3.189  0.00  0.00    +0.093 A 
ATOM     13  C   UNL     1       2.046  -0.559  -4.470  0.00  0.00    +0.079 A 
ATOM     14  C   UNL     1       2.718  -1.390  -5.319  0.00  0.00    +0.168 A 
ATOM     15  C   UNL     1       3.055  -2.698  -4.925  0.00  0.00    +0.168 A 
ATOM     16  C   UNL     1       2.712  -3.163  -3.689  0.00  0.00    +0.079 A 
ATOM     17  C   UNL     1       2.018  -2.330  -2.795  0.00  0.00    +0.093 A 
ATOM     18  N   UNL     1       1.627  -2.796  -1.571  0.00  0.00    -0.247 NA
ATOM     19  O   UNL     1       3.721  -3.299  -5.954  0.00  0.00    -0.453 OA
ATOM     20  C   UNL     1       3.425  -2.507  -7.119  0.00  0.00    +0.466 C 
ATOM     21  O   UNL     1       3.173  -1.192  -6.591  0.00  0.00    -0.453 OA
ENDROOT
BRANCH   5  22
ATOM     22  C   UNL     1       1.078  -3.287   1.475  0.00  0.00    +0.230 C 
ATOM     23  O   UNL     1       1.706  -3.045   2.484  0.00  0.00    -0.274 OA
ATOM     24  N   UNL     1       0.912  -4.562   1.074  0.00  0.00    -0.283 N 
ATOM     25  H   UNL     1       0.356  -4.760   0.304  0.00  0.00    +0.155 HD
BRANCH  24  26
ATOM     26  C   UNL     1       1.543  -5.602   1.768  0.00  0.00    +0.053 A 
ATOM     27  C   UNL     1       1.708  -5.520   3.144  0.00  0.00    +0.046 A 
ATOM     28  C   UNL     1       2.331  -6.548   3.827  0.00  0.00    +0.061 A 
ATOM     29  C   UNL     1       2.789  -7.659   3.139  0.00  0.00    +0.061 A 
ATOM     30  C   UNL     1       2.626  -7.744   1.768  0.00  0.00    +0.043 A 
ATOM     31  C   UNL     1       1.999  -6.721   1.082  0.00  0.00    +0.064 A 
ATOM     32 CL   UNL     1       1.787  -6.832  -0.638  0.00  0.00    -0.082 Cl
ATOM     33 CL   UNL     1       3.572  -8.948   4.000  0.00  0.00    -0.082 Cl
ATOM     34 CL   UNL     1       2.538  -6.445   5.547  0.00  0.00    -0.082 Cl
ENDBRANCH  24  26
ENDBRANCH   5  22
TORSDOF 2
