REMARK  Name = ZINC37392991
REMARK  3 active torsions:
REMARK  status: ('A' for Active; 'I' for Inactive)
REMARK    1  A    between atoms: C_5  and  N_8
REMARK    2  A    between atoms: C_9  and  C_11
REMARK    3  A    between atoms: C_14  and  O_18
REMARK                            x       y       z     vdW  Elec       q    Type
REMARK                         _______ _______ _______ _____ _____    ______ ____
ROOT
ATOM      1  N   UNL     1       1.239  -2.083  -0.022  0.00  0.00    -0.284 N 
ATOM      2  C   UNL     1       0.157  -2.776   0.384  0.00  0.00    +0.203 C 
ATOM      3  O   UNL     1      -0.866  -2.191   0.670  0.00  0.00    -0.277 OA
ATOM      4  H   UNL     1       2.033  -2.554  -0.319  0.00  0.00    +0.155 HD
ENDROOT
BRANCH   1   9
ATOM      5  C   UNL     1       0.673   1.394  -1.094  0.00  0.00    +0.078 A 
ATOM      6  C   UNL     1       1.171   2.088  -0.004  0.00  0.00    +0.127 A 
ATOM      7  C   UNL     1       1.691   1.400   1.079  0.00  0.00    +0.055 A 
ATOM      8  C   UNL     1       1.714   0.018   1.075  0.00  0.00    +0.045 A 
ATOM      9  C   UNL     1       1.216  -0.681  -0.016  0.00  0.00    +0.083 A 
ATOM     10  C   UNL     1       0.694   0.011  -1.103  0.00  0.00    +0.148 A 
ATOM     11  F   UNL     1       0.208  -0.665  -2.166  0.00  0.00    -0.203 F 
ATOM     12 BR   UNL     1       2.425  -0.921   2.554  0.00  0.00    -0.048 Br
ATOM     13  F   UNL     1       1.150   3.439   0.002  0.00  0.00    -0.205 F 
ENDBRANCH   1   9
BRANCH   2  14
ATOM     14  C   UNL     1       0.218  -4.279   0.482  0.00  0.00    +0.019 C 
ATOM     15  C   UNL     1       0.886  -4.706   1.813  0.00  0.00    +0.023 C 
ATOM     16  C   UNL     1       0.304  -6.130   2.013  0.00  0.00    +0.097 C 
ATOM     17  C   UNL     1      -1.132  -5.999   1.465  0.00  0.00    -0.050 C 
ATOM     18  N   UNL     1      -1.145  -4.847   0.541  0.00  0.00    +0.388 N 
ATOM     19  H   UNL     1      -1.790  -4.149   0.880  0.00  0.00    -0.085 HD
ATOM     20  H   UNL     1      -1.427  -5.150  -0.379  0.00  0.00    -0.085 HD
BRANCH  16  21
ATOM     21  O   UNL     1       0.290  -6.480   3.398  0.00  0.00    -0.394 OA
ATOM     22  H   UNL     1      -0.065  -7.362   3.577  0.00  0.00    +0.210 HD
ENDBRANCH  16  21
ENDBRANCH   2  14
TORSDOF 3
