REMARK  Name = ZINC39452853
REMARK  5 active torsions:
REMARK  status: ('A' for Active; 'I' for Inactive)
REMARK    1  A    between atoms: C_1  and  O_2
REMARK    2  A    between atoms: O_2  and  C_3
REMARK    3  A    between atoms: C_19  and  O_20
REMARK    4  A    between atoms: N_23  and  S_24
REMARK    5  A    between atoms: S_24  and  C_25
REMARK                            x       y       z     vdW  Elec       q    Type
REMARK                         _______ _______ _______ _____ _____    ______ ____
ROOT
ATOM      1  C   UNL     1       0.652  -0.570  -1.138  0.00  0.00    +0.210 C 
ATOM      2  C   UNL     1       0.825  -2.080  -0.937  0.00  0.00    +0.132 C 
ATOM      3  C   UNL     1      -0.525  -2.747  -0.974  0.00  0.00    +0.186 C 
ATOM      4  O   UNL     1      -0.711  -3.764  -0.336  0.00  0.00    -0.290 OA
ATOM      5  C   UNL     1      -1.578  -2.200  -1.743  0.00  0.00    +0.122 A 
ATOM      6  C   UNL     1      -1.387  -1.012  -2.420  0.00  0.00    +0.084 A 
ATOM      7  C   UNL     1      -2.481  -0.443  -3.227  0.00  0.00    +0.100 A 
ATOM      8  C   UNL     1      -3.713  -1.147  -3.268  0.00  0.00    +0.068 A 
ATOM      9  C   UNL     1      -4.777  -0.654  -4.011  0.00  0.00    +0.029 A 
ATOM     10  C   UNL     1      -4.587   0.547  -4.707  0.00  0.00    +0.043 A 
ATOM     11  C   UNL     1      -3.288   1.220  -4.620  0.00  0.00    +0.075 A 
ATOM     12  N   UNL     1      -2.310   0.688  -3.886  0.00  0.00    -0.244 NA
ATOM     13  C   UNL     1      -3.105   2.424  -5.322  0.00  0.00    +0.028 A 
ATOM     14  C   UNL     1      -4.126   2.940  -6.061  0.00  0.00    +0.006 A 
ATOM     15  C   UNL     1      -5.361   2.309  -6.148  0.00  0.00    +0.046 A 
ATOM     16  C   UNL     1      -5.609   1.126  -5.487  0.00  0.00    +0.126 A 
ATOM     17  C   UNL     1      -3.838  -2.403  -2.511  0.00  0.00    +0.271 A 
ATOM     18  O   UNL     1      -4.885  -3.023  -2.531  0.00  0.00    -0.266 OA
ATOM     19  N   UNL     1      -2.797  -2.867  -1.797  0.00  0.00    -0.245 N 
ATOM     20  N   UNL     1      -0.173  -0.356  -2.337  0.00  0.00    -0.315 N 
ATOM     21  H   UNL     1       0.127   0.229  -3.049  0.00  0.00    +0.149 HD
ENDROOT
BRANCH   1  23
ATOM     22  C   UNL     1      -0.017   1.425   0.010  0.00  0.00    +0.196 C 
ATOM     23  O   UNL     1       0.002  -0.004   0.002  0.00  0.00    -0.362 OA
ENDBRANCH   1  23
BRANCH  16  24
ATOM     24  O   UNL     1      -6.822   0.525  -5.585  0.00  0.00    -0.506 OA
ATOM     25  H   UNL     1      -7.455   0.804  -4.909  0.00  0.00    +0.292 HD
ENDBRANCH  16  24
BRANCH  19  26
ATOM     26  S   UNL     1      -2.973  -4.281  -0.955  0.00  0.00    -0.044 S 
ATOM     27  C   UNL     1      -3.578  -3.751   0.671  0.00  0.00    +0.110 C 
ENDBRANCH  19  26
TORSDOF 3
