REMARK  Name = ZINC12031298
REMARK  8 active torsions:
REMARK  status: ('A' for Active; 'I' for Inactive)
REMARK    1  A    between atoms: C_1  and  C_2
REMARK    2  A    between atoms: C_2  and  C_3
REMARK    3  A    between atoms: C_3  and  C_5
REMARK    4  A    between atoms: C_3  and  O_28
REMARK    5  A    between atoms: C_10  and  C_11
REMARK    6  A    between atoms: C_10  and  N_56
REMARK    7  A    between atoms: C_19  and  N_21
REMARK    8  A    between atoms: N_21  and  C_22
REMARK                            x       y       z     vdW  Elec       q    Type
REMARK                         _______ _______ _______ _____ _____    ______ ____
ROOT
ATOM      1  C   UNL     1      -3.580   5.892  -0.137  0.00  0.00    +0.115 A 
ATOM      2  N   UNL     1      -3.673   7.198  -0.231  0.00  0.00    -0.234 NA
ATOM      3  C   UNL     1      -2.569   7.959  -0.245  0.00  0.00    +0.076 A 
ATOM      4  C   UNL     1      -2.632   9.356  -0.344  0.00  0.00    +0.028 A 
ATOM      5  C   UNL     1      -1.478  10.083  -0.338  0.00  0.00    +0.002 A 
ATOM      6  C   UNL     1      -0.237   9.459  -0.250  0.00  0.00    +0.001 A 
ATOM      7  C   UNL     1      -0.140   8.102  -0.158  0.00  0.00    +0.013 A 
ATOM      8  C   UNL     1      -1.305   7.327  -0.151  0.00  0.00    +0.040 A 
ATOM      9  C   UNL     1      -1.269   5.914  -0.058  0.00  0.00    +0.134 A 
ATOM     10  N   UNL     1      -2.422   5.257  -0.053  0.00  0.00    -0.219 NA
ENDROOT
BRANCH   9  11
ATOM     11  N   UNL     1      -0.069   5.240   0.031  0.00  0.00    -0.299 N 
ATOM     12  H   UNL     1       0.761   5.736   0.111  0.00  0.00    +0.154 HD
BRANCH  11  13
ATOM     13  C   UNL     1      -0.049   3.843   0.006  0.00  0.00    +0.032 A 
ATOM     14  C   UNL     1      -0.989   3.146  -0.742  0.00  0.00    +0.023 A 
ATOM     15  C   UNL     1      -0.966   1.766  -0.765  0.00  0.00    +0.002 A 
ATOM     16  C   UNL     1      -0.008   1.077  -0.044  0.00  0.00    +0.000 A 
ATOM     17  C   UNL     1       0.926   1.767   0.707  0.00  0.00    +0.002 A 
ATOM     18  C   UNL     1       0.912   3.147   0.730  0.00  0.00    +0.023 A 
ENDBRANCH  11  13
ENDBRANCH   9  11
BRANCH   1  19
ATOM     19  C   UNL     1      -4.848   5.079  -0.125  0.00  0.00    -0.001 C 
BRANCH  19  25
ATOM     20  C   UNL     1      -6.204   3.471   3.597  0.00  0.00    +0.014 C 
ATOM     21  C   UNL     1      -7.162   4.306   2.743  0.00  0.00    -0.013 C 
ATOM     22  C   UNL     1      -6.658   4.332   1.298  0.00  0.00    -0.078 C 
ATOM     23  C   UNL     1      -4.361   4.100   2.034  0.00  0.00    -0.078 C 
ATOM     24  C   UNL     1      -4.796   4.066   3.501  0.00  0.00    -0.013 C 
ATOM     25  N   UNL     1      -5.310   4.938   1.271  0.00  0.00    +0.384 N 
ATOM     26  H   UNL     1      -5.354   5.869   1.703  0.00  0.00    -0.081 HD
BRANCH  20  27
ATOM     27  C   UNL     1      -6.669   3.491   5.055  0.00  0.00    +0.117 C 
BRANCH  27  29
ATOM     28  C   UNL     1      -6.243   2.574   7.340  0.00  0.00    +0.006 C 
ATOM     29  C   UNL     1      -5.710   2.657   5.907  0.00  0.00    +0.028 C 
ENDBRANCH  27  29
BRANCH  27  30
ATOM     30  O   UNL     1      -6.681   4.838   5.532  0.00  0.00    -0.392 OA
ATOM     31  H   UNL     1      -5.819   5.275   5.502  0.00  0.00    +0.210 HD
ENDBRANCH  27  30
ENDBRANCH  20  27
ENDBRANCH  19  25
ENDBRANCH   1  19
TORSDOF 7
