REMARK  Name = ZINC09584119
REMARK  7 active torsions:
REMARK  status: ('A' for Active; 'I' for Inactive)
REMARK    1  A    between atoms: C_1  and  O_2
REMARK    2  A    between atoms: O_2  and  C_3
REMARK    3  A    between atoms: C_6  and  C_9
REMARK    4  A    between atoms: C_14  and  O_35
REMARK    5  A    between atoms: C_22  and  C_27
REMARK    6  A    between atoms: C_27  and  O_28
REMARK    7  A    between atoms: O_28  and  C_29
REMARK                            x       y       z     vdW  Elec       q    Type
REMARK                         _______ _______ _______ _____ _____    ______ ____
ROOT
ATOM      1  C   UNL     1      -0.013   1.086   0.008  0.00  0.00    +0.091 C 
ATOM      2  C   UNL     1      -0.711   1.568   1.252  0.00  0.00    +0.007 A 
ATOM      3  C   UNL     1      -0.452   0.950   2.463  0.00  0.00    +0.012 A 
ATOM      4  C   UNL     1      -1.084   1.381   3.612  0.00  0.00    +0.046 A 
ATOM      5  C   UNL     1      -1.983   2.437   3.555  0.00  0.00    +0.120 A 
ATOM      6  C   UNL     1      -2.244   3.057   2.344  0.00  0.00    +0.092 A 
ATOM      7  C   UNL     1      -1.607   2.623   1.188  0.00  0.00    +0.138 A 
ATOM      8  O   UNL     1      -1.875   3.240   0.013  0.00  0.00    -0.437 OA
ATOM      9  C   UNL     1      -1.617   2.618  -1.161  0.00  0.00    +0.230 A 
ATOM     10  C   UNL     1      -0.730   1.579  -1.211  0.00  0.00    +0.070 A 
ATOM     11  C   UNL     1      -0.519   0.992  -2.469  0.00  0.00    +0.167 A 
ATOM     12  N   UNL     1       0.245   0.008  -2.881  0.00  0.00    -0.207 NA
ATOM     13  C   UNL     1       0.080  -0.164  -4.191  0.00  0.00    +0.189 A 
ATOM     14  N   UNL     1      -0.793   0.708  -4.649  0.00  0.00    -0.145 NA
ATOM     15  N   UNL     1      -1.205   1.475  -3.569  0.00  0.00    -0.201 N 
ATOM     16  C   UNL     1      -2.079   2.506  -3.448  0.00  0.00    +0.229 A 
ATOM     17  N   UNL     1      -2.248   3.037  -2.269  0.00  0.00    -0.201 NA
ENDROOT
BRANCH   1  21
ATOM     18  C   UNL     1       4.000   2.555  -0.023  0.00  0.00    +0.120 A 
ATOM     19  C   UNL     1       3.760   1.188  -0.028  0.00  0.00    +0.046 A 
ATOM     20  C   UNL     1       2.462   0.716  -0.018  0.00  0.00    +0.008 A 
ATOM     21  C   UNL     1       1.402   1.604  -0.003  0.00  0.00    -0.035 A 
ATOM     22  C   UNL     1       1.639   2.966  -0.003  0.00  0.00    +0.008 A 
ATOM     23  C   UNL     1       2.935   3.443  -0.007  0.00  0.00    +0.046 A 
BRANCH  18  25
ATOM     24  C   UNL     1       5.448   4.441  -0.027  0.00  0.00    +0.277 C 
ATOM     25  O   UNL     1       5.276   3.022  -0.034  0.00  0.00    -0.495 OA
ENDBRANCH  18  25
ENDBRANCH   1  21
BRANCH   5  26
ATOM     26  O   UNL     1      -2.606   2.862   4.685  0.00  0.00    -0.507 OA
ATOM     27  H   UNL     1      -2.127   3.554   5.161  0.00  0.00    +0.292 HD
ENDBRANCH   5  26
BRANCH  13  28
ATOM     28  C   UNL     1       0.788  -1.201  -5.025  0.00  0.00    +0.306 C 
BRANCH  28  29
ATOM     29  O   UNL     1       2.009  -0.655  -5.528  0.00  0.00    -0.484 OA
BRANCH  29  30
ATOM     30  C   UNL     1       2.774  -1.467  -6.305  0.00  0.00    +0.121 A 
ATOM     31  C   UNL     1       2.360  -2.764  -6.573  0.00  0.00    +0.045 A 
ATOM     32  C   UNL     1       3.136  -3.585  -7.368  0.00  0.00    +0.004 A 
ATOM     33  C   UNL     1       4.330  -3.120  -7.886  0.00  0.00    +0.000 A 
ATOM     34  C   UNL     1       4.748  -1.830  -7.616  0.00  0.00    +0.004 A 
ATOM     35  C   UNL     1       3.972  -1.002  -6.826  0.00  0.00    +0.045 A 
ENDBRANCH  29  30
ENDBRANCH  28  29
ENDBRANCH  13  28
TORSDOF 6
