REMARK  Name = ZINC39945625
REMARK  12 active torsions:
REMARK  status: ('A' for Active; 'I' for Inactive)
REMARK    1  A    between atoms: C_1  and  C_2
REMARK    2  A    between atoms: C_2  and  O_3
REMARK    3  A    between atoms: O_3  and  C_4
REMARK    4  A    between atoms: C_4  and  C_6
REMARK    5  A    between atoms: C_7  and  C_30
REMARK    6  A    between atoms: C_8  and  C_29
REMARK    7  A    between atoms: C_11  and  N_13
REMARK    8  A    between atoms: C_14  and  C_16
REMARK    9  A    between atoms: C_16  and  S_17
REMARK   10  A    between atoms: S_17  and  C_18
REMARK   11  A    between atoms: C_22  and  C_24
REMARK   12  A    between atoms: C_33  and  C_36
REMARK                            x       y       z     vdW  Elec       q    Type
REMARK                         _______ _______ _______ _____ _____    ______ ____
ROOT
ATOM      1  C   UNL     1       1.448  -2.344  -2.515  0.00  0.00    +0.071 C 
ATOM      2  C   UNL     1       1.558  -3.655  -2.696  0.00  0.00    -0.015 C 
ATOM      3  C   UNL     1       2.269  -4.146  -3.944  0.00  0.00    +0.076 C 
ATOM      4  S   UNL     1       2.307  -2.607  -4.960  0.00  0.00    -0.126 S 
ATOM      5  C   UNL     1       2.035  -1.426  -3.572  0.00  0.00    +0.169 C 
ATOM      6  C   UNL     1       1.464  -5.246  -4.639  0.00  0.00    +0.024 C 
ENDROOT
BRANCH   2   7
ATOM      7  C   UNL     1       1.008  -4.604  -1.715  0.00  0.00    -0.020 A 
ATOM      8  C   UNL     1       1.863  -5.438  -0.987  0.00  0.00    +0.008 A 
ATOM      9  C   UNL     1       1.340  -6.324  -0.069  0.00  0.00    +0.004 A 
ATOM     10  C   UNL     1      -0.028  -6.390   0.132  0.00  0.00    -0.050 A 
ATOM     11  C   UNL     1      -0.881  -5.568  -0.584  0.00  0.00    +0.004 A 
ATOM     12  C   UNL     1      -0.373  -4.673  -1.501  0.00  0.00    +0.008 A 
ATOM     13  C   UNL     1      -0.591  -7.362   1.137  0.00  0.00    +0.044 C 
ENDBRANCH   2   7
BRANCH   5  14
ATOM     14  N   UNL     1       1.082  -0.378  -3.948  0.00  0.00    -0.299 N 
ATOM     15  C   UNL     1       1.496   0.899  -4.063  0.00  0.00    +0.224 C 
ATOM     16  O   UNL     1       2.658   1.181  -3.855  0.00  0.00    -0.275 OA
ATOM     17  H   UNL     1       0.154  -0.604  -4.114  0.00  0.00    +0.150 HD
BRANCH  15  18
ATOM     18  C   UNL     1       0.517   1.977  -4.450  0.00  0.00    +0.173 C 
BRANCH  18  19
ATOM     19  S   UNL     1       1.372   3.575  -4.521  0.00  0.00    -0.077 S 
BRANCH  19  20
ATOM     20  C   UNL     1       0.109   4.715  -4.979  0.00  0.00    +0.185 A 
ATOM     21  N   UNL     1       0.269   6.044  -5.164  0.00  0.00    -0.253 N 
ATOM     22  H   UNL     1       1.092   6.548  -5.070  0.00  0.00    +0.191 HD
ATOM     23  N   UNL     1      -0.991   6.552  -5.519  0.00  0.00    -0.151 NA
ATOM     24  C   UNL     1      -1.825   5.535  -5.531  0.00  0.00    +0.189 A 
ATOM     25  N   UNL     1      -1.152   4.419  -5.207  0.00  0.00    -0.200 NA
BRANCH  24  26
ATOM     26  C   UNL     1      -3.266   5.607  -5.853  0.00  0.00    +0.058 A 
ATOM     27  C   UNL     1      -4.019   6.697  -6.200  0.00  0.00    +0.019 A 
ATOM     28  C   UNL     1      -5.361   6.519  -6.458  0.00  0.00    +0.008 A 
ATOM     29  C   UNL     1      -5.894   5.275  -6.361  0.00  0.00    +0.046 A 
ATOM     30  S   UNL     1      -4.476   4.295  -5.897  0.00  0.00    -0.093 S 
ENDBRANCH  24  26
ENDBRANCH  19  20
ENDBRANCH  18  19
ENDBRANCH  15  18
ENDBRANCH   5  14
BRANCH   1  31
ATOM     31  C   UNL     1       0.776  -1.800  -1.335  0.00  0.00    +0.338 C 
ATOM     32  O   UNL     1       0.312  -2.552  -0.499  0.00  0.00    -0.245 OA
BRANCH  31  33
ATOM     33  O   UNL     1       0.671  -0.465  -1.174  0.00  0.00    -0.462 OA
BRANCH  33  35
ATOM     34  C   UNL     1      -0.019   1.526   0.010  0.00  0.00    +0.048 C 
ATOM     35  C   UNL     1       0.002  -0.004   0.002  0.00  0.00    +0.229 C 
ENDBRANCH  33  35
ENDBRANCH  31  33
ENDBRANCH   1  31
TORSDOF 9
