REMARK  Name = ZINC35682171
REMARK  8 active torsions:
REMARK  status: ('A' for Active; 'I' for Inactive)
REMARK    1  A    between atoms: C_1  and  C_2
REMARK    2  A    between atoms: C_2  and  O_3
REMARK    3  A    between atoms: O_3  and  C_4
REMARK    4  A    between atoms: C_6  and  C_11
REMARK    5  A    between atoms: C_9  and  O_10
REMARK    6  A    between atoms: N_17  and  C_22
REMARK    7  A    between atoms: C_27  and  O_28
REMARK    8  A    between atoms: O_28  and  C_29
REMARK                            x       y       z     vdW  Elec       q    Type
REMARK                         _______ _______ _______ _____ _____    ______ ____
ROOT
ATOM      1  C   UNL     1       0.609  -4.949  -0.019  0.00  0.00    +0.041 C 
ATOM      2  C   UNL     1       0.444  -6.311   0.079  0.00  0.00    +0.129 C 
ATOM      3  C   UNL     1       1.504  -7.329   0.193  0.00  0.00    +0.272 C 
ATOM      4  O   UNL     1       2.707  -7.142   0.184  0.00  0.00    -0.268 OA
ATOM      5  N   UNL     1       0.862  -8.512   0.308  0.00  0.00    -0.229 N 
ATOM      6  C   UNL     1       1.493  -9.803   0.567  0.00  0.00    +0.224 C 
ATOM      7  N   UNL     1       0.610 -10.925   0.340  0.00  0.00    -0.301 N 
ATOM      8  C   UNL     1      -0.778 -11.009   0.755  0.00  0.00    +0.184 C 
ATOM      9  S   UNL     1      -1.704  -9.566   0.165  0.00  0.00    -0.071 S 
ATOM     10  C   UNL     1      -0.492  -8.278   0.195  0.00  0.00    +0.166 C 
ATOM     11  N   UNL     1      -0.737  -6.998   0.097  0.00  0.00    -0.220 NA
ENDROOT
BRANCH   7  12
ATOM     12  C   UNL     1       1.141 -12.028  -0.339  0.00  0.00    +0.075 A 
ATOM     13  C   UNL     1       1.742 -13.058   0.369  0.00  0.00    +0.047 A 
ATOM     14  C   UNL     1       2.265 -14.147  -0.304  0.00  0.00    +0.043 A 
ATOM     15  C   UNL     1       2.191 -14.211  -1.685  0.00  0.00    +0.024 A 
ATOM     16  C   UNL     1       1.594 -13.186  -2.397  0.00  0.00    +0.049 A 
ATOM     17  C   UNL     1       1.063 -12.096  -1.728  0.00  0.00    +0.141 A 
ATOM     18 CL   UNL     1       3.017 -15.435   0.583  0.00  0.00    -0.083 Cl
BRANCH  17  19
ATOM     19  O   UNL     1       0.470 -11.091  -2.428  0.00  0.00    -0.493 OA
ATOM     20  C   UNL     1       0.426 -11.228  -3.849  0.00  0.00    +0.277 C 
ENDBRANCH  17  19
ENDBRANCH   7  12
BRANCH   1  23
ATOM     21  C   UNL     1      -1.498  -1.849   0.035  0.00  0.00    +0.162 A 
ATOM     22  C   UNL     1      -0.391  -2.675   0.023  0.00  0.00    +0.057 A 
ATOM     23  C   UNL     1      -0.561  -4.066  -0.005  0.00  0.00    -0.019 A 
ATOM     24  C   UNL     1      -1.852  -4.609  -0.019  0.00  0.00    +0.012 A 
ATOM     25  C   UNL     1      -2.949  -3.777  -0.006  0.00  0.00    +0.050 A 
ATOM     26  C   UNL     1      -2.779  -2.399   0.027  0.00  0.00    +0.158 A 
BRANCH  26  27
ATOM     27  O   UNL     1      -3.866  -1.583   0.045  0.00  0.00    -0.503 OA
ATOM     28  H   UNL     1      -4.182  -1.329  -0.833  0.00  0.00    +0.292 HD
ENDBRANCH  26  27
BRANCH  21  29
ATOM     29  O   UNL     1      -1.337  -0.499   0.062  0.00  0.00    -0.489 OA
BRANCH  29  31
ATOM     30  C   UNL     1      -0.017   1.525   0.100  0.00  0.00    +0.048 C 
ATOM     31  C   UNL     1       0.004  -0.005   0.070  0.00  0.00    +0.226 C 
ENDBRANCH  29  31
ENDBRANCH  21  29
ENDBRANCH   1  23
TORSDOF 6
