REMARK  Name = ZINC10785185
REMARK  8 active torsions:
REMARK  status: ('A' for Active; 'I' for Inactive)
REMARK    1  A    between atoms: C_1  and  C_2
REMARK    2  A    between atoms: C_5  and  C_8
REMARK    3  A    between atoms: C_11  and  S_14
REMARK    4  A    between atoms: N_12  and  N_13
REMARK    5  A    between atoms: S_14  and  C_15
REMARK    6  A    between atoms: C_15  and  C_16
REMARK    7  A    between atoms: C_19  and  C_31
REMARK    8  A    between atoms: C_22  and  C_24
REMARK                            x       y       z     vdW  Elec       q    Type
REMARK                         _______ _______ _______ _____ _____    ______ ____
ROOT
ATOM      1  C   UNL     1       1.938   9.759   0.258  0.00  0.00    +0.246 C 
ATOM      2  O   UNL     1       3.103   9.908   0.559  0.00  0.00    -0.273 OA
ATOM      3  N   UNL     1       1.149  10.835   0.063  0.00  0.00    -0.181 N 
ATOM      4  C   UNL     1       1.571  12.239   0.189  0.00  0.00    +0.173 C 
ATOM      5  C   UNL     1       0.290  13.032  -0.140  0.00  0.00    +0.090 C 
ATOM      6  C   UNL     1      -0.741  11.960  -0.414  0.00  0.00    +0.069 C 
ATOM      7  N   UNL     1      -0.200  10.799  -0.284  0.00  0.00    -0.181 NA
ENDROOT
BRANCH   6   8
ATOM      8  C   UNL     1      -2.150  12.207  -0.775  0.00  0.00    -0.002 A 
ATOM      9  C   UNL     1      -2.627  13.516  -0.881  0.00  0.00    +0.011 A 
ATOM     10  C   UNL     1      -3.944  13.740  -1.225  0.00  0.00    +0.020 A 
ATOM     11  C   UNL     1      -4.795  12.671  -1.454  0.00  0.00    +0.041 A 
ATOM     12  C   UNL     1      -4.329  11.371  -1.344  0.00  0.00    +0.020 A 
ATOM     13  C   UNL     1      -3.013  11.134  -1.006  0.00  0.00    +0.011 A 
ATOM     14 CL   UNL     1      -6.452  12.962  -1.879  0.00  0.00    -0.084 Cl
ENDBRANCH   6   8
BRANCH   4  15
ATOM     15  C   UNL     1       2.031  12.530   1.594  0.00  0.00    +0.128 A 
ATOM     16  C   UNL     1       3.069  13.316   1.935  0.00  0.00    +0.046 A 
ATOM     17  C   UNL     1       3.143  13.307   3.347  0.00  0.00    +0.041 A 
ATOM     18  C   UNL     1       2.145  12.518   3.784  0.00  0.00    +0.195 A 
ATOM     19  O   UNL     1       1.472  12.055   2.719  0.00  0.00    -0.466 OA
ENDBRANCH   4  15
BRANCH   1  20
ATOM     20  C   UNL     1       1.371   8.371   0.100  0.00  0.00    +0.175 C 
BRANCH  20  21
ATOM     21  S   UNL     1       2.667   7.151   0.425  0.00  0.00    -0.075 S 
BRANCH  21  25
ATOM     22  C   UNL     1       1.172   3.565   0.011  0.00  0.00    +0.182 A 
ATOM     23  N   UNL     1       0.144   4.338  -0.254  0.00  0.00    -0.127 NA
ATOM     24  N   UNL     1       0.486   5.572  -0.150  0.00  0.00    -0.121 NA
ATOM     25  C   UNL     1       1.756   5.663   0.178  0.00  0.00    +0.209 A 
ATOM     26  N   UNL     1       2.236   4.390   0.291  0.00  0.00    -0.224 N 
BRANCH  22  31
ATOM     27  C   UNL     1       1.221  -2.189  -0.021  0.00  0.00    +0.044 C 
ATOM     28  C   UNL     1       1.208  -0.682  -0.013  0.00  0.00    -0.050 A 
ATOM     29  C   UNL     1       0.002  -0.004   0.002  0.00  0.00    +0.004 A 
ATOM     30  C   UNL     1      -0.017   1.375   0.010  0.00  0.00    +0.012 A 
ATOM     31  C   UNL     1       1.184   2.087   0.002  0.00  0.00    +0.021 A 
ATOM     32  C   UNL     1       2.397   1.396  -0.012  0.00  0.00    +0.012 A 
ATOM     33  C   UNL     1       2.402   0.016  -0.020  0.00  0.00    +0.004 A 
ENDBRANCH  22  31
BRANCH  26  34
ATOM     34  N   UNL     1       3.509   4.014   0.616  0.00  0.00    -0.295 N 
ATOM     35  H   UNL     1       4.080   3.922  -0.211  0.00  0.00    +0.163 HD
ATOM     36  H   UNL     1       3.921   4.662   1.270  0.00  0.00    +0.163 HD
ENDBRANCH  26  34
ENDBRANCH  21  25
ENDBRANCH  20  21
ENDBRANCH   1  20
TORSDOF 7
