REMARK  Name = ZINC20266549
REMARK  7 active torsions:
REMARK  status: ('A' for Active; 'I' for Inactive)
REMARK    1  A    between atoms: C_1  and  O_2
REMARK    2  A    between atoms: O_2  and  C_3
REMARK    3  A    between atoms: C_5  and  C_18
REMARK    4  A    between atoms: C_8  and  O_9
REMARK    5  A    between atoms: O_9  and  C_10
REMARK    6  A    between atoms: C_10  and  C_11
REMARK    7  A    between atoms: C_30  and  C_31
REMARK                            x       y       z     vdW  Elec       q    Type
REMARK                         _______ _______ _______ _____ _____    ______ ____
ROOT
ATOM      1  C   UNL     1      -4.850   0.216   0.038  0.00  0.00    +0.025 C 
ATOM      2  C   UNL     1      -6.063  -0.428  -0.059  0.00  0.00    +0.085 A 
ATOM      3  C   UNL     1      -7.346   0.324  -0.169  0.00  0.00    +0.160 A 
ATOM      4  N   UNL     1      -7.456   1.471  -0.783  0.00  0.00    -0.281 NA
ATOM      5  N   UNL     1      -8.429  -0.327   0.457  0.00  0.00    -0.212 N 
ATOM      6  C   UNL     1      -8.351  -1.699   0.605  0.00  0.00    +0.199 A 
ATOM      7  N   UNL     1      -7.328  -2.466   0.345  0.00  0.00    -0.182 NA
ATOM      8  C   UNL     1      -6.165  -1.908  -0.065  0.00  0.00    +0.283 A 
ATOM      9  O   UNL     1      -5.228  -2.600  -0.425  0.00  0.00    -0.265 OA
ATOM     10  S   UNL     1      -9.955  -2.128   1.230  0.00  0.00    -0.031 S 
ATOM     11  C   UNL     1     -10.614  -0.474   1.382  0.00  0.00    +0.101 A 
ATOM     12  N   UNL     1      -9.566   0.296   0.927  0.00  0.00    -0.283 N 
ATOM     13  C   UNL     1     -11.839  -0.077   1.832  0.00  0.00    +0.102 C 
ATOM     14  H   UNL     1      -8.315   1.918  -0.826  0.00  0.00    +0.188 HD
ATOM     15  H   UNL     1      -9.628   1.264   0.937  0.00  0.00    +0.188 HD
ENDROOT
BRANCH  13  16
ATOM     16  C   UNL     1     -12.163   1.288   1.872  0.00  0.00    +0.242 C 
ATOM     17  O   UNL     1     -11.350   2.119   1.505  0.00  0.00    -0.271 OA
ATOM     18  N   UNL     1     -13.373   1.681   2.317  0.00  0.00    -0.298 N 
ATOM     19  C   UNL     1     -14.441   0.790   2.793  0.00  0.00    +0.108 C 
ATOM     20  C   UNL     1     -15.644   1.679   3.173  0.00  0.00    +0.020 C 
ATOM     21  C   UNL     1     -15.390   2.974   2.357  0.00  0.00    +0.020 C 
ATOM     22  C   UNL     1     -13.844   3.075   2.412  0.00  0.00    +0.108 C 
ENDBRANCH  13  16
BRANCH   1  25
ATOM     23  C   UNL     1      -1.281  -0.927  -0.007  0.00  0.00    +0.162 A 
ATOM     24  C   UNL     1      -2.422  -0.201  -0.284  0.00  0.00    +0.057 A 
ATOM     25  C   UNL     1      -3.635  -0.550   0.326  0.00  0.00    -0.021 A 
ATOM     26  C   UNL     1      -3.682  -1.635   1.214  0.00  0.00    +0.012 A 
ATOM     27  C   UNL     1      -2.538  -2.352   1.482  0.00  0.00    +0.050 A 
ATOM     28  C   UNL     1      -1.338  -2.008   0.873  0.00  0.00    +0.162 A 
BRANCH  23  30
ATOM     29  C   UNL     1      -0.117   0.526  -1.487  0.00  0.00    +0.277 C 
ATOM     30  O   UNL     1      -0.102  -0.591  -0.597  0.00  0.00    -0.491 OA
ENDBRANCH  23  30
BRANCH  28  31
ATOM     31  O   UNL     1      -0.215  -2.723   1.139  0.00  0.00    -0.484 OA
BRANCH  31  32
ATOM     32  C   UNL     1      -0.343  -3.818   2.049  0.00  0.00    +0.267 C 
BRANCH  32  33
ATOM     33  C   UNL     1       0.996  -4.488   2.220  0.00  0.00    +0.025 A 
ATOM     34  C   UNL     1       2.101  -4.008   1.542  0.00  0.00    +0.010 A 
ATOM     35  C   UNL     1       3.329  -4.623   1.699  0.00  0.00    +0.001 A 
ATOM     36  C   UNL     1       3.454  -5.718   2.533  0.00  0.00    +0.003 A 
ATOM     37  C   UNL     1       2.351  -6.200   3.212  0.00  0.00    +0.039 A 
ATOM     38  C   UNL     1       1.121  -5.581   3.060  0.00  0.00    +0.130 A 
ATOM     39  F   UNL     1       0.043  -6.048   3.727  0.00  0.00    -0.205 F 
ENDBRANCH  32  33
ENDBRANCH  31  32
ENDBRANCH  28  31
ENDBRANCH   1  25
TORSDOF 6
