REMARK  Name = ZINC58202274
REMARK  8 active torsions:
REMARK  status: ('A' for Active; 'I' for Inactive)
REMARK    1  A    between atoms: C_1  and  C_2
REMARK    2  A    between atoms: C_2  and  C_3
REMARK    3  A    between atoms: C_2  and  C_4
REMARK    4  A    between atoms: C_2  and  C_5
REMARK    5  A    between atoms: C_5  and  C_7
REMARK    6  A    between atoms: C_5  and  N_12
REMARK    7  A    between atoms: N_15  and  C_16
REMARK    8  A    between atoms: C_16  and  C_17
REMARK                            x       y       z     vdW  Elec       q    Type
REMARK                         _______ _______ _______ _____ _____    ______ ____
ROOT
ATOM      1  N   UNL     1       0.707  -1.961  -1.209  0.00  0.00    -0.292 N 
ATOM      2  C   UNL     1      -0.334  -2.648  -1.721  0.00  0.00    +0.300 C 
ATOM      3  O   UNL     1      -1.292  -2.051  -2.172  0.00  0.00    -0.253 OA
ATOM      4  N   UNL     1      -0.312  -3.995  -1.733  0.00  0.00    -0.295 N 
ATOM      5  H   UNL     1       1.472  -2.437  -0.850  0.00  0.00    +0.151 HD
ATOM      6  H   UNL     1       0.453  -4.471  -1.373  0.00  0.00    +0.151 HD
ENDROOT
BRANCH   1   7
ATOM      7  C   UNL     1       0.683  -0.497  -1.197  0.00  0.00    +0.117 C 
BRANCH   7   8
ATOM      8  C   UNL     1       2.096   0.028  -1.175  0.00  0.00    +0.011 A 
ATOM      9  C   UNL     1       2.622   1.091  -1.832  0.00  0.00    +0.013 A 
ATOM     10  C   UNL     1       3.960   1.391  -1.659  0.00  0.00    +0.008 A 
ATOM     11  C   UNL     1       4.707   0.613  -0.838  0.00  0.00    +0.045 A 
ATOM     12  S   UNL     1       3.509  -0.583  -0.272  0.00  0.00    -0.100 S 
ENDBRANCH   7   8
BRANCH   7  14
ATOM     13  C   UNL     1      -0.085   1.520   0.061  0.00  0.00    +0.013 C 
ATOM     14  C   UNL     1      -0.061  -0.009   0.048  0.00  0.00    -0.015 C 
ATOM     15  C   UNL     1       0.654  -0.519   1.302  0.00  0.00    +0.013 C 
ATOM     16  C   UNL     1      -1.495  -0.542   0.026  0.00  0.00    +0.013 C 
ENDBRANCH   7  14
ENDBRANCH   1   7
BRANCH   4  17
ATOM     17  C   UNL     1      -1.444  -4.741  -2.289  0.00  0.00    +0.142 C 
BRANCH  17  18
ATOM     18  C   UNL     1      -1.172  -6.220  -2.183  0.00  0.00    -0.014 A 
ATOM     19  C   UNL     1      -0.521  -6.889  -3.211  0.00  0.00    +0.010 A 
ATOM     20  C   UNL     1      -0.290  -8.246  -3.074  0.00  0.00    +0.042 A 
ATOM     21  C   UNL     1      -0.717  -8.890  -1.917  0.00  0.00    +0.099 A 
ATOM     22  N   UNL     1      -1.334  -8.217  -0.959  0.00  0.00    -0.349 N 
ATOM     23  C   UNL     1      -1.562  -6.921  -1.060  0.00  0.00    +0.089 A 
ATOM     24  N   UNL     1      -0.492 -10.254  -1.766  0.00  0.00    -0.317 N 
ATOM     25  C   UNL     1      -0.815 -10.930  -0.502  0.00  0.00    +0.106 C 
ATOM     26  C   UNL     1      -1.727 -12.124  -0.800  0.00  0.00    +0.019 C 
ATOM     27  C   UNL     1      -1.058 -13.024  -1.842  0.00  0.00    +0.003 C 
ATOM     28  C   UNL     1      -0.850 -12.239  -3.139  0.00  0.00    +0.019 C 
ATOM     29  C   UNL     1       0.066 -11.047  -2.869  0.00  0.00    +0.106 C 
ATOM     30  H   UNL     1      -1.623  -8.687  -0.161  0.00  0.00    +0.167 HD
ENDBRANCH  17  18
ENDBRANCH   4  17
TORSDOF 5
