REMARK  Name = ZINC15228218
REMARK  10 active torsions:
REMARK  status: ('A' for Active; 'I' for Inactive)
REMARK    1  A    between atoms: C_4  and  C_7
REMARK    2  A    between atoms: C_7  and  O_8
REMARK    3  A    between atoms: O_8  and  C_9
REMARK    4  A    between atoms: N_11  and  C_12
REMARK    5  A    between atoms: C_12  and  C_13
REMARK    6  A    between atoms: N_15  and  N_16
REMARK    7  A    between atoms: C_17  and  C_18
REMARK    8  A    between atoms: C_27  and  O_28
REMARK    9  A    between atoms: O_28  and  C_29
REMARK   10  A    between atoms: C_29  and  C_30
REMARK                            x       y       z     vdW  Elec       q    Type
REMARK                         _______ _______ _______ _____ _____    ______ ____
ROOT
ATOM      1  N   UNL     1       0.139  -5.706   6.216  0.00  0.00    -0.188 NA
ATOM      2  C   UNL     1       0.159  -6.944   6.612  0.00  0.00    +0.142 C 
ENDROOT
BRANCH   2   3
ATOM      3  C   UNL     1       0.177  -7.256   8.048  0.00  0.00    +0.044 A 
ATOM      4  C   UNL     1       0.200  -8.642   8.511  0.00  0.00    -0.006 A 
ATOM      5  C   UNL     1       0.206  -9.713   7.610  0.00  0.00    +0.009 A 
ATOM      6  C   UNL     1       0.229 -10.992   8.082  0.00  0.00    +0.001 A 
ATOM      7  C   UNL     1       0.246 -11.248   9.451  0.00  0.00    +0.001 A 
ATOM      8  C   UNL     1       0.241 -10.230  10.355  0.00  0.00    +0.008 A 
ATOM      9  C   UNL     1       0.217  -8.899   9.904  0.00  0.00    -0.017 A 
ATOM     10  C   UNL     1       0.212  -7.822  10.807  0.00  0.00    +0.012 A 
ATOM     11  C   UNL     1       0.190  -6.539  10.360  0.00  0.00    +0.047 A 
ATOM     12  C   UNL     1       0.178  -6.236   8.999  0.00  0.00    +0.130 A 
BRANCH  12  13
ATOM     13  O   UNL     1       0.162  -4.939   8.597  0.00  0.00    -0.487 OA
BRANCH  13  14
ATOM     14  C   UNL     1       0.164  -3.942   9.621  0.00  0.00    +0.264 C 
BRANCH  14  15
ATOM     15  C   UNL     1       0.145  -2.574   8.989  0.00  0.00    -0.010 A 
ATOM     16  C   UNL     1       1.333  -1.933   8.692  0.00  0.00    +0.008 A 
ATOM     17  C   UNL     1       1.316  -0.680   8.108  0.00  0.00    +0.020 A 
ATOM     18  C   UNL     1       0.109  -0.063   7.831  0.00  0.00    +0.041 A 
ATOM     19  C   UNL     1      -1.080  -0.702   8.134  0.00  0.00    +0.020 A 
ATOM     20  C   UNL     1      -1.062  -1.957   8.713  0.00  0.00    +0.008 A 
ATOM     21 CL   UNL     1       0.087   1.513   7.104  0.00  0.00    -0.084 Cl
ENDBRANCH  14  15
ENDBRANCH  13  14
ENDBRANCH  12  13
ENDBRANCH   2   3
BRANCH   1  24
ATOM     22  C   UNL     1       0.100  -4.126   4.436  0.00  0.00    +0.249 C 
ATOM     23  O   UNL     1       0.096  -3.228   5.252  0.00  0.00    -0.272 OA
ATOM     24  N   UNL     1       0.122  -5.409   4.847  0.00  0.00    -0.206 N 
ATOM     25  H   UNL     1       0.125  -6.127   4.195  0.00  0.00    +0.177 HD
BRANCH  22  26
ATOM     26  C   UNL     1       0.082  -3.806   2.964  0.00  0.00    +0.205 C 
BRANCH  26  29
ATOM     27  C   UNL     1       0.042  -1.831   1.537  0.00  0.00    +0.401 C 
ATOM     28  O   UNL     1       0.042  -2.566   0.570  0.00  0.00    -0.226 OA
ATOM     29  N   UNL     1       0.060  -2.353   2.780  0.00  0.00    -0.272 N 
ATOM     30  H   UNL     1       0.060  -1.766   3.552  0.00  0.00    +0.153 HD
BRANCH  27  31
ATOM     31  O   UNL     1       0.022  -0.495   1.368  0.00  0.00    -0.446 OA
BRANCH  31  32
ATOM     32  C   UNL     1       0.002  -0.004   0.002  0.00  0.00    +0.269 C 
BRANCH  32  36
ATOM     33  C   UNL     1      -0.056   4.267   0.025  0.00  0.00    +0.000 A 
ATOM     34  C   UNL     1       1.151   3.592   0.010  0.00  0.00    +0.000 A 
ATOM     35  C   UNL     1       1.169   2.210   0.003  0.00  0.00    +0.007 A 
ATOM     36  C   UNL     1      -0.018   1.503   0.010  0.00  0.00    -0.010 A 
ATOM     37  C   UNL     1      -1.225   2.178   0.020  0.00  0.00    +0.007 A 
ATOM     38  C   UNL     1      -1.244   3.560   0.032  0.00  0.00    +0.000 A 
ENDBRANCH  32  36
ENDBRANCH  31  32
ENDBRANCH  27  31
ENDBRANCH  26  29
ENDBRANCH  22  26
ENDBRANCH   1  24
TORSDOF 10
