REMARK  Name = ZINC09136713
REMARK  6 active torsions:
REMARK  status: ('A' for Active; 'I' for Inactive)
REMARK    1  A    between atoms: C_4  and  C_32
REMARK    2  A    between atoms: C_5  and  C_7
REMARK    3  A    between atoms: C_7  and  O_8
REMARK    4  A    between atoms: O_8  and  C_9
REMARK    5  A    between atoms: C_12  and  C_15
REMARK    6  A    between atoms: N_22  and  C_25
REMARK                            x       y       z     vdW  Elec       q    Type
REMARK                         _______ _______ _______ _____ _____    ______ ____
ROOT
ATOM      1  C   UNL     1      -0.792   9.654   0.777  0.00  0.00    +0.026 C 
ATOM      2  C   UNL     1      -2.077  10.136   0.941  0.00  0.00    +0.100 C 
ATOM      3  C   UNL     1      -3.216   9.228   1.185  0.00  0.00    +0.257 C 
ATOM      4  O   UNL     1      -3.053   8.025   1.249  0.00  0.00    -0.270 OA
ATOM      5  N   UNL     1      -4.442   9.771   1.335  0.00  0.00    -0.235 N 
ATOM      6  C   UNL     1      -4.635  11.096   1.266  0.00  0.00    +0.320 C 
ATOM      7  O   UNL     1      -5.765  11.520   1.410  0.00  0.00    -0.251 OA
ATOM      8  N   UNL     1      -3.650  11.978   1.047  0.00  0.00    -0.190 N 
ATOM      9  C   UNL     1      -2.371  11.581   0.884  0.00  0.00    +0.263 C 
ATOM     10  O   UNL     1      -1.485  12.392   0.692  0.00  0.00    -0.269 OA
ATOM     11  H   UNL     1      -5.201   9.190   1.496  0.00  0.00    +0.159 HD
ENDROOT
BRANCH   8  12
ATOM     12  C   UNL     1      -3.955  13.345   0.992  0.00  0.00    +0.046 A 
ATOM     13  C   UNL     1      -4.156  13.964  -0.234  0.00  0.00    +0.025 A 
ATOM     14  C   UNL     1      -4.460  15.310  -0.285  0.00  0.00    +0.017 A 
ATOM     15  C   UNL     1      -4.556  16.044   0.884  0.00  0.00    +0.018 A 
ATOM     16  C   UNL     1      -4.351  15.430   2.107  0.00  0.00    +0.017 A 
ATOM     17  C   UNL     1      -4.051  14.083   2.164  0.00  0.00    +0.025 A 
ATOM     18 BR   UNL     1      -4.965  17.888   0.810  0.00  0.00    -0.050 Br
ENDBRANCH   8  12
BRANCH   1  22
ATOM     19  C   UNL     1      -0.143   5.514   0.228  0.00  0.00    +0.121 A 
ATOM     20  C   UNL     1       0.681   6.237   1.085  0.00  0.00    +0.046 A 
ATOM     21  C   UNL     1       0.480   7.576   1.263  0.00  0.00    +0.011 A 
ATOM     22  C   UNL     1      -0.568   8.221   0.587  0.00  0.00    -0.024 A 
ATOM     23  C   UNL     1      -1.399   7.485  -0.272  0.00  0.00    +0.011 A 
ATOM     24  C   UNL     1      -1.184   6.148  -0.445  0.00  0.00    +0.046 A 
BRANCH  19  25
ATOM     25  O   UNL     1       0.065   4.186   0.052  0.00  0.00    -0.487 OA
BRANCH  25  26
ATOM     26  C   UNL     1       1.150   3.598   0.772  0.00  0.00    +0.265 C 
BRANCH  26  31
ATOM     27  C   UNL     1       0.390   0.211  -0.715  0.00  0.00    +0.000 A 
ATOM     28  C   UNL     1       1.365  -0.581  -0.134  0.00  0.00    +0.001 A 
ATOM     29  C   UNL     1       2.276  -0.029   0.741  0.00  0.00    +0.019 A 
ATOM     30  C   UNL     1       2.213   1.334   1.042  0.00  0.00    +0.058 A 
ATOM     31  C   UNL     1       1.226   2.127   0.453  0.00  0.00    +0.007 A 
ATOM     32  C   UNL     1       0.321   1.561  -0.421  0.00  0.00    +0.008 A 
BRANCH  30  33
ATOM     33  C   UNL     1       3.155   1.914   1.950  0.00  0.00    +0.100 C 
ATOM     34  N   UNL     1       3.904   2.375   2.671  0.00  0.00    -0.191 NA
ENDBRANCH  30  33
ENDBRANCH  26  31
ENDBRANCH  25  26
ENDBRANCH  19  25
ENDBRANCH   1  22
TORSDOF 6
