REMARK  Name = ZINC67556886
REMARK  9 active torsions:
REMARK  status: ('A' for Active; 'I' for Inactive)
REMARK    1  A    between atoms: C_1  and  C_2
REMARK    2  A    between atoms: C_2  and  C_3
REMARK    3  A    between atoms: C_3  and  N_4
REMARK    4  A    between atoms: C_10  and  N_13
REMARK    5  A    between atoms: C_14  and  C_16
REMARK    6  A    between atoms: N_18  and  C_19
REMARK    7  A    between atoms: C_19  and  C_20
REMARK    8  A    between atoms: C_20  and  C_22
REMARK    9  A    between atoms: C_20  and  O_29
REMARK                            x       y       z     vdW  Elec       q    Type
REMARK                         _______ _______ _______ _____ _____    ______ ____
ROOT
ATOM      1  N   UNL     1       2.661  -4.836   4.070  0.00  0.00    -0.278 N 
ATOM      2  C   UNL     1       3.283  -5.997   4.356  0.00  0.00    +0.303 C 
ATOM      3  O   UNL     1       2.753  -7.054   4.081  0.00  0.00    -0.265 OA
ATOM      4  H   UNL     1       3.117  -3.993   4.215  0.00  0.00    +0.155 HD
ENDROOT
BRANCH   1  11
ATOM      5  N   UNL     1       0.742  -1.982   1.244  0.00  0.00    +0.385 N 
ATOM      6  C   UNL     1      -0.610  -2.520   1.520  0.00  0.00    -0.042 C 
ATOM      7  C   UNL     1      -0.390  -3.796   2.301  0.00  0.00    -0.061 A 
ATOM      8  C   UNL     1      -1.220  -4.872   2.559  0.00  0.00    +0.002 A 
ATOM      9  C   UNL     1      -0.765  -5.935   3.317  0.00  0.00    +0.002 A 
ATOM     10  C   UNL     1       0.521  -5.926   3.820  0.00  0.00    +0.023 A 
ATOM     11  C   UNL     1       1.359  -4.848   3.563  0.00  0.00    +0.035 A 
ATOM     12  C   UNL     1       0.899  -3.782   2.801  0.00  0.00    -0.041 A 
ATOM     13  C   UNL     1       1.563  -2.496   2.364  0.00  0.00    -0.040 C 
ATOM     14  H   UNL     1       1.089  -2.328   0.362  0.00  0.00    -0.081 HD
BRANCH   5  15
ATOM     15  C   UNL     1       0.723  -0.513   1.250  0.00  0.00    -0.078 C 
BRANCH  15  17
ATOM     16  C   UNL     1      -0.045   1.522   0.022  0.00  0.00    +0.002 C 
ATOM     17  C   UNL     1      -0.026  -0.008   0.016  0.00  0.00    -0.022 C 
ENDBRANCH  15  17
ENDBRANCH   5  15
ENDBRANCH   1  11
BRANCH   2  18
ATOM     18  C   UNL     1       4.624  -5.983   5.012  0.00  0.00    +0.299 C 
ATOM     19  O   UNL     1       5.154  -4.927   5.288  0.00  0.00    -0.265 OA
ATOM     20  N   UNL     1       5.246  -7.144   5.299  0.00  0.00    -0.305 N 
ATOM     21  H   UNL     1       4.823  -7.989   5.079  0.00  0.00    +0.149 HD
BRANCH  20  22
ATOM     22  C   UNL     1       6.562  -7.131   5.942  0.00  0.00    +0.140 C 
BRANCH  22  23
ATOM     23  C   UNL     1       7.041  -8.568   6.155  0.00  0.00    +0.162 C 
BRANCH  23  24
ATOM     24  C   UNL     1       8.395  -8.555   6.817  0.00  0.00    -0.015 A 
ATOM     25  C   UNL     1       8.490  -8.466   8.193  0.00  0.00    +0.006 A 
ATOM     26  C   UNL     1       9.731  -8.453   8.802  0.00  0.00    +0.003 A 
ATOM     27  C   UNL     1      10.878  -8.528   8.035  0.00  0.00    +0.038 A 
ATOM     28  C   UNL     1      10.784  -8.617   6.657  0.00  0.00    +0.124 A 
ATOM     29  C   UNL     1       9.540  -8.636   6.048  0.00  0.00    +0.044 A 
ATOM     30  F   UNL     1      11.905  -8.690   5.906  0.00  0.00    -0.205 F 
ENDBRANCH  23  24
BRANCH  23  31
ATOM     31  O   UNL     1       6.110  -9.262   6.988  0.00  0.00    -0.386 OA
ATOM     32  H   UNL     1       5.996  -8.867   7.863  0.00  0.00    +0.210 HD
ENDBRANCH  23  31
ENDBRANCH  22  23
ENDBRANCH  20  22
ENDBRANCH   2  18
TORSDOF 8
