REMARK  Name = ZINC09882324
REMARK  10 active torsions:
REMARK  status: ('A' for Active; 'I' for Inactive)
REMARK    1  A    between atoms: C_3  and  S_24
REMARK    2  A    between atoms: C_6  and  C_7
REMARK    3  A    between atoms: C_7  and  C_8
REMARK    4  A    between atoms: C_8  and  N_9
REMARK    5  A    between atoms: C_10  and  C_12
REMARK    6  A    between atoms: C_12  and  O_13
REMARK    7  A    between atoms: O_13  and  C_14
REMARK    8  A    between atoms: C_14  and  C_16
REMARK    9  A    between atoms: C_21  and  O_22
REMARK   10  A    between atoms: S_24  and  N_27
REMARK                            x       y       z     vdW  Elec       q    Type
REMARK                         _______ _______ _______ _____ _____    ______ ____
ROOT
ATOM      1  N   UNL     1       4.489   8.316   0.004  0.00  0.00    -0.312 N 
ATOM      2  C   UNL     1       3.438   7.473   0.009  0.00  0.00    +0.251 C 
ATOM      3  O   UNL     1       2.308   7.913   0.021  0.00  0.00    -0.272 OA
ATOM      4  H   UNL     1       5.393   7.965  -0.006  0.00  0.00    +0.149 HD
ENDROOT
BRANCH   1   5
ATOM      5  C   UNL     1       4.266   9.764   0.013  0.00  0.00    +0.109 C 
BRANCH   5   6
ATOM      6  C   UNL     1       5.615  10.488   0.004  0.00  0.00    +0.054 C 
BRANCH   6  12
ATOM      7  C   UNL     1       5.276  12.667  -1.179  0.00  0.00    +0.005 A 
ATOM      8  C   UNL     1       5.061  14.033  -1.170  0.00  0.00    +0.029 A 
ATOM      9  C   UNL     1       4.966  14.710   0.032  0.00  0.00    +0.105 A 
ATOM     10  C   UNL     1       5.082  14.021   1.224  0.00  0.00    +0.029 A 
ATOM     11  C   UNL     1       5.292  12.654   1.216  0.00  0.00    +0.005 A 
ATOM     12  C   UNL     1       5.386  11.977   0.014  0.00  0.00    -0.046 A 
BRANCH   9  13
ATOM     13  S   UNL     1       4.697  16.451   0.043  0.00  0.00    +0.056 S 
ATOM     14  O   UNL     1       4.081  16.775  -1.196  0.00  0.00    -0.153 OA
ATOM     15  O   UNL     1       4.101  16.762   1.295  0.00  0.00    -0.153 OA
BRANCH  13  16
ATOM     16  N   UNL     1       6.186  17.176   0.034  0.00  0.00    -0.204 NA
ATOM     17  H   UNL     1       6.300  18.045  -0.382  0.00  0.00    +0.144 HD
ATOM     18  H   UNL     1       6.944  16.733   0.446  0.00  0.00    +0.144 HD
ENDBRANCH  13  16
ENDBRANCH   9  13
ENDBRANCH   6  12
ENDBRANCH   5   6
ENDBRANCH   1   5
BRANCH   2  19
ATOM     19  C   UNL     1       3.667   5.984  -0.001  0.00  0.00    +0.328 C 
BRANCH  19  20
ATOM     20  O   UNL     1       2.387   5.297   0.007  0.00  0.00    -0.452 OA
BRANCH  20  21
ATOM     21  C   UNL     1       2.416   3.950   0.000  0.00  0.00    +0.343 C 
ATOM     22  O   UNL     1       3.480   3.365  -0.012  0.00  0.00    -0.245 OA
BRANCH  21  23
ATOM     23  C   UNL     1       1.155   3.186   0.008  0.00  0.00    +0.101 A 
ATOM     24  C   UNL     1      -0.072   3.855   0.022  0.00  0.00    +0.034 A 
ATOM     25  C   UNL     1      -1.247   3.135   0.030  0.00  0.00    +0.019 A 
ATOM     26  C   UNL     1      -1.218   1.749   0.017  0.00  0.00    +0.019 A 
ATOM     27  C   UNL     1      -0.013   1.076   0.008  0.00  0.00    +0.047 A 
ATOM     28  C   UNL     1       1.180   1.785   0.000  0.00  0.00    +0.131 A 
ATOM     29 BR   UNL     1      -2.907   4.041   0.050  0.00  0.00    -0.050 Br
BRANCH  28  30
ATOM     30  O   UNL     1       2.365   1.124  -0.015  0.00  0.00    -0.506 OA
ATOM     31  H   UNL     1       2.700   0.938  -0.902  0.00  0.00    +0.292 HD
ENDBRANCH  28  30
ENDBRANCH  21  23
ENDBRANCH  20  21
ENDBRANCH  19  20
ENDBRANCH   2  19
TORSDOF 10
