REMARK  Name = ZINC40728231
REMARK  8 active torsions:
REMARK  status: ('A' for Active; 'I' for Inactive)
REMARK    1  A    between atoms: C_3  and  C_8
REMARK    2  A    between atoms: C_8  and  O_9
REMARK    3  A    between atoms: O_9  and  C_10
REMARK    4  A    between atoms: C_13  and  C_16
REMARK    5  A    between atoms: C_16  and  N_17
REMARK    6  A    between atoms: N_17  and  C_18
REMARK    7  A    between atoms: C_18  and  C_19
REMARK    8  A    between atoms: C_19  and  C_20
REMARK                            x       y       z     vdW  Elec       q    Type
REMARK                         _______ _______ _______ _____ _____    ______ ____
ROOT
ATOM      1  C   UNL     1       5.252   3.110   1.494  0.00  0.00    +0.121 A 
ATOM      2  C   UNL     1       5.965   3.555   0.390  0.00  0.00    +0.046 A 
ATOM      3  C   UNL     1       7.143   4.256   0.566  0.00  0.00    +0.008 A 
ATOM      4  C   UNL     1       7.611   4.514   1.842  0.00  0.00    -0.033 A 
ATOM      5  C   UNL     1       6.902   4.072   2.943  0.00  0.00    +0.008 A 
ATOM      6  C   UNL     1       5.721   3.376   2.773  0.00  0.00    +0.046 A 
ENDROOT
BRANCH   1   7
ATOM      7  O   UNL     1       4.094   2.421   1.323  0.00  0.00    -0.487 OA
BRANCH   7   8
ATOM      8  C   UNL     1       3.672   2.184  -0.021  0.00  0.00    +0.264 C 
BRANCH   8  11
ATOM      9  C   UNL     1      -0.017   1.378   0.010  0.00  0.00    +0.002 A 
ATOM     10  C   UNL     1       1.171   2.086   0.002  0.00  0.00    +0.007 A 
ATOM     11  C   UNL     1       2.378   1.412  -0.013  0.00  0.00    -0.009 A 
ATOM     12  C   UNL     1       2.398   0.029  -0.021  0.00  0.00    +0.027 A 
ATOM     13  C   UNL     1       1.210  -0.679  -0.013  0.00  0.00    +0.041 A 
ATOM     14  C   UNL     1       0.002  -0.004   0.002  0.00  0.00    +0.020 A 
ATOM     15 CL   UNL     1       1.234  -2.415  -0.024  0.00  0.00    -0.084 Cl
ENDBRANCH   8  11
ENDBRANCH   7   8
ENDBRANCH   1   7
BRANCH   4  16
ATOM     16  C   UNL     1       8.895   5.279   2.031  0.00  0.00    +0.116 C 
BRANCH  16  17
ATOM     17  N   UNL     1       8.602   6.716   2.112  0.00  0.00    -0.312 NA
ATOM     18  H   UNL     1       8.096   7.028   1.297  0.00  0.00    +0.122 HD
BRANCH  17  19
ATOM     19  C   UNL     1       9.834   7.495   2.297  0.00  0.00    +0.086 C 
BRANCH  19  20
ATOM     20  C   UNL     1       9.490   8.983   2.377  0.00  0.00    +0.051 C 
BRANCH  20  21
ATOM     21  C   UNL     1      10.753   9.782   2.567  0.00  0.00    -0.028 A 
ATOM     22  C   UNL     1      11.160  10.140   3.839  0.00  0.00    +0.006 A 
ATOM     23  C   UNL     1      12.319  10.873   4.013  0.00  0.00    +0.020 A 
ATOM     24  C   UNL     1      13.073  11.248   2.916  0.00  0.00    +0.042 A 
ATOM     25  C   UNL     1      12.667  10.889   1.643  0.00  0.00    +0.040 A 
ATOM     26  C   UNL     1      11.509  10.152   1.469  0.00  0.00    +0.046 A 
ATOM     27 CL   UNL     1      11.002   9.696  -0.128  0.00  0.00    -0.083 Cl
ATOM     28 CL   UNL     1      14.528  12.168   3.135  0.00  0.00    -0.083 Cl
ENDBRANCH  20  21
ENDBRANCH  19  20
ENDBRANCH  17  19
ENDBRANCH  16  17
ENDBRANCH   4  16
TORSDOF 8
