REMARK  Name = ZINC11812753
REMARK  8 active torsions:
REMARK  status: ('A' for Active; 'I' for Inactive)
REMARK    1  A    between atoms: C_1  and  O_2
REMARK    2  A    between atoms: O_2  and  C_3
REMARK    3  A    between atoms: C_8  and  C_9
REMARK    4  A    between atoms: C_10  and  C_11
REMARK    5  A    between atoms: C_11  and  N_60
REMARK    6  A    between atoms: C_14  and  C_17
REMARK    7  A    between atoms: C_17  and  C_24
REMARK    8  A    between atoms: C_24  and  C_25
REMARK                            x       y       z     vdW  Elec       q    Type
REMARK                         _______ _______ _______ _____ _____    ______ ____
ROOT
ATOM      1  C   UNL     1       1.425  -6.218  -2.989  0.00  0.00    -0.078 C 
ATOM      2  C   UNL     1       1.289  -4.694  -2.957  0.00  0.00    -0.013 C 
ATOM      3  C   UNL     1       1.295  -4.217  -1.502  0.00  0.00    +0.018 C 
ATOM      4  C   UNL     1       2.586  -4.683  -0.824  0.00  0.00    -0.013 C 
ATOM      5  C   UNL     1       2.684  -6.207  -0.918  0.00  0.00    -0.078 C 
ATOM      6  N   UNL     1       2.699  -6.601  -2.344  0.00  0.00    +0.382 N 
ATOM      7  H   UNL     1       3.470  -6.114  -2.816  0.00  0.00    -0.081 HD
ENDROOT
BRANCH   3   8
ATOM      8  C   UNL     1       1.221  -2.689  -1.465  0.00  0.00    +0.119 C 
ATOM      9  C   UNL     1      -0.013  -2.197  -2.195  0.00  0.00    +0.244 C 
ATOM     10  O   UNL     1      -1.169  -2.436  -1.922  0.00  0.00    -0.273 OA
ATOM     11  N   UNL     1       0.443  -1.438  -3.212  0.00  0.00    -0.238 N 
ATOM     12  C   UNL     1       1.780  -1.383  -3.225  0.00  0.00    +0.307 C 
ATOM     13  O   UNL     1       2.422  -0.761  -4.048  0.00  0.00    -0.252 OA
ATOM     14  N   UNL     1       2.334  -2.095  -2.227  0.00  0.00    -0.284 N 
ATOM     15  H   UNL     1      -0.127  -0.988  -3.854  0.00  0.00    +0.159 HD
ATOM     16  H   UNL     1       3.281  -2.196  -2.044  0.00  0.00    +0.151 HD
BRANCH   8  17
ATOM     17  C   UNL     1       1.229  -2.186  -0.021  0.00  0.00    +0.070 C 
BRANCH  17  18
ATOM     18  C   UNL     1       1.208  -0.679  -0.013  0.00  0.00    -0.045 A 
ATOM     19  C   UNL     1       0.002  -0.004   0.002  0.00  0.00    +0.004 A 
ATOM     20  C   UNL     1      -0.017   1.378   0.010  0.00  0.00    +0.000 A 
ATOM     21  C   UNL     1       1.171   2.086   0.002  0.00  0.00    +0.000 A 
ATOM     22  C   UNL     1       2.377   1.411  -0.015  0.00  0.00    +0.000 A 
ATOM     23  C   UNL     1       2.396   0.029  -0.021  0.00  0.00    +0.004 A 
ENDBRANCH  17  18
ENDBRANCH   8  17
ENDBRANCH   3   8
BRANCH   6  24
ATOM     24  C   UNL     1       2.907  -8.059  -2.462  0.00  0.00    -0.051 C 
BRANCH  24  26
ATOM     25  C   UNL     1       3.892  -9.432  -0.681  0.00  0.00    +0.005 C 
ATOM     26  C   UNL     1       4.056  -8.467  -1.577  0.00  0.00    -0.045 C 
BRANCH  25  32
ATOM     27  C   UNL     1       4.849 -10.851   1.133  0.00  0.00    +0.127 A 
ATOM     28  C   UNL     1       5.911 -11.219   1.943  0.00  0.00    +0.046 A 
ATOM     29  C   UNL     1       7.132 -10.584   1.816  0.00  0.00    +0.004 A 
ATOM     30  C   UNL     1       7.303  -9.577   0.882  0.00  0.00    +0.001 A 
ATOM     31  C   UNL     1       6.256  -9.202   0.065  0.00  0.00    +0.011 A 
ATOM     32  C   UNL     1       5.018  -9.833   0.187  0.00  0.00    +0.016 A 
BRANCH  27  34
ATOM     33  C   UNL     1       3.551 -12.504   2.243  0.00  0.00    +0.277 C 
ATOM     34  O   UNL     1       3.649 -11.475   1.256  0.00  0.00    -0.495 OA
ENDBRANCH  27  34
ENDBRANCH  25  32
ENDBRANCH  24  26
ENDBRANCH   6  24
TORSDOF 7
