REMARK  Name = ZINC04644556
REMARK  6 active torsions:
REMARK  status: ('A' for Active; 'I' for Inactive)
REMARK    1  A    between atoms: C_1  and  C_2
REMARK    2  A    between atoms: C_4  and  C_26
REMARK    3  A    between atoms: C_6  and  C_8
REMARK    4  A    between atoms: C_8  and  C_9
REMARK    5  A    between atoms: N_14  and  C_17
REMARK    6  A    between atoms: C_20  and  N_23
REMARK                            x       y       z     vdW  Elec       q    Type
REMARK                         _______ _______ _______ _____ _____    ______ ____
ROOT
ATOM      1  C   UNL     1       1.358  -3.162   2.905  0.00  0.00    +0.089 C 
ATOM      2  C   UNL     1       1.693  -3.720   4.304  0.00  0.00    +0.110 C 
ATOM      3  C   UNL     1       2.462  -4.988   4.005  0.00  0.00    +0.227 C 
ATOM      4  O   UNL     1       2.918  -5.745   4.834  0.00  0.00    -0.275 OA
ATOM      5  N   UNL     1       2.558  -5.142   2.678  0.00  0.00    -0.210 N 
ATOM      6  C   UNL     1       1.974  -4.170   1.960  0.00  0.00    +0.230 C 
ATOM      7  O   UNL     1       1.941  -4.109   0.750  0.00  0.00    -0.275 OA
ENDROOT
BRANCH   5   8
ATOM      8  C   UNL     1       3.218  -6.228   2.087  0.00  0.00    +0.044 A 
ATOM      9  C   UNL     1       4.395  -6.026   1.379  0.00  0.00    +0.026 A 
ATOM     10  C   UNL     1       5.043  -7.098   0.798  0.00  0.00    +0.034 A 
ATOM     11  C   UNL     1       4.521  -8.373   0.920  0.00  0.00    +0.126 A 
ATOM     12  C   UNL     1       3.348  -8.577   1.624  0.00  0.00    +0.034 A 
ATOM     13  C   UNL     1       2.699  -7.510   2.212  0.00  0.00    +0.026 A 
BRANCH  11  14
ATOM     14  N   UNL     1       5.218  -9.520   0.296  0.00  0.00    +0.056 N 
ATOM     15  O   UNL     1       6.243  -9.342  -0.320  0.00  0.00    -0.126 OA
ATOM     16  O   UNL     1       4.762 -10.634   0.402  0.00  0.00    -0.126 OA
ENDBRANCH  11  14
ENDBRANCH   5   8
BRANCH   1  17
ATOM     17  C   UNL     1      -0.157  -3.089   2.703  0.00  0.00    +0.048 C 
BRANCH  17  23
ATOM     18  C   UNL     1      -1.050   0.946  -0.118  0.00  0.00    +0.044 C 
ATOM     19  C   UNL     1      -0.884  -0.546   0.009  0.00  0.00    -0.050 A 
ATOM     20  C   UNL     1      -1.005  -1.353  -1.106  0.00  0.00    +0.006 A 
ATOM     21  C   UNL     1      -0.853  -2.722  -0.989  0.00  0.00    -0.050 A 
ATOM     22  C   UNL     1      -0.578  -3.284   0.244  0.00  0.00    +0.007 A 
ATOM     23  C   UNL     1      -0.456  -2.477   1.359  0.00  0.00    -0.046 A 
ATOM     24  C   UNL     1      -0.604  -1.107   1.241  0.00  0.00    +0.007 A 
ATOM     25  C   UNL     1      -0.986  -3.602  -2.205  0.00  0.00    +0.044 C 
ENDBRANCH  17  23
ENDBRANCH   1  17
TORSDOF 4
