REMARK  Name = ZINC10210868
REMARK  9 active torsions:
REMARK  status: ('A' for Active; 'I' for Inactive)
REMARK    1  A    between atoms: C_1  and  C_2
REMARK    2  A    between atoms: C_8  and  N_10
REMARK    3  A    between atoms: C_11  and  C_13
REMARK    4  A    between atoms: C_13  and  O_14
REMARK    5  A    between atoms: O_14  and  C_15
REMARK    6  A    between atoms: C_15  and  C_17
REMARK    7  A    between atoms: C_22  and  N_23
REMARK    8  A    between atoms: N_23  and  S_24
REMARK    9  A    between atoms: S_24  and  C_27
REMARK                            x       y       z     vdW  Elec       q    Type
REMARK                         _______ _______ _______ _____ _____    ______ ____
ROOT
ATOM      1  C   UNL     1       4.045  -0.016  -3.800  0.00  0.00    +0.081 A 
ATOM      2  C   UNL     1       4.233   1.092  -4.631  0.00  0.00    +0.017 A 
ATOM      3  C   UNL     1       4.878   2.210  -4.150  0.00  0.00    +0.001 A 
ATOM      4  C   UNL     1       5.342   2.243  -2.844  0.00  0.00    +0.002 A 
ATOM      5  C   UNL     1       5.159   1.160  -2.009  0.00  0.00    +0.025 A 
ATOM      6  C   UNL     1       4.517   0.021  -2.478  0.00  0.00    +0.062 A 
ENDROOT
BRANCH   1   7
ATOM      7  C   UNL     1       3.357  -1.216  -4.308  0.00  0.00    +0.341 C 
ATOM      8  O   UNL     1       3.196  -2.177  -3.582  0.00  0.00    -0.245 OA
BRANCH   7   9
ATOM      9  O   UNL     1       2.906  -1.247  -5.578  0.00  0.00    -0.452 OA
BRANCH   9  10
ATOM     10  C   UNL     1       2.238  -2.461  -6.010  0.00  0.00    +0.328 C 
BRANCH  10  12
ATOM     11  N   UNL     1       1.162  -3.322  -8.064  0.00  0.00    -0.309 N 
ATOM     12  C   UNL     1       1.807  -2.312  -7.447  0.00  0.00    +0.251 C 
ATOM     13  O   UNL     1       2.039  -1.284  -8.046  0.00  0.00    -0.272 OA
ATOM     14  H   UNL     1       0.976  -4.144  -7.585  0.00  0.00    +0.149 HD
BRANCH  11  21
ATOM     15  C   UNL     1       1.982  -5.266 -10.049  0.00  0.00    +0.009 C 
ATOM     16  C   UNL     1       0.625  -4.561 -10.104  0.00  0.00    +0.006 C 
ATOM     17  C   UNL     1       0.187  -4.410 -11.562  0.00  0.00    +0.005 C 
ATOM     18  C   UNL     1      -1.170  -3.705 -11.616  0.00  0.00    +0.000 C 
ATOM     19  C   UNL     1      -1.052  -2.322 -10.973  0.00  0.00    +0.002 C 
ATOM     20  C   UNL     1      -0.614  -2.473  -9.515  0.00  0.00    +0.022 C 
ATOM     21  C   UNL     1       0.743  -3.178  -9.461  0.00  0.00    +0.076 C 
ENDBRANCH  11  21
ENDBRANCH  10  12
ENDBRANCH   9  10
ENDBRANCH   7   9
ENDBRANCH   1   7
BRANCH   6  22
ATOM     22  N   UNL     1       4.337  -1.073  -1.642  0.00  0.00    -0.215 N 
ATOM     23  H   UNL     1       4.391  -1.972  -2.001  0.00  0.00    +0.174 HD
BRANCH  22  24
ATOM     24  S   UNL     1       4.029  -0.842  -0.031  0.00  0.00    +0.072 S 
ATOM     25  O   UNL     1       5.061   0.001   0.463  0.00  0.00    -0.150 OA
ATOM     26  O   UNL     1       3.764  -2.124   0.520  0.00  0.00    -0.150 OA
BRANCH  24  27
ATOM     27  C   UNL     1       2.530   0.077   0.086  0.00  0.00    +0.112 A 
ATOM     28  C   UNL     1       1.319  -0.586   0.160  0.00  0.00    +0.032 A 
ATOM     29  C   UNL     1       0.141   0.131   0.250  0.00  0.00    +0.051 A 
ATOM     30  C   UNL     1       0.170   1.517   0.267  0.00  0.00    +0.162 A 
ATOM     31  C   UNL     1       1.388   2.183   0.196  0.00  0.00    +0.164 A 
ATOM     32  C   UNL     1       2.567   1.458   0.104  0.00  0.00    +0.078 A 
ATOM     33  O   UNL     1       1.440   3.543   0.220  0.00  0.00    -0.485 OA
ATOM     34  C   UNL     1       0.222   4.239  -0.065  0.00  0.00    +0.270 C 
ATOM     35  C   UNL     1      -0.906   3.583   0.743  0.00  0.00    +0.270 C 
ATOM     36  O   UNL     1      -0.999   2.209   0.347  0.00  0.00    -0.485 OA
ENDBRANCH  24  27
ENDBRANCH  22  24
ENDBRANCH   6  22
TORSDOF 8
