REMARK  Name = ZINC22536044
REMARK  8 active torsions:
REMARK  status: ('A' for Active; 'I' for Inactive)
REMARK    1  A    between atoms: C_1  and  C_2
REMARK    2  A    between atoms: C_9  and  N_13
REMARK    3  A    between atoms: C_10  and  C_11
REMARK    4  A    between atoms: N_13  and  C_14
REMARK    5  A    between atoms: C_14  and  N_16
REMARK    6  A    between atoms: C_17  and  C_19
REMARK    7  A    between atoms: C_24  and  O_25
REMARK    8  A    between atoms: O_25  and  C_26
REMARK                            x       y       z     vdW  Elec       q    Type
REMARK                         _______ _______ _______ _____ _____    ______ ____
ROOT
ATOM      1  C   UNL     1       2.229  -6.108  -3.022  0.00  0.00    +0.141 C 
ATOM      2  S   UNL     1       2.189  -4.850  -4.183  0.00  0.00    -0.018 S 
ENDROOT
BRANCH   1   3
ATOM      3  N   UNL     1       2.558  -7.360  -3.397  0.00  0.00    -0.263 N 
ATOM      4  C   UNL     1       2.856  -7.622  -4.685  0.00  0.00    +0.253 C 
ATOM      5  O   UNL     1       2.828  -6.729  -5.509  0.00  0.00    -0.270 OA
ATOM      6  H   UNL     1       2.584  -8.168  -2.651  0.00  0.00    +0.157 HD
BRANCH   4   7
ATOM      7  C   UNL     1       3.216  -8.992  -5.094  0.00  0.00    +0.081 A 
ATOM      8  C   UNL     1       3.256 -10.021  -4.149  0.00  0.00    +0.036 A 
ATOM      9  C   UNL     1       3.588 -11.301  -4.539  0.00  0.00    +0.043 A 
ATOM     10  C   UNL     1       3.894 -11.571  -5.864  0.00  0.00    +0.043 A 
ATOM     11  C   UNL     1       3.864 -10.562  -6.807  0.00  0.00    +0.085 A 
ATOM     12  C   UNL     1       3.526  -9.269  -6.432  0.00  0.00    +0.150 A 
ATOM     13 CL   UNL     1       4.249 -10.912  -8.463  0.00  0.00    -0.080 Cl
ATOM     14 CL   UNL     1       3.630 -12.579  -3.364  0.00  0.00    -0.083 Cl
BRANCH  12  15
ATOM     15  O   UNL     1       3.497  -8.277  -7.358  0.00  0.00    -0.493 OA
ATOM     16  C   UNL     1       4.708  -7.550  -7.569  0.00  0.00    +0.277 C 
ENDBRANCH  12  15
ENDBRANCH   4   7
ENDBRANCH   1   3
BRANCH   1  17
ATOM     17  N   UNL     1       1.931  -5.846  -1.734  0.00  0.00    -0.290 N 
ATOM     18  H   UNL     1       1.957  -6.654  -0.989  0.00  0.00    +0.154 HD
BRANCH  17  26
ATOM     19  C   UNL     1      -0.019   1.526   0.010  0.00  0.00    +0.008 C 
ATOM     20  C   UNL     1       0.002  -0.004   0.002  0.00  0.00    -0.009 C 
ATOM     21  C   UNL     1       0.742  -0.514   1.242  0.00  0.00    +0.008 C 
ATOM     22  C   UNL     1       0.556  -2.027   1.373  0.00  0.00    +0.037 C 
ATOM     23  C   UNL     1       0.941  -2.684   0.053  0.00  0.00    -0.018 A 
ATOM     24  C   UNL     1       1.008  -1.965  -1.089  0.00  0.00    -0.004 A 
ATOM     25  S   UNL     1       1.485  -3.134  -2.331  0.00  0.00    -0.077 S 
ATOM     26  C   UNL     1       1.593  -4.557  -1.349  0.00  0.00    +0.089 A 
ATOM     27  C   UNL     1       1.258  -4.095  -0.085  0.00  0.00    +0.084 A 
ATOM     28  C   UNL     1       0.736  -0.502  -1.252  0.00  0.00    +0.046 C 
BRANCH  27  29
ATOM     29  C   UNL     1       1.226  -4.977   1.043  0.00  0.00    +0.102 C 
ATOM     30  N   UNL     1       1.201  -5.677   1.938  0.00  0.00    -0.191 NA
ENDBRANCH  27  29
ENDBRANCH  17  26
ENDBRANCH   1  17
TORSDOF 6
