REMARK  Name = ZINC28627349
REMARK  11 active torsions:
REMARK  status: ('A' for Active; 'I' for Inactive)
REMARK    1  A    between atoms: C_1  and  C_2
REMARK    2  A    between atoms: C_2  and  O_3
REMARK    3  A    between atoms: O_3  and  C_4
REMARK    4  A    between atoms: C_5  and  O_29
REMARK    5  A    between atoms: C_7  and  C_11
REMARK    6  A    between atoms: C_11  and  O_13
REMARK    7  A    between atoms: O_13  and  C_14
REMARK    8  A    between atoms: C_14  and  C_15
REMARK    9  A    between atoms: N_17  and  C_18
REMARK   10  A    between atoms: C_19  and  C_26
REMARK   11  A    between atoms: O_29  and  C_30
REMARK                            x       y       z     vdW  Elec       q    Type
REMARK                         _______ _______ _______ _____ _____    ______ ____
ROOT
ATOM      1  C   UNL     1       1.159  -2.735   8.492  0.00  0.00    +0.255 C 
ATOM      2  O   UNL     1       0.325  -3.327   7.841  0.00  0.00    -0.272 OA
ATOM      3  N   UNL     1       1.581  -3.241   9.668  0.00  0.00    -0.277 N 
ATOM      4  H   UNL     1       2.337  -2.703  10.259  0.00  0.00    +0.155 HD
ENDROOT
BRANCH   3   5
ATOM      5  C   UNL     1       1.061  -4.439  10.134  0.00  0.00    +0.084 A 
ATOM      6  C   UNL     1       1.369  -5.114  11.302  0.00  0.00    +0.068 A 
ATOM      7  C   UNL     1       0.668  -6.371  11.563  0.00  0.00    -0.023 A 
ATOM      8  C   UNL     1      -0.210  -6.743  10.614  0.00  0.00    -0.004 A 
ATOM      9  S   UNL     1      -0.125  -5.457   9.391  0.00  0.00    -0.077 S 
ATOM     10  C   UNL     1      -0.888  -8.043  10.951  0.00  0.00    +0.043 C 
ATOM     11  C   UNL     1      -0.634  -8.234  12.463  0.00  0.00    +0.010 C 
ATOM     12  C   UNL     1       0.665  -7.429  12.667  0.00  0.00    +0.037 C 
BRANCH   6  13
ATOM     13  C   UNL     1       2.360  -4.587  12.246  0.00  0.00    +0.244 C 
ATOM     14  O   UNL     1       2.010  -3.842  13.143  0.00  0.00    -0.270 OA
ATOM     15  N   UNL     1       3.658  -4.927  12.120  0.00  0.00    -0.325 N 
ATOM     16  H   UNL     1       4.401  -4.531  12.828  0.00  0.00    +0.145 HD
ATOM     17  H   UNL     1       3.974  -5.600  11.310  0.00  0.00    +0.145 HD
ENDBRANCH   6  13
ENDBRANCH   3   5
BRANCH   1  18
ATOM     18  C   UNL     1       1.724  -1.432   7.987  0.00  0.00    +0.328 C 
BRANCH  18  19
ATOM     19  O   UNL     1       1.115  -1.104   6.710  0.00  0.00    -0.452 OA
BRANCH  19  20
ATOM     20  C   UNL     1       1.514   0.039   6.119  0.00  0.00    +0.340 C 
ATOM     21  O   UNL     1       2.348   0.742   6.654  0.00  0.00    -0.245 OA
BRANCH  20  25
ATOM     22  C   UNL     1      -0.149   1.182   2.379  0.00  0.00    +0.176 A 
ATOM     23  C   UNL     1       0.808   1.992   2.990  0.00  0.00    +0.163 A 
ATOM     24  C   UNL     1       1.350   1.623   4.205  0.00  0.00    +0.064 A 
ATOM     25  C   UNL     1       0.938   0.437   4.821  0.00  0.00    +0.064 A 
ATOM     26  C   UNL     1      -0.022  -0.369   4.203  0.00  0.00    +0.034 A 
ATOM     27  C   UNL     1      -0.563   0.007   2.992  0.00  0.00    +0.064 A 
ATOM     28 BR   UNL     1      -1.867  -1.082   2.162  0.00  0.00    -0.046 Br
BRANCH  23  29
ATOM     29  O   UNL     1       1.207   3.144   2.389  0.00  0.00    -0.491 OA
ATOM     30  C   UNL     1       2.191   3.925   3.071  0.00  0.00    +0.277 C 
ENDBRANCH  23  29
BRANCH  22  31
ATOM     31  O   UNL     1      -0.682   1.547   1.184  0.00  0.00    -0.487 OA
BRANCH  31  33
ATOM     32  C   UNL     1      -0.753   1.593  -1.232  0.00  0.00    +0.048 C 
ATOM     33  C   UNL     1      -0.013   1.086   0.008  0.00  0.00    +0.226 C 
ENDBRANCH  31  33
ENDBRANCH  22  31
ENDBRANCH  20  25
ENDBRANCH  19  20
ENDBRANCH  18  19
ENDBRANCH   1  18
TORSDOF 9
