REMARK  Name = ZINC08727562
REMARK  4 active torsions:
REMARK  status: ('A' for Active; 'I' for Inactive)
REMARK    1  A    between atoms: C_4  and  C_7
REMARK    2  A    between atoms: C_12  and  N_22
REMARK    3  A    between atoms: C_14  and  C_16
REMARK    4  A    between atoms: C_27  and  C_29
REMARK                            x       y       z     vdW  Elec       q    Type
REMARK                         _______ _______ _______ _____ _____    ______ ____
ROOT
ATOM      1  C   UNL     1       4.606  -0.980  -0.639  0.00  0.00    +0.002 A 
ATOM      2  C   UNL     1       5.536  -1.757  -1.244  0.00  0.00    +0.056 A 
ATOM      3  S   UNL     1       4.628  -2.547  -2.558  0.00  0.00    -0.076 S 
ATOM      4  C   UNL     1       3.034  -1.825  -2.272  0.00  0.00    +0.114 A 
ATOM      5  C   UNL     1       3.243  -0.984  -1.158  0.00  0.00    +0.055 A 
ATOM      6  C   UNL     1       2.101  -0.267  -0.708  0.00  0.00    +0.135 A 
ATOM      7  N   UNL     1       0.948  -0.427  -1.333  0.00  0.00    -0.212 NA
ATOM      8  C   UNL     1       0.820  -1.234  -2.381  0.00  0.00    +0.164 A 
ATOM      9  N   UNL     1       1.852  -1.927  -2.845  0.00  0.00    -0.220 NA
ENDROOT
BRANCH   1  13
ATOM     10  C   UNL     1       5.640   1.425   2.710  0.00  0.00    +0.000 A 
ATOM     11  C   UNL     1       5.838   0.057   2.757  0.00  0.00    +0.001 A 
ATOM     12  C   UNL     1       5.504  -0.729   1.673  0.00  0.00    +0.008 A 
ATOM     13  C   UNL     1       4.967  -0.142   0.528  0.00  0.00    -0.017 A 
ATOM     14  C   UNL     1       4.775   1.239   0.484  0.00  0.00    +0.008 A 
ATOM     15  C   UNL     1       5.108   2.014   1.577  0.00  0.00    +0.001 A 
ENDBRANCH   1  13
BRANCH   8  16
ATOM     16  C   UNL     1      -0.501  -1.365  -3.042  0.00  0.00    +0.037 A 
ATOM     17  C   UNL     1      -0.663  -2.211  -4.144  0.00  0.00    +0.014 A 
ATOM     18  C   UNL     1      -1.917  -2.299  -4.724  0.00  0.00    +0.020 A 
ATOM     19  C   UNL     1      -2.959  -1.555  -4.201  0.00  0.00    +0.111 A 
ATOM     20  N   UNL     1      -2.775  -0.765  -3.160  0.00  0.00    -0.263 NA
ATOM     21  C   UNL     1      -1.602  -0.653  -2.571  0.00  0.00    +0.122 A 
ENDBRANCH   8  16
BRANCH   6  22
ATOM     22  N   UNL     1       2.195   0.586   0.378  0.00  0.00    -0.303 N 
ATOM     23  C   UNL     1       1.822   1.956   0.004  0.00  0.00    +0.107 C 
ATOM     24  C   UNL     1       2.076   2.896   1.185  0.00  0.00    +0.019 C 
ATOM     25  C   UNL     1       1.249   2.431   2.387  0.00  0.00    +0.004 C 
ATOM     26  C   UNL     1       1.622   0.985   2.725  0.00  0.00    +0.032 C 
ATOM     27  C   UNL     1       1.381   0.101   1.500  0.00  0.00    +0.160 C 
BRANCH  27  28
ATOM     28  C   UNL     1       1.766  -1.320   1.822  0.00  0.00    +0.231 C 
ATOM     29  O   UNL     1       2.633  -1.874   1.179  0.00  0.00    -0.274 OA
ATOM     30  N   UNL     1       1.143  -1.977   2.820  0.00  0.00    -0.328 N 
ATOM     31  H   UNL     1       1.387  -2.893   3.025  0.00  0.00    +0.145 HD
ATOM     32  H   UNL     1       0.449  -1.534   3.334  0.00  0.00    +0.145 HD
ENDBRANCH  27  28
ENDBRANCH   6  22
TORSDOF 4
