REMARK  Name = ZINC63232975
REMARK  8 active torsions:
REMARK  status: ('A' for Active; 'I' for Inactive)
REMARK    1  A    between atoms: C_1  and  N_2
REMARK    2  A    between atoms: N_2  and  C_3
REMARK    3  A    between atoms: N_2  and  S_4
REMARK    4  A    between atoms: S_4  and  C_7
REMARK    5  A    between atoms: C_9  and  C_15
REMARK    6  A    between atoms: N_17  and  C_18
REMARK    7  A    between atoms: C_18  and  C_19
REMARK    8  A    between atoms: C_19  and  C_20
REMARK                            x       y       z     vdW  Elec       q    Type
REMARK                         _______ _______ _______ _____ _____    ______ ____
ROOT
ATOM      1  C   UNL     1      -2.700  -4.266  -3.586  0.00  0.00    +0.246 C 
ATOM      2  O   UNL     1      -3.069  -4.528  -4.714  0.00  0.00    -0.270 OA
ATOM      3  N   UNL     1      -2.449  -5.260  -2.711  0.00  0.00    -0.311 N 
ATOM      4  H   UNL     1      -2.155  -5.051  -1.810  0.00  0.00    +0.149 HD
ENDROOT
BRANCH   1   7
ATOM      5  C   UNL     1      -1.948  -1.237  -1.498  0.00  0.00    +0.124 A 
ATOM      6  C   UNL     1      -2.106  -2.554  -1.878  0.00  0.00    +0.044 A 
ATOM      7  C   UNL     1      -2.529  -2.858  -3.173  0.00  0.00    +0.057 A 
ATOM      8  C   UNL     1      -2.789  -1.825  -4.078  0.00  0.00    +0.055 A 
ATOM      9  C   UNL     1      -2.626  -0.511  -3.686  0.00  0.00    +0.042 A 
ATOM     10  C   UNL     1      -2.212  -0.217  -2.398  0.00  0.00    +0.069 A 
ATOM     11 CL   UNL     1      -2.016   1.437  -1.909  0.00  0.00    -0.081 Cl
ATOM     12 CL   UNL     1      -3.314  -2.193  -5.691  0.00  0.00    -0.083 Cl
BRANCH   5  13
ATOM     13  S   UNL     1      -1.414  -0.852   0.136  0.00  0.00    +0.062 S 
ATOM     14  O   UNL     1      -1.297  -2.088   0.827  0.00  0.00    -0.153 OA
ATOM     15  O   UNL     1      -2.248   0.202   0.597  0.00  0.00    -0.153 OA
BRANCH  13  17
ATOM     16  C   UNL     1       0.318   1.222   0.018  0.00  0.00    +0.131 C 
ATOM     17  N   UNL     1       0.116  -0.229   0.018  0.00  0.00    -0.183 NA
ATOM     18  C   UNL     1       1.267  -1.129  -0.087  0.00  0.00    +0.131 C 
ENDBRANCH  13  17
ENDBRANCH   5  13
ENDBRANCH   1   7
BRANCH   3  19
ATOM     19  C   UNL     1      -2.619  -6.656  -3.120  0.00  0.00    +0.109 C 
BRANCH  19  20
ATOM     20  C   UNL     1      -2.270  -7.577  -1.948  0.00  0.00    +0.052 C 
BRANCH  20  21
ATOM     21  C   UNL     1      -2.445  -9.013  -2.369  0.00  0.00    -0.040 C 
ATOM     22  C   UNL     1      -1.487  -9.847  -2.833  0.00  0.00    -0.001 A 
ATOM     23  C   UNL     1      -0.050  -9.673  -3.077  0.00  0.00    +0.010 A 
ATOM     24  C   UNL     1       0.665 -10.716  -3.557  0.00  0.00    +0.001 A 
ATOM     25  C   UNL     1       0.070 -11.955  -3.828  0.00  0.00    +0.002 A 
ATOM     26  C   UNL     1      -1.244 -12.192  -3.630  0.00  0.00    +0.026 A 
ATOM     27  C   UNL     1      -2.091 -11.166  -3.127  0.00  0.00    +0.043 A 
ATOM     28  N   UNL     1      -3.374 -11.148  -2.855  0.00  0.00    -0.380 N 
ATOM     29  C   UNL     1      -3.727  -9.816  -2.352  0.00  0.00    +0.144 C 
ATOM     30  H   UNL     1      -3.986 -11.893  -2.965  0.00  0.00    +0.160 HD
ENDBRANCH  20  21
ENDBRANCH  19  20
ENDBRANCH   3  19
TORSDOF 6
