REMARK  Name = ZINC12024767
REMARK  5 active torsions:
REMARK  status: ('A' for Active; 'I' for Inactive)
REMARK    1  A    between atoms: C_1  and  C_2
REMARK    2  A    between atoms: N_8  and  C_11
REMARK    3  A    between atoms: C_14  and  C_18
REMARK    4  A    between atoms: N_20  and  C_21
REMARK    5  A    between atoms: C_26  and  C_27
REMARK                            x       y       z     vdW  Elec       q    Type
REMARK                         _______ _______ _______ _____ _____    ______ ____
ROOT
ATOM      1  C   UNL     1      -1.225   1.753  -0.018  0.00  0.00    +0.061 A 
ATOM      2  C   UNL     1      -1.250   3.145   0.001  0.00  0.00    +0.026 A 
ATOM      3  C   UNL     1      -0.071   3.856   0.003  0.00  0.00    +0.016 A 
ATOM      4  C   UNL     1       1.152   3.179  -0.008  0.00  0.00    +0.055 A 
ATOM      5  C   UNL     1       1.173   1.780  -0.021  0.00  0.00    +0.055 A 
ATOM      6  C   UNL     1      -0.011   1.075  -0.024  0.00  0.00    +0.046 A 
ATOM      7 CL   UNL     1       2.689   0.934  -0.034  0.00  0.00    -0.083 Cl
ENDROOT
BRANCH   1  14
ATOM      8  C   UNL     1      -4.610  -0.711  -1.843  0.00  0.00    +0.019 C 
ATOM      9  C   UNL     1      -3.968  -0.804  -0.457  0.00  0.00    +0.097 C 
ATOM     10  C   UNL     1      -4.823  -0.013   0.568  0.00  0.00    +0.201 C 
ATOM     11  S   UNL     1      -3.898   1.578   0.549  0.00  0.00    +0.053 S 
ATOM     12  O   UNL     1      -3.651   2.037   1.871  0.00  0.00    -0.155 OA
ATOM     13  O   UNL     1      -4.406   2.448  -0.453  0.00  0.00    -0.155 OA
ATOM     14  N   UNL     1      -2.422   1.037  -0.027  0.00  0.00    -0.143 N 
ATOM     15  C   UNL     1      -2.595  -0.206  -0.502  0.00  0.00    +0.243 C 
ATOM     16  O   UNL     1      -1.660  -0.832  -0.955  0.00  0.00    -0.273 OA
ENDBRANCH   1  14
BRANCH   4  17
ATOM     17  C   UNL     1       2.417   3.938  -0.005  0.00  0.00    +0.250 C 
ATOM     18  O   UNL     1       3.480   3.348  -0.014  0.00  0.00    -0.270 OA
ATOM     19  N   UNL     1       2.394   5.285   0.008  0.00  0.00    -0.281 N 
ATOM     20  H   UNL     1       1.548   5.757  -0.051  0.00  0.00    +0.155 HD
BRANCH  19  21
ATOM     21  C   UNL     1       3.590   6.004   0.107  0.00  0.00    +0.045 A 
ATOM     22  C   UNL     1       4.744   5.521  -0.498  0.00  0.00    +0.025 A 
ATOM     23  C   UNL     1       5.923   6.233  -0.400  0.00  0.00    +0.022 A 
ATOM     24  C   UNL     1       5.956   7.427   0.300  0.00  0.00    +0.042 A 
ATOM     25  C   UNL     1       4.808   7.910   0.904  0.00  0.00    +0.034 A 
ATOM     26  C   UNL     1       3.625   7.204   0.804  0.00  0.00    +0.077 A 
ATOM     27 CL   UNL     1       7.440   8.319   0.422  0.00  0.00    -0.084 Cl
BRANCH  26  28
ATOM     28  C   UNL     1       2.374   7.734   1.456  0.00  0.00    +0.419 C 
ATOM     29  F   UNL     1       2.658   8.947   2.094  0.00  0.00    -0.166 F 
ATOM     30  F   UNL     1       1.391   7.938   0.482  0.00  0.00    -0.166 F 
ATOM     31  F   UNL     1       1.912   6.809   2.398  0.00  0.00    -0.166 F 
ENDBRANCH  26  28
ENDBRANCH  19  21
ENDBRANCH   4  17
TORSDOF 4
