REMARK  Name = ZINC39426545
REMARK  7 active torsions:
REMARK  status: ('A' for Active; 'I' for Inactive)
REMARK    1  A    between atoms: C_1  and  C_2
REMARK    2  A    between atoms: C_9  and  N_13
REMARK    3  A    between atoms: C_10  and  C_11
REMARK    4  A    between atoms: C_14  and  C_16
REMARK    5  A    between atoms: C_16  and  C_18
REMARK    6  A    between atoms: C_16  and  S_19
REMARK    7  A    between atoms: S_19  and  C_20
REMARK                            x       y       z     vdW  Elec       q    Type
REMARK                         _______ _______ _______ _____ _____    ______ ____
ROOT
ATOM      1  N   UNL     1       0.696  -5.849   2.431  0.00  0.00    -0.278 N 
ATOM      2  C   UNL     1       1.678  -6.098   3.319  0.00  0.00    +0.231 C 
ATOM      3  O   UNL     1       2.384  -5.194   3.713  0.00  0.00    -0.274 OA
ATOM      4  H   UNL     1       0.132  -6.573   2.116  0.00  0.00    +0.155 HD
ENDROOT
BRANCH   1  12
ATOM      5  C   UNL     1      -0.019   1.526   0.010  0.00  0.00    +0.008 C 
ATOM      6  C   UNL     1       0.002  -0.004   0.002  0.00  0.00    -0.009 C 
ATOM      7  C   UNL     1      -1.434  -0.537   0.019  0.00  0.00    +0.008 C 
ATOM      8  C   UNL     1      -1.433  -2.045  -0.237  0.00  0.00    +0.037 C 
ATOM      9  C   UNL     1      -0.464  -2.704   0.734  0.00  0.00    -0.018 A 
ATOM     10  C   UNL     1       0.485  -1.986   1.374  0.00  0.00    -0.004 A 
ATOM     11  S   UNL     1       1.344  -3.168   2.371  0.00  0.00    -0.077 S 
ATOM     12  C   UNL     1       0.493  -4.558   1.966  0.00  0.00    +0.090 A 
ATOM     13  C   UNL     1      -0.459  -4.119   1.059  0.00  0.00    +0.084 A 
ATOM     14  C   UNL     1       0.739  -0.515   1.248  0.00  0.00    +0.046 C 
BRANCH  13  15
ATOM     15  C   UNL     1      -1.399  -5.024   0.469  0.00  0.00    +0.102 C 
ATOM     16  N   UNL     1      -2.144  -5.741   0.000  0.00  0.00    -0.191 NA
ENDBRANCH  13  15
ENDBRANCH   1  12
BRANCH   2  17
ATOM     17  C   UNL     1       1.900  -7.501   3.824  0.00  0.00    +0.136 C 
ATOM     18  C   UNL     1       0.880  -7.815   4.921  0.00  0.00    +0.029 C 
BRANCH  17  19
ATOM     19  S   UNL     1       3.577  -7.643   4.500  0.00  0.00    -0.084 S 
BRANCH  19  20
ATOM     20  C   UNL     1       3.730  -9.351   4.906  0.00  0.00    +0.161 A 
ATOM     21  N   UNL     1       2.854 -10.326   4.760  0.00  0.00    -0.133 NA
ATOM     22  N   UNL     1       3.184 -11.605   5.147  0.00  0.00    -0.125 NA
ATOM     23  C   UNL     1       4.372 -11.849   5.662  0.00  0.00    +0.180 A 
ATOM     24  S   UNL     1       5.116 -10.225   5.617  0.00  0.00    -0.025 S 
ATOM     25  N   UNL     1       4.907 -13.050   6.114  0.00  0.00    -0.336 N 
ATOM     26  H   UNL     1       4.379 -13.863   6.071  0.00  0.00    +0.144 HD
ATOM     27  H   UNL     1       5.808 -13.076   6.473  0.00  0.00    +0.144 HD
ENDBRANCH  19  20
ENDBRANCH  17  19
ENDBRANCH   2  17
TORSDOF 5
