REMARK  Name = ZINC04299505
REMARK  9 active torsions:
REMARK  status: ('A' for Active; 'I' for Inactive)
REMARK    1  A    between atoms: C_1  and  C_2
REMARK    2  A    between atoms: C_7  and  O_8
REMARK    3  A    between atoms: O_8  and  C_9
REMARK    4  A    between atoms: C_9  and  C_10
REMARK    5  A    between atoms: C_10  and  C_12
REMARK    6  A    between atoms: C_10  and  O_20
REMARK    7  A    between atoms: C_12  and  N_40
REMARK    8  A    between atoms: C_13  and  C_14
REMARK    9  A    between atoms: C_13  and  N_40
REMARK                            x       y       z     vdW  Elec       q    Type
REMARK                         _______ _______ _______ _____ _____    ______ ____
ROOT
ATOM      1  C   UNL     1       1.255  -4.199  -1.107  0.00  0.00    +0.135 C 
ENDROOT
BRANCH   1   2
ATOM      2  O   UNL     1       2.488  -4.582  -0.493  0.00  0.00    -0.390 OA
ATOM      3  H   UNL     1       3.272  -4.346  -1.007  0.00  0.00    +0.210 HD
ENDBRANCH   1   2
BRANCH   1   4
ATOM      4  C   UNL     1       1.231  -2.681  -1.298  0.00  0.00    +0.258 C 
BRANCH   4   5
ATOM      5  O   UNL     1       1.233  -2.039  -0.021  0.00  0.00    -0.488 OA
BRANCH   5  12
ATOM      6  C   UNL     1      -1.292  -0.776   0.010  0.00  0.00    +0.047 C 
ATOM      7  C   UNL     1       0.002  -0.004   0.002  0.00  0.00    -0.006 A 
ATOM      8  C   UNL     1      -0.017   1.378   0.010  0.00  0.00    +0.027 A 
ATOM      9  C   UNL     1       1.171   2.087   0.002  0.00  0.00    +0.042 A 
ATOM     10  C   UNL     1       2.381   1.414  -0.013  0.00  0.00    +0.039 A 
ATOM     11  C   UNL     1       2.404   0.033  -0.021  0.00  0.00    +0.061 A 
ATOM     12  C   UNL     1       1.213  -0.680  -0.013  0.00  0.00    +0.137 A 
ATOM     13 BR   UNL     1       4.056  -0.886  -0.041  0.00  0.00    -0.046 Br
ATOM     14 CL   UNL     1       1.144   3.823   0.012  0.00  0.00    -0.083 Cl
ENDBRANCH   5  12
ENDBRANCH   4   5
ENDBRANCH   1   4
BRANCH   1  15
ATOM     15  C   UNL     1       1.127  -4.887  -2.467  0.00  0.00    -0.047 C 
BRANCH  15  16
ATOM     16  N   UNL     1       1.030  -6.345  -2.264  0.00  0.00    +0.383 N 
ATOM     17  H   UNL     1       0.206  -6.553  -1.689  0.00  0.00    -0.085 HD
ATOM     18  H   UNL     1       1.875  -6.676  -1.784  0.00  0.00    -0.085 HD
BRANCH  16  19
ATOM     19  C   UNL     1       0.906  -7.035  -3.562  0.00  0.00    -0.047 C 
BRANCH  19  20
ATOM     20  C   UNL     1       0.809  -8.520  -3.324  0.00  0.00    -0.064 A 
ATOM     21  C   UNL     1       1.956  -9.290  -3.288  0.00  0.00    +0.002 A 
ATOM     22  C   UNL     1       1.868 -10.651  -3.065  0.00  0.00    +0.000 A 
ATOM     23  C   UNL     1       0.632 -11.244  -2.888  0.00  0.00    +0.000 A 
ATOM     24  C   UNL     1      -0.516 -10.475  -2.930  0.00  0.00    +0.000 A 
ATOM     25  C   UNL     1      -0.427  -9.112  -3.148  0.00  0.00    +0.002 A 
ENDBRANCH  19  20
ENDBRANCH  16  19
ENDBRANCH  15  16
ENDBRANCH   1  15
TORSDOF 8
