REMARK  Name = ZINC22535944
REMARK  12 active torsions:
REMARK  status: ('A' for Active; 'I' for Inactive)
REMARK    1  A    between atoms: C_1  and  C_2
REMARK    2  A    between atoms: C_4  and  C_35
REMARK    3  A    between atoms: C_5  and  C_9
REMARK    4  A    between atoms: C_7  and  C_8
REMARK    5  A    between atoms: C_9  and  C_11
REMARK    6  A    between atoms: C_9  and  N_12
REMARK    7  A    between atoms: C_13  and  C_15
REMARK    8  A    between atoms: C_15  and  N_16
REMARK    9  A    between atoms: N_16  and  C_17
REMARK   10  A    between atoms: N_16  and  S_25
REMARK   11  A    between atoms: C_17  and  C_18
REMARK   12  A    between atoms: S_25  and  C_28
REMARK                            x       y       z     vdW  Elec       q    Type
REMARK                         _______ _______ _______ _____ _____    ______ ____
ROOT
ATOM      1  N   UNL     1      -3.161   0.914   0.531  0.00  0.00    -0.163 NA
ENDROOT
BRANCH   1   2
ATOM      2  S   UNL     1      -2.747  -0.460   1.359  0.00  0.00    +0.062 S 
ATOM      3  O   UNL     1      -3.677  -0.588   2.425  0.00  0.00    -0.153 OA
ATOM      4  O   UNL     1      -2.558  -1.478   0.386  0.00  0.00    -0.153 OA
BRANCH   2   5
ATOM      5  C   UNL     1      -1.173  -0.169   2.096  0.00  0.00    +0.106 A 
ATOM      6  C   UNL     1      -0.018  -0.389   1.369  0.00  0.00    +0.030 A 
ATOM      7  C   UNL     1       1.216  -0.156   1.945  0.00  0.00    +0.022 A 
ATOM      8  C   UNL     1       1.296   0.287   3.253  0.00  0.00    +0.041 A 
ATOM      9  C   UNL     1       0.140   0.501   3.982  0.00  0.00    +0.022 A 
ATOM     10  C   UNL     1      -1.094   0.273   3.403  0.00  0.00    +0.030 A 
ATOM     11 CL   UNL     1       2.847   0.574   3.980  0.00  0.00    -0.084 Cl
ENDBRANCH   2   5
ENDBRANCH   1   2
BRANCH   1  12
ATOM     12  C   UNL     1      -3.799   2.029   1.235  0.00  0.00    +0.205 C 
BRANCH  12  14
ATOM     13  N   UNL     1      -6.094   2.847   1.661  0.00  0.00    -0.308 N 
ATOM     14  C   UNL     1      -5.295   1.923   1.091  0.00  0.00    +0.229 C 
ATOM     15  O   UNL     1      -5.781   1.006   0.463  0.00  0.00    -0.274 OA
ATOM     16  H   UNL     1      -5.654   3.678   2.232  0.00  0.00    +0.149 HD
BRANCH  13  17
ATOM     17  C   UNL     1      -7.549   2.744   1.522  0.00  0.00    +0.100 C 
ATOM     18  C   UNL     1      -8.099   1.799   2.592  0.00  0.00    +0.033 C 
BRANCH  17  23
ATOM     19  C   UNL     1      -9.920   7.974   2.168  0.00  0.00    +0.044 C 
ATOM     20  C   UNL     1      -9.302   6.610   2.000  0.00  0.00    -0.047 A 
ATOM     21  C   UNL     1      -9.948   5.646   1.247  0.00  0.00    +0.007 A 
ATOM     22  C   UNL     1      -9.380   4.396   1.092  0.00  0.00    -0.045 A 
ATOM     23  C   UNL     1      -8.167   4.108   1.690  0.00  0.00    -0.024 A 
ATOM     24  C   UNL     1      -7.525   5.069   2.447  0.00  0.00    +0.009 A 
ATOM     25  C   UNL     1      -8.090   6.322   2.598  0.00  0.00    -0.047 A 
ATOM     26  C   UNL     1      -7.386   7.372   3.417  0.00  0.00    +0.044 C 
ATOM     27  C   UNL     1     -10.084   3.345   0.272  0.00  0.00    +0.044 C 
ENDBRANCH  17  23
ENDBRANCH  13  17
ENDBRANCH  12  14
ENDBRANCH   1  12
BRANCH   1  28
ATOM     28  C   UNL     1      -2.889   1.014  -0.905  0.00  0.00    +0.145 C 
BRANCH  28  29
ATOM     29  C   UNL     1      -4.131   0.651  -1.678  0.00  0.00    -0.030 A 
ATOM     30  C   UNL     1      -4.981   1.646  -2.126  0.00  0.00    +0.005 A 
ATOM     31  C   UNL     1      -6.117   1.315  -2.839  0.00  0.00    +0.002 A 
ATOM     32  C   UNL     1      -6.408  -0.011  -3.101  0.00  0.00    +0.020 A 
ATOM     33  C   UNL     1      -5.561  -1.007  -2.648  0.00  0.00    +0.041 A 
ATOM     34  C   UNL     1      -4.423  -0.675  -1.934  0.00  0.00    +0.025 A 
ATOM     35 CL   UNL     1      -5.925  -2.672  -2.977  0.00  0.00    -0.084 Cl
ENDBRANCH  28  29
ENDBRANCH   1  28
TORSDOF 8
