REMARK  Name = ZINC06166495
REMARK  7 active torsions:
REMARK  status: ('A' for Active; 'I' for Inactive)
REMARK    1  A    between atoms: C_1  and  C_2
REMARK    2  A    between atoms: N_13  and  C_16
REMARK    3  A    between atoms: C_16  and  C_18
REMARK    4  A    between atoms: C_16  and  C_19
REMARK    5  A    between atoms: N_21  and  N_22
REMARK    6  A    between atoms: N_30  and  C_33
REMARK    7  A    between atoms: C_33  and  C_34
REMARK                            x       y       z     vdW  Elec       q    Type
REMARK                         _______ _______ _______ _____ _____    ______ ____
ROOT
ATOM      1  C   UNL     1      -2.928  -8.025   1.568  0.00  0.00    +0.255 C 
ATOM      2  O   UNL     1      -2.742  -7.638   2.702  0.00  0.00    -0.272 OA
ATOM      3  N   UNL     1      -3.818  -9.008   1.329  0.00  0.00    -0.205 N 
ATOM      4  H   UNL     1      -3.967  -9.317   0.421  0.00  0.00    +0.177 HD
ENDROOT
BRANCH   3   5
ATOM      5  N   UNL     1      -4.528  -9.584   2.390  0.00  0.00    -0.174 NA
ATOM      6  C   UNL     1      -5.394 -10.540   2.157  0.00  0.00    +0.153 C 
ATOM      7  C   UNL     1      -6.234 -11.257   3.145  0.00  0.00    +0.028 A 
ATOM      8  C   UNL     1      -6.372 -11.162   4.525  0.00  0.00    +0.012 A 
ATOM      9  C   UNL     1      -7.261 -11.988   5.183  0.00  0.00    +0.001 A 
ATOM     10  C   UNL     1      -8.012 -12.907   4.470  0.00  0.00    +0.002 A 
ATOM     11  C   UNL     1      -7.883 -13.008   3.100  0.00  0.00    +0.024 A 
ATOM     12  C   UNL     1      -6.992 -12.185   2.419  0.00  0.00    +0.046 A 
ATOM     13  N   UNL     1      -6.674 -12.084   1.069  0.00  0.00    -0.261 N 
ATOM     14  C   UNL     1      -5.749 -11.134   0.852  0.00  0.00    +0.272 C 
ATOM     15  O   UNL     1      -5.284 -10.820  -0.228  0.00  0.00    -0.268 OA
BRANCH  13  16
ATOM     16  C   UNL     1      -7.277 -12.905   0.016  0.00  0.00    +0.149 C 
BRANCH  16  17
ATOM     17  C   UNL     1      -8.509 -12.218  -0.514  0.00  0.00    -0.030 A 
ATOM     18  C   UNL     1      -9.739 -12.460   0.067  0.00  0.00    +0.005 A 
ATOM     19  C   UNL     1     -10.870 -11.830  -0.419  0.00  0.00    +0.000 A 
ATOM     20  C   UNL     1     -10.768 -10.956  -1.486  0.00  0.00    +0.000 A 
ATOM     21  C   UNL     1      -9.538 -10.713  -2.066  0.00  0.00    +0.000 A 
ATOM     22  C   UNL     1      -8.407 -11.340  -1.577  0.00  0.00    +0.005 A 
ENDBRANCH  16  17
ENDBRANCH  13  16
ENDBRANCH   3   5
BRANCH   1  23
ATOM     23  C   UNL     1      -2.164  -7.406   0.426  0.00  0.00    +0.176 C 
ATOM     24  C   UNL     1      -1.341  -8.484  -0.281  0.00  0.00    +0.041 C 
BRANCH  23  36
ATOM     25  C   UNL     1      -0.019   1.526   0.010  0.00  0.00    +0.008 C 
ATOM     26  C   UNL     1       0.002  -0.004   0.002  0.00  0.00    -0.009 C 
ATOM     27  C   UNL     1      -1.433  -0.537   0.021  0.00  0.00    +0.008 C 
ATOM     28  C   UNL     1      -1.430  -2.044  -0.237  0.00  0.00    +0.037 C 
ATOM     29  C   UNL     1      -0.472  -2.712   0.745  0.00  0.00    -0.023 A 
ATOM     30  C   UNL     1       0.476  -1.985   1.383  0.00  0.00    -0.004 A 
ATOM     31  S   UNL     1       1.343  -3.148   2.406  0.00  0.00    -0.073 S 
ATOM     32  C   UNL     1       0.437  -4.601   1.978  0.00  0.00    +0.116 A 
ATOM     33  C   UNL     1      -0.517  -4.131   1.048  0.00  0.00    +0.076 A 
ATOM     34  C   UNL     1      -1.426  -5.099   0.502  0.00  0.00    +0.263 A 
ATOM     35  O   UNL     1      -2.286  -4.796  -0.308  0.00  0.00    -0.267 OA
ATOM     36  N   UNL     1      -1.267  -6.369   0.944  0.00  0.00    -0.287 N 
ATOM     37  C   UNL     1      -0.319  -6.726   1.843  0.00  0.00    +0.204 A 
ATOM     38  N   UNL     1       0.532  -5.869   2.365  0.00  0.00    -0.230 NA
ATOM     39  C   UNL     1       0.737  -0.516   1.249  0.00  0.00    +0.046 C 
ENDBRANCH  23  36
ENDBRANCH   1  23
TORSDOF 5
