REMARK  Name = ZINC24885877
REMARK  6 active torsions:
REMARK  status: ('A' for Active; 'I' for Inactive)
REMARK    1  A    between atoms: C_1  and  C_2
REMARK    2  A    between atoms: C_5  and  C_8
REMARK    3  A    between atoms: C_8  and  C_9
REMARK    4  A    between atoms: C_15  and  C_17
REMARK    5  A    between atoms: C_17  and  N_18
REMARK    6  A    between atoms: C_26  and  C_30
REMARK                            x       y       z     vdW  Elec       q    Type
REMARK                         _______ _______ _______ _____ _____    ______ ____
ROOT
ATOM      1  C   UNL     1       8.103   0.552  -3.889  0.00  0.00    +0.015 A 
ATOM      2  C   UNL     1       6.827   0.093  -3.893  0.00  0.00    +0.124 A 
ATOM      3  N   UNL     1       6.038   0.423  -2.890  0.00  0.00    -0.233 NA
ATOM      4  C   UNL     1       6.469   1.183  -1.902  0.00  0.00    +0.165 A 
ATOM      5  S   UNL     1       8.111   1.495  -2.371  0.00  0.00    -0.057 S 
ATOM      6  N   UNL     1       5.783   1.626  -0.777  0.00  0.00    -0.263 N 
ATOM      7  C   UNL     1       4.495   1.276  -0.592  0.00  0.00    +0.236 C 
ATOM      8  O   UNL     1       3.934   0.575  -1.408  0.00  0.00    -0.274 OA
ATOM      9  H   UNL     1       6.292   2.262  -0.037  0.00  0.00    +0.157 HD
ENDROOT
BRANCH   1  10
ATOM     10  C   UNL     1       9.206   0.334  -4.892  0.00  0.00    +0.079 C 
BRANCH  10  15
ATOM     11  C   UNL     1       9.022   4.498  -8.895  0.00  0.00    +0.044 C 
ATOM     12  C   UNL     1       9.070   3.412  -7.851  0.00  0.00    -0.050 A 
ATOM     13  C   UNL     1       9.828   3.585  -6.708  0.00  0.00    +0.003 A 
ATOM     14  C   UNL     1       9.872   2.589  -5.751  0.00  0.00    +0.004 A 
ATOM     15  C   UNL     1       9.158   1.420  -5.936  0.00  0.00    -0.042 A 
ATOM     16  C   UNL     1       8.404   1.245  -7.081  0.00  0.00    +0.004 A 
ATOM     17  C   UNL     1       8.357   2.243  -8.037  0.00  0.00    +0.003 A 
ENDBRANCH  10  15
ENDBRANCH   1  10
BRANCH   7  18
ATOM     18  C   UNL     1       3.751   1.756   0.627  0.00  0.00    +0.210 C 
BRANCH  18  19
ATOM     19  N   UNL     1       2.379   1.243   0.596  0.00  0.00    -0.256 N 
ATOM     20  C   UNL     1       2.066   0.009   1.184  0.00  0.00    +0.079 A 
ATOM     21  C   UNL     1       2.944  -0.596   2.068  0.00  0.00    +0.027 A 
ATOM     22  C   UNL     1       2.617  -1.814   2.635  0.00  0.00    +0.002 A 
ATOM     23  C   UNL     1       1.417  -2.428   2.323  0.00  0.00    +0.004 A 
ATOM     24  C   UNL     1       0.536  -1.827   1.442  0.00  0.00    +0.047 A 
ATOM     25  C   UNL     1       0.857  -0.609   0.870  0.00  0.00    +0.143 A 
ATOM     26  O   UNL     1       0.002  -0.004   0.002  0.00  0.00    -0.478 OA
ATOM     27  C   UNL     1      -0.017   1.426   0.010  0.00  0.00    +0.256 C 
ATOM     28  C   UNL     1       1.395   1.952  -0.001  0.00  0.00    +0.261 C 
ATOM     29  O   UNL     1       1.648   3.007  -0.542  0.00  0.00    -0.271 OA
ATOM     30  C   UNL     1      -0.758   1.932  -1.229  0.00  0.00    +0.062 C 
ENDBRANCH  18  19
ENDBRANCH   7  18
TORSDOF 4
