REMARK  Name = ZINC20369623
REMARK  4 active torsions:
REMARK  status: ('A' for Active; 'I' for Inactive)
REMARK    1  A    between atoms: C_1  and  C_2
REMARK    2  A    between atoms: C_2  and  C_3
REMARK    3  A    between atoms: C_6  and  C_9
REMARK    4  A    between atoms: C_18  and  C_20
REMARK                            x       y       z     vdW  Elec       q    Type
REMARK                         _______ _______ _______ _____ _____    ______ ____
ROOT
ATOM      1  C   UNL     1       2.697  -1.860  -4.736  0.00  0.00    +0.004 A 
ATOM      2  C   UNL     1       2.227  -2.929  -5.424  0.00  0.00    +0.056 A 
ATOM      3  S   UNL     1       3.382  -3.095  -6.770  0.00  0.00    -0.076 S 
ATOM      4  C   UNL     1       4.461  -1.740  -6.383  0.00  0.00    +0.116 A 
ATOM      5  C   UNL     1       3.895  -1.186  -5.221  0.00  0.00    +0.080 A 
ATOM      6  C   UNL     1       4.574  -0.048  -4.678  0.00  0.00    +0.261 A 
ATOM      7  O   UNL     1       4.159   0.495  -3.669  0.00  0.00    -0.267 OA
ATOM      8  N   UNL     1       5.677   0.413  -5.296  0.00  0.00    -0.306 N 
ATOM      9  H   UNL     1       6.140   1.183  -4.932  0.00  0.00    +0.170 HD
ATOM     10  C   UNL     1       6.156  -0.186  -6.429  0.00  0.00    +0.144 A 
ATOM     11  N   UNL     1       5.556  -1.239  -6.941  0.00  0.00    -0.222 NA
ENDROOT
BRANCH   1  15
ATOM     12  C   UNL     1       0.707  -0.490  -1.238  0.00  0.00    -0.048 A 
ATOM     13  C   UNL     1      -0.014  -0.718  -2.396  0.00  0.00    +0.004 A 
ATOM     14  C   UNL     1       0.627  -1.162  -3.535  0.00  0.00    +0.009 A 
ATOM     15  C   UNL     1       2.003  -1.382  -3.516  0.00  0.00    -0.017 A 
ATOM     16  C   UNL     1       2.725  -1.151  -2.346  0.00  0.00    +0.009 A 
ATOM     17  C   UNL     1       2.074  -0.701  -1.215  0.00  0.00    +0.004 A 
BRANCH  12  19
ATOM     18  C   UNL     1      -0.019   1.526   0.010  0.00  0.00    +0.009 C 
ATOM     19  C   UNL     1       0.002  -0.004   0.002  0.00  0.00    +0.032 C 
ENDBRANCH  12  19
ENDBRANCH   1  15
BRANCH  10  20
ATOM     20  C   UNL     1       7.370   0.349  -7.079  0.00  0.00    +0.035 A 
ATOM     21  C   UNL     1       7.875  -0.244  -8.242  0.00  0.00    +0.014 A 
ATOM     22  C   UNL     1       9.014   0.296  -8.812  0.00  0.00    +0.020 A 
ATOM     23  C   UNL     1       9.612   1.394  -8.220  0.00  0.00    +0.111 A 
ATOM     24  N   UNL     1       9.114   1.933  -7.123  0.00  0.00    -0.263 NA
ATOM     25  C   UNL     1       8.029   1.459  -6.547  0.00  0.00    +0.122 A 
ENDBRANCH  10  20
TORSDOF 3
