REMARK  Name = ZINC39552170
REMARK  8 active torsions:
REMARK  status: ('A' for Active; 'I' for Inactive)
REMARK    1  A    between atoms: C_1  and  C_2
REMARK    2  A    between atoms: C_4  and  C_36
REMARK    3  A    between atoms: C_6  and  C_8
REMARK    4  A    between atoms: C_13  and  C_16
REMARK    5  A    between atoms: C_16  and  C_30
REMARK    6  A    between atoms: N_19  and  C_23
REMARK    7  A    between atoms: C_23  and  C_24
REMARK    8  A    between atoms: C_24  and  C_25
REMARK                            x       y       z     vdW  Elec       q    Type
REMARK                         _______ _______ _______ _____ _____    ______ ____
ROOT
ATOM      1  C   UNL     1       2.185   4.427   3.680  0.00  0.00    +0.158 C 
ATOM      2  C   UNL     1       3.497   4.795   4.344  0.00  0.00    +0.253 C 
ATOM      3  O   UNL     1       3.783   4.676   5.516  0.00  0.00    -0.272 OA
ATOM      4  N   UNL     1       4.280   5.280   3.360  0.00  0.00    -0.224 N 
ATOM      5  C   UNL     1       3.651   5.270   2.179  0.00  0.00    +0.310 C 
ATOM      6  O   UNL     1       4.153   5.660   1.143  0.00  0.00    -0.252 OA
ATOM      7  N   UNL     1       2.401   4.781   2.266  0.00  0.00    -0.280 N 
ATOM      8  H   UNL     1       1.765   4.681   1.540  0.00  0.00    +0.152 HD
ENDROOT
BRANCH   1  14
ATOM      9  C   UNL     1       1.439  -0.673   1.906  0.00  0.00    +0.244 C 
ATOM     10  O   UNL     1       2.406  -1.359   1.650  0.00  0.00    -0.273 OA
ATOM     11  N   UNL     1       1.534   0.310   2.823  0.00  0.00    -0.299 N 
ATOM     12  C   UNL     1       0.346   1.074   3.228  0.00  0.00    +0.108 C 
ATOM     13  C   UNL     1       0.638   2.568   3.053  0.00  0.00    +0.025 C 
ATOM     14  C   UNL     1       1.910   2.929   3.823  0.00  0.00    +0.031 C 
ATOM     15  C   UNL     1       3.092   2.137   3.260  0.00  0.00    +0.025 C 
ATOM     16  C   UNL     1       2.827   0.635   3.441  0.00  0.00    +0.108 C 
BRANCH   9  22
ATOM     17  C   UNL     1       0.048   1.448  -0.099  0.00  0.00    +0.042 C 
ATOM     18  C   UNL     1       0.033  -0.058  -0.038  0.00  0.00    -0.038 C 
ATOM     19  C   UNL     1      -0.065  -0.901  -1.065  0.00  0.00    +0.024 C 
ATOM     20  C   UNL     1      -0.043  -2.277  -0.570  0.00  0.00    +0.034 C 
ATOM     21  N   UNL     1       0.065  -2.306   0.717  0.00  0.00    -0.271 NA
ATOM     22  C   UNL     1       0.131  -0.921   1.200  0.00  0.00    +0.217 C 
ATOM     23  C   UNL     1      -0.133  -3.501  -1.445  0.00  0.00    +0.065 C 
ENDBRANCH   9  22
ENDBRANCH   1  14
BRANCH   1  24
ATOM     24  C   UNL     1       1.050   5.231   4.260  0.00  0.00    +0.074 A 
ATOM     25  C   UNL     1       1.052   6.607   4.133  0.00  0.00    +0.026 A 
ATOM     26  C   UNL     1       0.004   7.337   4.670  0.00  0.00    +0.003 A 
ATOM     27  C   UNL     1      -1.013   6.653   5.319  0.00  0.00    +0.020 A 
ATOM     28  C   UNL     1      -0.947   5.275   5.408  0.00  0.00    +0.111 A 
ATOM     29  N   UNL     1       0.064   4.613   4.880  0.00  0.00    -0.257 NA
ENDBRANCH   1  24
BRANCH   4  30
ATOM     30  C   UNL     1       5.650   5.759   3.559  0.00  0.00    +0.123 C 
BRANCH  30  31
ATOM     31  C   UNL     1       6.629   4.598   3.372  0.00  0.00    +0.062 C 
BRANCH  31  32
ATOM     32  C   UNL     1       8.038   5.092   3.577  0.00  0.00    -0.009 A 
ATOM     33  C   UNL     1       8.767   5.142   4.718  0.00  0.00    +0.011 A 
ATOM     34  C   UNL     1      10.056   5.639   4.669  0.00  0.00    +0.008 A 
ATOM     35  C   UNL     1      10.552   6.062   3.481  0.00  0.00    +0.045 A 
ATOM     36  S   UNL     1       9.182   5.754   2.378  0.00  0.00    -0.102 S 
ENDBRANCH  31  32
ENDBRANCH  30  31
ENDBRANCH   4  30
TORSDOF 6
