REMARK  Name = ZINC12882197
REMARK  4 active torsions:
REMARK  status: ('A' for Active; 'I' for Inactive)
REMARK    1  A    between atoms: C_1  and  O_2
REMARK    2  A    between atoms: O_2  and  C_3
REMARK    3  A    between atoms: C_8  and  C_9
REMARK    4  A    between atoms: C_9  and  C_11
REMARK                            x       y       z     vdW  Elec       q    Type
REMARK                         _______ _______ _______ _____ _____    ______ ____
ROOT
ATOM      1  C   UNL     1       2.915   4.494   1.220  0.00  0.00    +0.066 C 
ATOM      2  C   UNL     1       4.141   5.311   0.737  0.00  0.00    -0.055 C 
ATOM      3  C   UNL     1       4.185   6.649   1.491  0.00  0.00    -0.016 C 
ATOM      4  C   UNL     1       3.946   7.726   0.386  0.00  0.00    -0.020 C 
ATOM      5  C   UNL     1       3.217   6.933  -0.727  0.00  0.00    -0.076 C 
ATOM      6  C   UNL     1       2.932   4.582  -1.196  0.00  0.00    +0.060 C 
ATOM      7  C   UNL     1       2.591   3.656  -0.033  0.00  0.00    +0.085 C 
ATOM      8  C   UNL     1       1.157   3.217  -0.051  0.00  0.00    -0.011 A 
ATOM      9  C   UNL     1      -0.044   3.889  -0.040  0.00  0.00    +0.006 A 
ATOM     10  C   UNL     1      -1.234   3.184  -0.069  0.00  0.00    +0.000 A 
ATOM     11  C   UNL     1      -1.214   1.802  -0.112  0.00  0.00    +0.002 A 
ATOM     12  C   UNL     1      -0.013   1.123  -0.116  0.00  0.00    +0.023 A 
ATOM     13  C   UNL     1       1.189   1.825  -0.087  0.00  0.00    +0.038 A 
ATOM     14  N   UNL     1       2.510   1.371  -0.090  0.00  0.00    -0.285 N 
ATOM     15  C   UNL     1       3.396   2.387  -0.062  0.00  0.00    +0.228 C 
ATOM     16  O   UNL     1       4.605   2.295  -0.060  0.00  0.00    -0.275 OA
ATOM     17  C   UNL     1       3.522   3.820  -2.352  0.00  0.00    -0.025 A 
ATOM     18  C   UNL     1       4.640   3.028  -2.489  0.00  0.00    +0.024 A 
ATOM     19  C   UNL     1       4.930   2.444  -3.710  0.00  0.00    +0.041 A 
ATOM     20  C   UNL     1       4.093   2.659  -4.792  0.00  0.00    +0.022 A 
ATOM     21  C   UNL     1       2.972   3.451  -4.658  0.00  0.00    +0.025 A 
ATOM     22  C   UNL     1       2.674   4.042  -3.432  0.00  0.00    +0.036 A 
ATOM     23  N   UNL     1       1.615   4.870  -3.052  0.00  0.00    -0.286 N 
ATOM     24  C   UNL     1       1.691   5.230  -1.758  0.00  0.00    +0.212 C 
ATOM     25  O   UNL     1       0.911   5.939  -1.158  0.00  0.00    -0.277 OA
ATOM     26 CL   UNL     1       6.339   1.445  -3.885  0.00  0.00    -0.084 Cl
ATOM     27  H   UNL     1       2.761   0.434  -0.111  0.00  0.00    +0.155 HD
ATOM     28  H   UNL     1       0.907   5.152  -3.651  0.00  0.00    +0.155 HD
ATOM     29  N   UNL     1       3.855   5.606  -0.665  0.00  0.00    +0.395 N 
ATOM     30  H   UNL     1       4.724   5.607  -1.211  0.00  0.00    -0.079 HD
ENDROOT
BRANCH   1  31
ATOM     31  C   UNL     1       1.766   5.402   1.575  0.00  0.00    +0.169 C 
ATOM     32  O   UNL     1       1.742   6.540   1.158  0.00  0.00    -0.292 OA
BRANCH  31  38
ATOM     33  C   UNL     1      -0.394   5.752   2.764  0.00  0.00    +0.131 A 
ATOM     34  C   UNL     1      -1.420   5.271   3.563  0.00  0.00    +0.046 A 
ATOM     35  C   UNL     1      -1.383   3.974   4.033  0.00  0.00    +0.004 A 
ATOM     36  C   UNL     1      -0.326   3.138   3.706  0.00  0.00    +0.001 A 
ATOM     37  C   UNL     1       0.700   3.594   2.909  0.00  0.00    +0.015 A 
ATOM     38  C   UNL     1       0.676   4.908   2.425  0.00  0.00    +0.059 A 
BRANCH  33  40
ATOM     39  C   UNL     1      -1.547   7.827   2.692  0.00  0.00    +0.277 C 
ATOM     40  O   UNL     1      -0.426   7.028   2.307  0.00  0.00    -0.494 OA
ENDBRANCH  33  40
ENDBRANCH  31  38
ENDBRANCH   1  31
TORSDOF 3
