REMARK  Name = ZINC14358506
REMARK  4 active torsions:
REMARK  status: ('A' for Active; 'I' for Inactive)
REMARK    1  A    between atoms: C_3  and  C_6
REMARK    2  A    between atoms: C_9  and  C_27
REMARK    3  A    between atoms: C_12  and  C_14
REMARK    4  A    between atoms: C_14  and  N_15
REMARK                            x       y       z     vdW  Elec       q    Type
REMARK                         _______ _______ _______ _____ _____    ______ ____
ROOT
ATOM      1  C   UNL     1      -0.019   1.537   0.011  0.00  0.00    +0.173 C 
ATOM      2  C   UNL     1       0.002  -0.004   0.002  0.00  0.00    +0.090 C 
ATOM      3  C   UNL     1       1.474  -0.348  -0.014  0.00  0.00    +0.069 C 
ATOM      4  N   UNL     1       2.170   0.736  -0.015  0.00  0.00    -0.181 NA
ATOM      5  N   UNL     1       1.407   1.902  -0.001  0.00  0.00    -0.181 N 
ATOM      6  C   UNL     1       1.895   3.158   0.001  0.00  0.00    +0.253 C 
ATOM      7  O   UNL     1       1.135   4.104   0.013  0.00  0.00    -0.272 OA
ENDROOT
BRANCH   3   8
ATOM      8  C   UNL     1       2.029  -1.715  -0.026  0.00  0.00    -0.002 A 
ATOM      9  C   UNL     1       1.173  -2.819  -0.017  0.00  0.00    +0.011 A 
ATOM     10  C   UNL     1       1.698  -4.094  -0.034  0.00  0.00    +0.020 A 
ATOM     11  C   UNL     1       3.070  -4.282  -0.048  0.00  0.00    +0.041 A 
ATOM     12  C   UNL     1       3.924  -3.191  -0.051  0.00  0.00    +0.020 A 
ATOM     13  C   UNL     1       3.412  -1.911  -0.040  0.00  0.00    +0.011 A 
ATOM     14 CL   UNL     1       3.722  -5.890  -0.062  0.00  0.00    -0.084 Cl
ENDBRANCH   3   8
BRANCH   1  17
ATOM     15  C   UNL     1      -2.214   2.903  -2.616  0.00  0.00    +0.041 A 
ATOM     16  C   UNL     1      -1.982   2.502  -1.280  0.00  0.00    +0.046 A 
ATOM     17  C   UNL     1      -0.711   2.065  -1.220  0.00  0.00    +0.128 A 
ATOM     18  O   UNL     1      -0.163   2.184  -2.440  0.00  0.00    -0.466 OA
ATOM     19  C   UNL     1      -1.071   2.686  -3.292  0.00  0.00    +0.195 A 
ENDBRANCH   1  17
BRANCH   6  20
ATOM     20  C   UNL     1       3.384   3.388  -0.012  0.00  0.00    +0.215 C 
BRANCH  20  21
ATOM     21  N   UNL     1       3.656   4.827  -0.007  0.00  0.00    -0.215 N 
ATOM     22  C   UNL     1       3.808   5.566   1.111  0.00  0.00    +0.247 C 
ATOM     23  O   UNL     1       3.747   5.181   2.260  0.00  0.00    -0.273 OA
ATOM     24  C   UNL     1       4.069   6.976   0.632  0.00  0.00    +0.113 C 
ATOM     25  C   UNL     1       5.441   7.450   1.099  0.00  0.00    +0.035 C 
ATOM     26  C   UNL     1       5.698   8.867   0.580  0.00  0.00    +0.003 C 
ATOM     27  C   UNL     1       4.609   9.806   1.104  0.00  0.00    +0.000 C 
ATOM     28  C   UNL     1       3.242   9.331   0.606  0.00  0.00    +0.003 C 
ATOM     29  C   UNL     1       2.975   7.916   1.125  0.00  0.00    +0.035 C 
ATOM     30  N   UNL     1       4.033   6.867  -0.832  0.00  0.00    -0.285 N 
ATOM     31  C   UNL     1       3.791   5.572  -1.111  0.00  0.00    +0.310 C 
ATOM     32  O   UNL     1       3.702   5.129  -2.240  0.00  0.00    -0.252 OA
ATOM     33  H   UNL     1       4.162   7.585  -1.471  0.00  0.00    +0.151 HD
ENDBRANCH  20  21
ENDBRANCH   6  20
TORSDOF 4
