REMARK  Name = ZINC66271517
REMARK  8 active torsions:
REMARK  status: ('A' for Active; 'I' for Inactive)
REMARK    1  A    between atoms: C_1  and  C_2
REMARK    2  A    between atoms: C_2  and  C_4
REMARK    3  A    between atoms: C_2  and  N_18
REMARK    4  A    between atoms: C_4  and  C_5
REMARK    5  A    between atoms: N_7  and  C_8
REMARK    6  A    between atoms: C_8  and  C_10
REMARK    7  A    between atoms: C_8  and  C_11
REMARK    8  A    between atoms: C_19  and  C_21
REMARK                            x       y       z     vdW  Elec       q    Type
REMARK                         _______ _______ _______ _____ _____    ______ ____
ROOT
ATOM      1  C   UNL     1       0.742  -0.511   1.242  0.00  0.00    +0.117 C 
ENDROOT
BRANCH   1   2
ATOM      2  C   UNL     1       0.657  -2.014   1.298  0.00  0.00    +0.215 C 
ATOM      3  O   UNL     1       0.062  -2.621   0.432  0.00  0.00    -0.276 OA
ATOM      4  N   UNL     1       1.241  -2.685   2.311  0.00  0.00    -0.309 N 
ATOM      5  H   UNL     1       1.716  -2.200   3.003  0.00  0.00    +0.149 HD
BRANCH   4   6
ATOM      6  C   UNL     1       1.158  -4.147   2.365  0.00  0.00    +0.100 C 
ATOM      7  C   UNL     1       2.275  -4.753   1.514  0.00  0.00    +0.033 C 
BRANCH   6   8
ATOM      8  C   UNL     1       1.309  -4.606   3.793  0.00  0.00    -0.027 A 
ATOM      9  C   UNL     1       2.224  -3.987   4.624  0.00  0.00    +0.008 A 
ATOM     10  C   UNL     1       2.363  -4.406   5.933  0.00  0.00    +0.038 A 
ATOM     11  C   UNL     1       1.585  -5.447   6.413  0.00  0.00    +0.123 A 
ATOM     12  C   UNL     1       0.669  -6.066   5.579  0.00  0.00    +0.038 A 
ATOM     13  C   UNL     1       0.528  -5.641   4.272  0.00  0.00    +0.008 A 
ATOM     14  F   UNL     1       1.721  -5.858   7.692  0.00  0.00    -0.205 F 
ENDBRANCH   6   8
ENDBRANCH   4   6
ENDBRANCH   1   2
BRANCH   1  16
ATOM     15  C   UNL     1      -0.019   1.526   0.010  0.00  0.00    +0.028 C 
ATOM     16  C   UNL     1       0.002  -0.004   0.002  0.00  0.00    +0.079 C 
BRANCH  16  17
ATOM     17  N   UNL     1       0.688  -0.476  -1.203  0.00  0.00    -0.312 N 
ATOM     18  C   UNL     1       0.006  -0.608  -2.358  0.00  0.00    +0.216 C 
ATOM     19  O   UNL     1      -1.175  -0.336  -2.400  0.00  0.00    -0.276 OA
ATOM     20  H   UNL     1       1.632  -0.695  -1.170  0.00  0.00    +0.149 HD
BRANCH  18  21
ATOM     21  C   UNL     1       0.712  -1.094  -3.598  0.00  0.00    +0.075 C 
ATOM     22  C   UNL     1       1.849  -0.133  -3.948  0.00  0.00    +0.013 C 
ATOM     23  C   UNL     1       2.565  -0.626  -5.207  0.00  0.00    +0.001 C 
ATOM     24  C   UNL     1       1.572  -0.685  -6.369  0.00  0.00    +0.000 C 
ATOM     25  C   UNL     1       0.434  -1.646  -6.019  0.00  0.00    +0.001 C 
ATOM     26  C   UNL     1      -0.282  -1.153  -4.761  0.00  0.00    +0.013 C 
ENDBRANCH  18  21
ENDBRANCH  16  17
ENDBRANCH   1  16
TORSDOF 6
