REMARK  Name = ZINC36992085
REMARK  5 active torsions:
REMARK  status: ('A' for Active; 'I' for Inactive)
REMARK    1  A    between atoms: C_1  and  C_2
REMARK    2  A    between atoms: C_2  and  C_4
REMARK    3  A    between atoms: C_2  and  N_10
REMARK    4  A    between atoms: N_10  and  C_11
REMARK    5  A    between atoms: C_11  and  C_12
REMARK                            x       y       z     vdW  Elec       q    Type
REMARK                         _______ _______ _______ _____ _____    ______ ____
ROOT
ATOM      1  C   UNL     1      -2.050  -0.126  -1.234  0.00  0.00    -0.042 C 
ENDROOT
BRANCH   1   2
ATOM      2  C   UNL     1      -3.464  -0.648  -1.224  0.00  0.00    -0.019 A 
ATOM      3  C   UNL     1      -3.782  -1.807  -1.909  0.00  0.00    +0.005 A 
ATOM      4  C   UNL     1      -5.078  -2.288  -1.899  0.00  0.00    +0.004 A 
ATOM      5  C   UNL     1      -6.066  -1.611  -1.206  0.00  0.00    +0.049 A 
ATOM      6  C   UNL     1      -5.751  -0.451  -0.519  0.00  0.00    +0.162 A 
ATOM      7  C   UNL     1      -4.449   0.028  -0.524  0.00  0.00    +0.163 A 
ATOM      8  O   UNL     1      -4.148   1.169   0.161  0.00  0.00    -0.488 OA
ATOM      9  C   UNL     1      -4.710   2.376  -0.358  0.00  0.00    +0.232 C 
ATOM     10  C   UNL     1      -6.128   2.575   0.155  0.00  0.00    +0.082 C 
ATOM     11  C   UNL     1      -7.080   1.498  -0.342  0.00  0.00    +0.232 C 
ATOM     12  O   UNL     1      -6.716   0.225   0.169  0.00  0.00    -0.488 OA
ENDBRANCH   1   2
BRANCH   1  13
ATOM     13  N   UNL     1      -1.376  -0.512   0.012  0.00  0.00    +0.386 N 
ATOM     14  H   UNL     1      -1.363  -1.518   0.090  0.00  0.00    -0.085 HD
ATOM     15  H   UNL     1      -1.873  -0.121   0.799  0.00  0.00    -0.085 HD
BRANCH  13  17
ATOM     16  C   UNL     1      -0.019   1.526   0.010  0.00  0.00    -0.008 C 
ATOM     17  C   UNL     1       0.002  -0.004   0.002  0.00  0.00    -0.037 C 
BRANCH  17  18
ATOM     18  C   UNL     1       0.731  -0.503   1.223  0.00  0.00    -0.023 A 
ATOM     19  C   UNL     1       2.009  -0.938   1.335  0.00  0.00    +0.011 A 
ATOM     20  C   UNL     1       2.471  -1.355   2.570  0.00  0.00    +0.028 A 
ATOM     21  C   UNL     1       1.629  -1.315   3.633  0.00  0.00    +0.078 A 
ATOM     22  S   UNL     1       0.136  -0.668   2.898  0.00  0.00    -0.083 S 
ATOM     23 CL   UNL     1       1.927  -1.770   5.282  0.00  0.00    -0.076 Cl
ENDBRANCH  17  18
ENDBRANCH  13  17
ENDBRANCH   1  13
TORSDOF 4
