REMARK  Name = ZINC32816210
REMARK  8 active torsions:
REMARK  status: ('A' for Active; 'I' for Inactive)
REMARK    1  A    between atoms: C_1  and  C_2
REMARK    2  A    between atoms: C_2  and  N_3
REMARK    3  A    between atoms: N_3  and  C_4
REMARK    4  A    between atoms: C_4  and  C_5
REMARK    5  A    between atoms: C_11  and  C_13
REMARK    6  A    between atoms: C_13  and  C_14
REMARK    7  A    between atoms: C_17  and  C_19
REMARK    8  A    between atoms: C_22  and  C_24
REMARK                            x       y       z     vdW  Elec       q    Type
REMARK                         _______ _______ _______ _____ _____    ______ ____
ROOT
ATOM      1  N   UNL     1       3.997   4.969   1.357  0.00  0.00    -0.297 N 
ATOM      2  C   UNL     1       2.877   4.246   1.162  0.00  0.00    +0.222 C 
ATOM      3  O   UNL     1       2.604   3.335   1.914  0.00  0.00    -0.275 OA
ENDROOT
BRANCH   1   5
ATOM      4  C   UNL     1       3.704   7.366   0.970  0.00  0.00    +0.024 C 
ATOM      5  C   UNL     1       4.326   6.070   0.448  0.00  0.00    +0.105 C 
ENDBRANCH   1   5
BRANCH   1   6
ATOM      6  C   UNL     1       4.885   4.655   2.479  0.00  0.00    +0.150 C 
BRANCH   6   7
ATOM      7  C   UNL     1       5.915   3.648   2.037  0.00  0.00    +0.008 A 
ATOM      8  C   UNL     1       7.140   3.860   1.498  0.00  0.00    +0.014 A 
ATOM      9  C   UNL     1       7.925   2.771   1.165  0.00  0.00    +0.028 A 
ATOM     10  C   UNL     1       7.444   1.523   1.389  0.00  0.00    +0.078 A 
ATOM     11  S   UNL     1       5.841   1.865   2.096  0.00  0.00    -0.080 S 
ATOM     12 CL   UNL     1       8.196  -0.011   1.076  0.00  0.00    -0.076 Cl
ENDBRANCH   6   7
ENDBRANCH   1   6
BRANCH   2  13
ATOM     13  C   UNL     1       1.963   4.569   0.008  0.00  0.00    +0.151 C 
BRANCH  13  14
ATOM     14  C   UNL     1       0.792   3.620   0.013  0.00  0.00    +0.058 A 
ATOM     15  C   UNL     1      -0.477   4.106   0.027  0.00  0.00    +0.071 A 
ATOM     16  S   UNL     1      -1.415   2.583   0.021  0.00  0.00    -0.072 S 
ATOM     17  C   UNL     1      -0.018   1.467   0.010  0.00  0.00    +0.144 A 
ATOM     18  N   UNL     1       0.997   2.324   0.005  0.00  0.00    -0.240 NA
BRANCH  17  19
ATOM     19  C   UNL     1       0.002  -0.004   0.002  0.00  0.00    +0.160 A 
ATOM     20  C   UNL     1      -1.090  -0.819   0.008  0.00  0.00    +0.052 A 
ATOM     21  C   UNL     1      -0.608  -2.142  -0.004  0.00  0.00    +0.045 A 
ATOM     22  C   UNL     1       0.738  -2.073  -0.017  0.00  0.00    +0.103 A 
ATOM     23  O   UNL     1       1.103  -0.780  -0.019  0.00  0.00    -0.458 OA
ATOM     24  C   UNL     1       1.678  -3.251  -0.033  0.00  0.00    +0.086 C 
ENDBRANCH  17  19
ENDBRANCH  13  14
ENDBRANCH   2  13
TORSDOF 6
