REMARK  Name = ZINC67302633
REMARK  5 active torsions:
REMARK  status: ('A' for Active; 'I' for Inactive)
REMARK    1  A    between atoms: C_1  and  C_2
REMARK    2  A    between atoms: C_2  and  C_3
REMARK    3  A    between atoms: C_2  and  N_4
REMARK    4  A    between atoms: C_13  and  C_15
REMARK    5  A    between atoms: C_18  and  N_21
REMARK                            x       y       z     vdW  Elec       q    Type
REMARK                         _______ _______ _______ _____ _____    ______ ____
ROOT
ATOM      1  N   UNL     1      -1.434  -1.037   0.983  0.00  0.00    -0.297 N 
ATOM      2  C   UNL     1      -1.703  -2.169   0.303  0.00  0.00    +0.302 C 
ATOM      3  O   UNL     1      -0.797  -2.801  -0.206  0.00  0.00    -0.253 OA
ATOM      4  N   UNL     1      -2.974  -2.601   0.188  0.00  0.00    -0.283 N 
ATOM      5  C   UNL     1      -4.089  -1.787   0.694  0.00  0.00    +0.128 C 
ATOM      6  C   UNL     1      -5.084  -1.555  -0.450  0.00  0.00    +0.127 C 
ATOM      7  N   UNL     1      -5.381  -2.847  -1.084  0.00  0.00    -0.298 N 
ATOM      8  C   UNL     1      -4.266  -3.661  -1.589  0.00  0.00    +0.127 C 
ATOM      9  C   UNL     1      -3.271  -3.890  -0.451  0.00  0.00    +0.128 C 
ATOM     10  C   UNL     1      -6.653  -3.279  -1.199  0.00  0.00    +0.219 C 
ATOM     11  O   UNL     1      -6.881  -4.374  -1.668  0.00  0.00    -0.275 OA
ATOM     12  H   UNL     1      -2.161  -0.494   1.327  0.00  0.00    +0.150 HD
ENDROOT
BRANCH  10  13
ATOM     13  C   UNL     1      -7.790  -2.401  -0.745  0.00  0.00    +0.075 C 
ATOM     14  C   UNL     1      -7.868  -1.163  -1.641  0.00  0.00    +0.015 C 
ATOM     15  C   UNL     1      -9.023  -0.272  -1.180  0.00  0.00    +0.026 C 
ATOM     16  C   UNL     1     -10.336  -1.051  -1.272  0.00  0.00    +0.087 C 
ATOM     17  C   UNL     1     -10.259  -2.289  -0.376  0.00  0.00    +0.026 C 
ATOM     18  C   UNL     1      -9.104  -3.180  -0.837  0.00  0.00    +0.015 C 
BRANCH  16  19
ATOM     19  N   UNL     1     -11.443  -0.198  -0.830  0.00  0.00    -0.350 N 
ATOM     20  C   UNL     1     -11.562   0.373   0.402  0.00  0.00    +0.086 A 
ATOM     21  C   UNL     1     -12.709   1.083   0.428  0.00  0.00    +0.019 A 
ATOM     22  C   UNL     1     -13.319   0.945  -0.835  0.00  0.00    +0.019 A 
ATOM     23  C   UNL     1     -12.519   0.161  -1.586  0.00  0.00    +0.086 A 
ENDBRANCH  16  19
ENDBRANCH  10  13
BRANCH   1  25
ATOM     24  C   UNL     1       0.012   0.890   1.405  0.00  0.00    +0.027 C 
ATOM     25  C   UNL     1      -0.045  -0.625   1.202  0.00  0.00    +0.068 C 
ATOM     26  C   UNL     1       0.504  -1.327   2.445  0.00  0.00    +0.027 C 
ENDBRANCH   1  25
TORSDOF 3
