REMARK  Name = ZINC39608871
REMARK  9 active torsions:
REMARK  status: ('A' for Active; 'I' for Inactive)
REMARK    1  A    between atoms: C_1  and  C_2
REMARK    2  A    between atoms: C_2  and  C_3
REMARK    3  A    between atoms: C_3  and  C_4
REMARK    4  A    between atoms: C_4  and  C_5
REMARK    5  A    between atoms: C_9  and  C_18
REMARK    6  A    between atoms: N_20  and  C_21
REMARK    7  A    between atoms: C_26  and  O_28
REMARK    8  A    between atoms: O_28  and  C_29
REMARK    9  A    between atoms: C_29  and  C_30
REMARK                            x       y       z     vdW  Elec       q    Type
REMARK                         _______ _______ _______ _____ _____    ______ ____
ROOT
ATOM      1  C   UNL     1       1.245  -2.577   2.257  0.00  0.00    +0.216 C 
ATOM      2  O   UNL     1       1.637  -1.715   3.016  0.00  0.00    -0.276 OA
ATOM      3  N   UNL     1       1.477  -3.875   2.535  0.00  0.00    -0.300 N 
ATOM      4  C   UNL     1       1.086  -5.059   1.734  0.00  0.00    +0.121 C 
ATOM      5  C   UNL     1       2.293  -6.018   1.840  0.00  0.00    +0.100 C 
ATOM      6  C   UNL     1       3.007  -5.609   3.139  0.00  0.00    -0.004 C 
ATOM      7  C   UNL     1       2.187  -4.441   3.707  0.00  0.00    +0.115 C 
ATOM      8  C   UNL     1       4.430  -5.149   2.838  0.00  0.00    -0.010 C 
ATOM      9  C   UNL     1       5.138  -4.802   4.151  0.00  0.00    -0.082 C 
ATOM     10  N   UNL     1       5.157  -5.981   5.025  0.00  0.00    +0.379 N 
ATOM     11  C   UNL     1       3.786  -6.360   5.385  0.00  0.00    -0.082 C 
ATOM     12  C   UNL     1       3.021  -6.773   4.124  0.00  0.00    -0.010 C 
ATOM     13  H   UNL     1       5.602  -6.748   4.543  0.00  0.00    -0.086 HD
ATOM     14  H   UNL     1       5.677  -5.768   5.863  0.00  0.00    -0.086 HD
ENDROOT
BRANCH   5  15
ATOM     15  C   UNL     1       3.209  -5.840   0.657  0.00  0.00    +0.218 C 
ATOM     16  O   UNL     1       3.295  -4.760   0.113  0.00  0.00    -0.275 OA
ATOM     17  N   UNL     1       3.933  -6.883   0.203  0.00  0.00    -0.310 N 
ATOM     18  H   UNL     1       3.864  -7.747   0.638  0.00  0.00    +0.149 HD
BRANCH  17  19
ATOM     19  C   UNL     1       4.824  -6.710  -0.948  0.00  0.00    +0.102 C 
ATOM     20  C   UNL     1       4.046  -6.939  -2.255  0.00  0.00    +0.025 C 
ATOM     21  C   UNL     1       4.722  -8.129  -2.967  0.00  0.00    +0.004 C 
ATOM     22  C   UNL     1       6.163  -8.144  -2.397  0.00  0.00    +0.033 C 
ATOM     23  C   UNL     1       5.946  -7.767  -0.910  0.00  0.00    +0.139 C 
BRANCH  23  24
ATOM     24  O   UNL     1       7.140  -7.210  -0.355  0.00  0.00    -0.370 OA
BRANCH  24  25
ATOM     25  C   UNL     1       7.958  -8.158   0.332  0.00  0.00    +0.195 C 
BRANCH  25  26
ATOM     26  C   UNL     1       9.183  -7.465   0.873  0.00  0.00    -0.022 A 
ATOM     27  C   UNL     1      10.325  -7.378   0.101  0.00  0.00    +0.006 A 
ATOM     28  C   UNL     1      11.448  -6.742   0.597  0.00  0.00    +0.000 A 
ATOM     29  C   UNL     1      11.428  -6.194   1.866  0.00  0.00    +0.000 A 
ATOM     30  C   UNL     1      10.285  -6.281   2.638  0.00  0.00    +0.000 A 
ATOM     31  C   UNL     1       9.161  -6.912   2.140  0.00  0.00    +0.006 A 
ENDBRANCH  25  26
ENDBRANCH  24  25
ENDBRANCH  23  24
ENDBRANCH  17  19
ENDBRANCH   5  15
BRANCH   1  32
ATOM     32  C   UNL     1       0.498  -2.196   1.005  0.00  0.00    +0.096 C 
BRANCH  32  33
ATOM     33  C   UNL     1       0.371  -0.673   0.930  0.00  0.00    +0.009 C 
BRANCH  33  35
ATOM     34  C   UNL     1      -0.513   1.237  -0.416  0.00  0.00    +0.004 C 
ATOM     35  C   UNL     1      -0.387  -0.286  -0.341  0.00  0.00    -0.003 C 
ENDBRANCH  33  35
ENDBRANCH  32  33
ENDBRANCH   1  32
TORSDOF 8
