REMARK  Name = ZINC15314379
REMARK  6 active torsions:
REMARK  status: ('A' for Active; 'I' for Inactive)
REMARK    1  A    between atoms: C_1  and  C_2
REMARK    2  A    between atoms: C_2  and  C_4
REMARK    3  A    between atoms: C_2  and  N_14
REMARK    4  A    between atoms: C_15  and  C_17
REMARK    5  A    between atoms: N_20  and  C_23
REMARK    6  A    between atoms: C_28  and  N_29
REMARK                            x       y       z     vdW  Elec       q    Type
REMARK                         _______ _______ _______ _____ _____    ______ ____
ROOT
ATOM      1  N   UNL     1      -0.745   1.585  -3.677  0.00  0.00    -0.312 N 
ATOM      2  C   UNL     1      -0.086   1.729  -4.844  0.00  0.00    +0.216 C 
ATOM      3  O   UNL     1       1.094   1.456  -4.911  0.00  0.00    -0.276 OA
ATOM      4  H   UNL     1      -1.689   1.802  -3.623  0.00  0.00    +0.149 HD
ENDROOT
BRANCH   2   5
ATOM      5  C   UNL     1      -0.815   2.228  -6.065  0.00  0.00    +0.078 C 
ATOM      6  C   UNL     1      -1.955   1.266  -6.409  0.00  0.00    +0.031 C 
ATOM      7  C   UNL     1      -2.653   1.745  -7.684  0.00  0.00    +0.106 C 
ATOM      8  N   UNL     1      -1.682   1.796  -8.785  0.00  0.00    -0.328 N 
ATOM      9  C   UNL     1      -0.603   2.749  -8.497  0.00  0.00    +0.106 C 
ATOM     10  C   UNL     1       0.156   2.300  -7.247  0.00  0.00    +0.031 C 
BRANCH   8  11
ATOM     11  C   UNL     1      -2.312   2.102  -9.993  0.00  0.00    +0.060 A 
ATOM     12  C   UNL     1      -2.935   3.333 -10.161  0.00  0.00    +0.025 A 
ATOM     13  C   UNL     1      -3.552   3.635 -11.359  0.00  0.00    +0.002 A 
ATOM     14  C   UNL     1      -3.559   2.710 -12.387  0.00  0.00    +0.002 A 
ATOM     15  C   UNL     1      -2.945   1.482 -12.222  0.00  0.00    +0.034 A 
ATOM     16  C   UNL     1      -2.321   1.176 -11.028  0.00  0.00    +0.147 A 
BRANCH  16  17
ATOM     17  N   UNL     1      -1.664  -0.139 -10.851  0.00  0.00    +0.058 N 
ATOM     18  O   UNL     1      -1.673  -0.951 -11.759  0.00  0.00    -0.126 OA
ATOM     19  O   UNL     1      -1.115  -0.408  -9.798  0.00  0.00    -0.126 OA
ENDBRANCH  16  17
ENDBRANCH   8  11
ENDBRANCH   2   5
BRANCH   1  21
ATOM     20  C   UNL     1      -0.016  -0.431  -2.499  0.00  0.00    +0.028 C 
ATOM     21  C   UNL     1      -0.037   1.099  -2.490  0.00  0.00    +0.076 C 
BRANCH  21  22
ATOM     22  C   UNL     1      -0.753   1.593  -1.232  0.00  0.00    -0.010 C 
ATOM     23  C   UNL     1      -0.013   1.086   0.008  0.00  0.00    +0.012 C 
ATOM     24  C   UNL     1      -0.729   1.579   1.267  0.00  0.00    -0.010 C 
ATOM     25  C   UNL     1      -0.750   3.109   1.275  0.00  0.00    +0.007 C 
ATOM     26  C   UNL     1      -1.490   3.616   0.036  0.00  0.00    -0.010 C 
ATOM     27  C   UNL     1      -0.773   3.123  -1.223  0.00  0.00    +0.012 C 
ATOM     28  C   UNL     1      -2.925   3.086   0.047  0.00  0.00    +0.007 C 
ATOM     29  C   UNL     1      -2.904   1.556   0.038  0.00  0.00    -0.010 C 
ATOM     30  C   UNL     1      -2.164   1.050   1.278  0.00  0.00    +0.007 C 
ATOM     31  C   UNL     1      -2.188   1.063  -1.221  0.00  0.00    +0.012 C 
ENDBRANCH  21  22
ENDBRANCH   1  21
TORSDOF 5
