REMARK  Name = ZINC00237162
REMARK  6 active torsions:
REMARK  status: ('A' for Active; 'I' for Inactive)
REMARK    1  A    between atoms: C_1  and  C_2
REMARK    2  A    between atoms: C_2  and  C_4
REMARK    3  A    between atoms: C_2  and  N_18
REMARK    4  A    between atoms: N_6  and  N_7
REMARK    5  A    between atoms: C_8  and  C_9
REMARK    6  A    between atoms: N_18  and  C_19
REMARK                            x       y       z     vdW  Elec       q    Type
REMARK                         _______ _______ _______ _____ _____    ______ ____
ROOT
ATOM      1  C   UNL     1       0.707  -0.490  -1.238  0.00  0.00    +0.252 C 
ATOM      2  O   UNL     1       0.120  -1.191  -2.035  0.00  0.00    -0.272 OA
ATOM      3  N   UNL     1       1.991  -0.146  -1.462  0.00  0.00    -0.205 N 
ATOM      4  H   UNL     1       2.461   0.415  -0.825  0.00  0.00    +0.177 HD
ENDROOT
BRANCH   1   6
ATOM      5  C   UNL     1      -0.019   1.526   0.010  0.00  0.00    +0.038 C 
ATOM      6  C   UNL     1       0.002  -0.004   0.002  0.00  0.00    +0.155 C 
BRANCH   6   7
ATOM      7  N   UNL     1      -1.372  -0.511   0.012  0.00  0.00    -0.333 N 
ATOM      8  H   UNL     1      -1.810  -0.743  -0.822  0.00  0.00    +0.147 HD
BRANCH   7   9
ATOM      9  C   UNL     1      -2.053  -0.660   1.224  0.00  0.00    +0.028 A 
ATOM     10  C   UNL     1      -1.425  -0.334   2.419  0.00  0.00    +0.024 A 
ATOM     11  C   UNL     1      -2.103  -0.477   3.614  0.00  0.00    +0.022 A 
ATOM     12  C   UNL     1      -3.401  -0.956   3.623  0.00  0.00    +0.041 A 
ATOM     13  C   UNL     1      -4.026  -1.288   2.434  0.00  0.00    +0.022 A 
ATOM     14  C   UNL     1      -3.356  -1.141   1.235  0.00  0.00    +0.024 A 
ATOM     15 CL   UNL     1      -4.246  -1.142   5.128  0.00  0.00    -0.084 Cl
ENDBRANCH   7   9
ENDBRANCH   6   7
ENDBRANCH   1   6
BRANCH   3  16
ATOM     16  N   UNL     1       2.647  -0.598  -2.614  0.00  0.00    -0.188 NA
ATOM     17  C   UNL     1       3.883  -0.266  -2.830  0.00  0.00    +0.138 C 
BRANCH  17  18
ATOM     18  C   UNL     1       4.573  -0.742  -4.043  0.00  0.00    -0.002 A 
ATOM     19  C   UNL     1       3.900  -1.554  -4.959  0.00  0.00    +0.013 A 
ATOM     20  C   UNL     1       4.546  -1.993  -6.095  0.00  0.00    +0.050 A 
ATOM     21  C   UNL     1       5.867  -1.640  -6.328  0.00  0.00    +0.166 A 
ATOM     22  C   UNL     1       6.547  -0.834  -5.415  0.00  0.00    +0.167 A 
ATOM     23  C   UNL     1       5.904  -0.386  -4.276  0.00  0.00    +0.059 A 
ATOM     24  O   UNL     1       7.818  -0.634  -5.872  0.00  0.00    -0.453 OA
ATOM     25  C   UNL     1       7.784  -0.984  -7.268  0.00  0.00    +0.466 C 
ATOM     26  O   UNL     1       6.714  -1.943  -7.355  0.00  0.00    -0.453 OA
ENDBRANCH  17  18
ENDBRANCH   3  16
TORSDOF 5
