REMARK  Name = ZINC08944738
REMARK  6 active torsions:
REMARK  status: ('A' for Active; 'I' for Inactive)
REMARK    1  A    between atoms: C_1  and  C_2
REMARK    2  A    between atoms: C_2  and  C_24
REMARK    3  A    between atoms: N_5  and  C_9
REMARK    4  A    between atoms: C_9  and  N_57
REMARK    5  A    between atoms: N_12  and  S_15
REMARK    6  A    between atoms: S_15  and  C_18
REMARK                            x       y       z     vdW  Elec       q    Type
REMARK                         _______ _______ _______ _____ _____    ______ ____
ROOT
ATOM      1  C   UNL     1       4.110  -5.100  -7.219  0.00  0.00    +0.047 C 
ATOM      2  C   UNL     1       3.811  -3.731  -7.834  0.00  0.00    +0.135 C 
ATOM      3  C   UNL     1       3.107  -2.838  -6.831  0.00  0.00    +0.249 C 
ATOM      4  O   UNL     1       2.032  -3.033  -6.306  0.00  0.00    -0.272 OA
ATOM      5  N   UNL     1       3.925  -1.784  -6.645  0.00  0.00    -0.241 N 
ATOM      6  C   UNL     1       5.034  -1.883  -7.386  0.00  0.00    +0.308 C 
ATOM      7  O   UNL     1       5.920  -1.051  -7.391  0.00  0.00    -0.252 OA
ATOM      8  N   UNL     1       5.061  -3.008  -8.123  0.00  0.00    -0.281 N 
ATOM      9  H   UNL     1       5.765  -3.287  -8.729  0.00  0.00    +0.152 HD
ENDROOT
BRANCH   2  10
ATOM     10  C   UNL     1       2.982  -3.883  -9.083  0.00  0.00    -0.012 A 
ATOM     11  C   UNL     1       1.603  -3.818  -9.007  0.00  0.00    +0.010 A 
ATOM     12  C   UNL     1       0.838  -3.956 -10.150  0.00  0.00    +0.050 A 
ATOM     13  C   UNL     1       1.452  -4.160 -11.376  0.00  0.00    +0.166 A 
ATOM     14  C   UNL     1       2.841  -4.225 -11.452  0.00  0.00    +0.167 A 
ATOM     15  C   UNL     1       3.602  -4.081 -10.303  0.00  0.00    +0.055 A 
ATOM     16  O   UNL     1       3.198  -4.429 -12.753  0.00  0.00    -0.453 OA
ATOM     17  C   UNL     1       2.004  -4.896 -13.410  0.00  0.00    +0.466 C 
ATOM     18  O   UNL     1       0.938  -4.323 -12.630  0.00  0.00    -0.453 OA
ENDBRANCH   2  10
BRANCH   5  19
ATOM     19  C   UNL     1       3.633  -0.664  -5.746  0.00  0.00    +0.043 C 
BRANCH  19  25
ATOM     20  C   UNL     1       4.434   0.277  -3.664  0.00  0.00    -0.059 C 
ATOM     21  C   UNL     1       5.149  -0.066  -2.353  0.00  0.00    +0.091 C 
ATOM     22  N   UNL     1       4.345  -1.062  -1.629  0.00  0.00    -0.180 NA
ATOM     23  C   UNL     1       3.922  -2.272  -2.351  0.00  0.00    +0.091 C 
ATOM     24  C   UNL     1       3.250  -1.839  -3.664  0.00  0.00    -0.059 C 
ATOM     25  N   UNL     1       4.188  -0.975  -4.412  0.00  0.00    +0.392 N 
ATOM     26  H   UNL     1       5.078  -1.473  -4.529  0.00  0.00    -0.079 HD
BRANCH  22  27
ATOM     27  S   UNL     1       3.934  -0.832  -0.042  0.00  0.00    +0.061 S 
ATOM     28  O   UNL     1       4.902   0.054   0.504  0.00  0.00    -0.153 OA
ATOM     29  O   UNL     1       3.686  -2.120   0.505  0.00  0.00    -0.153 OA
BRANCH  27  30
ATOM     30  C   UNL     1       2.396   0.029  -0.022  0.00  0.00    +0.105 A 
ATOM     31  C   UNL     1       1.208  -0.679  -0.014  0.00  0.00    +0.028 A 
ATOM     32  C   UNL     1       0.002  -0.004   0.002  0.00  0.00    +0.002 A 
ATOM     33  C   UNL     1      -0.017   1.378   0.010  0.00  0.00    +0.000 A 
ATOM     34  C   UNL     1       1.171   2.086   0.002  0.00  0.00    +0.002 A 
ATOM     35  C   UNL     1       2.377   1.411  -0.014  0.00  0.00    +0.028 A 
ENDBRANCH  27  30
ENDBRANCH  22  27
ENDBRANCH  19  25
ENDBRANCH   5  19
TORSDOF 5
