REMARK  Name = ZINC09357313
REMARK  9 active torsions:
REMARK  status: ('A' for Active; 'I' for Inactive)
REMARK    1  A    between atoms: C_1  and  C_2
REMARK    2  A    between atoms: C_2  and  C_3
REMARK    3  A    between atoms: C_3  and  C_5
REMARK    4  A    between atoms: C_3  and  N_6
REMARK    5  A    between atoms: C_9  and  O_11
REMARK    6  A    between atoms: C_12  and  C_19
REMARK    7  A    between atoms: C_16  and  O_18
REMARK    8  A    between atoms: C_24  and  O_25
REMARK    9  A    between atoms: O_25  and  C_26
REMARK                            x       y       z     vdW  Elec       q    Type
REMARK                         _______ _______ _______ _____ _____    ______ ____
ROOT
ATOM      1  N   UNL     1       0.866  -1.969   1.174  0.00  0.00    -0.240 N 
ATOM      2  C   UNL     1       2.049  -2.680   1.166  0.00  0.00    +0.163 A 
ATOM      3  C   UNL     1       1.711  -4.003   1.087  0.00  0.00    +0.076 A 
ATOM      4  C   UNL     1       0.303  -4.085   1.055  0.00  0.00    +0.238 A 
ATOM      5  N   UNL     1      -0.190  -2.877   1.112  0.00  0.00    -0.131 NA
ATOM      6  C   UNL     1       2.589  -5.217   1.028  0.00  0.00    +0.119 C 
ATOM      7  S   UNL     1       4.105  -5.024   1.972  0.00  0.00    -0.138 S 
ATOM      8  C   UNL     1       5.048  -3.746   1.129  0.00  0.00    +0.165 C 
ATOM      9  C   UNL     1       4.444  -2.403   1.250  0.00  0.00    +0.199 C 
ATOM     10  N   UNL     1       3.239  -2.060   1.237  0.00  0.00    -0.197 NA
ENDROOT
BRANCH   6  11
ATOM     11  C   UNL     1       1.825  -6.396   1.574  0.00  0.00    +0.012 A 
ATOM     12  C   UNL     1       1.155  -7.244   0.714  0.00  0.00    +0.008 A 
ATOM     13  C   UNL     1       0.454  -8.325   1.215  0.00  0.00    +0.001 A 
ATOM     14  C   UNL     1       0.423  -8.562   2.577  0.00  0.00    +0.004 A 
ATOM     15  C   UNL     1       1.092  -7.717   3.441  0.00  0.00    +0.046 A 
ATOM     16  C   UNL     1       1.800  -6.634   2.941  0.00  0.00    +0.125 A 
BRANCH  16  17
ATOM     17  O   UNL     1       2.464  -5.805   3.788  0.00  0.00    -0.495 OA
ATOM     18  C   UNL     1       2.395  -6.111   5.182  0.00  0.00    +0.277 C 
ENDBRANCH  16  17
ENDBRANCH   6  11
BRANCH   1  19
ATOM     19  C   UNL     1       0.742  -0.511   1.242  0.00  0.00    +0.106 C 
ATOM     20  C   UNL     1      -0.042  -0.124   2.497  0.00  0.00    +0.032 C 
BRANCH  19  22
ATOM     21  C   UNL     1      -0.019   1.526   0.010  0.00  0.00    +0.006 C 
ATOM     22  C   UNL     1       0.002  -0.004   0.002  0.00  0.00    +0.023 C 
ENDBRANCH  19  22
ENDBRANCH   1  19
BRANCH   4  23
ATOM     23  O   UNL     1      -0.422  -5.233   0.982  0.00  0.00    -0.491 OA
ATOM     24  H   UNL     1      -0.649  -5.610   1.843  0.00  0.00    +0.294 HD
ENDBRANCH   4  23
BRANCH   9  25
ATOM     25  O   UNL     1       5.324  -1.391   1.398  0.00  0.00    -0.495 OA
ATOM     26  H   UNL     1       4.912  -0.520   1.476  0.00  0.00    +0.293 HD
ENDBRANCH   9  25
TORSDOF 6
