REMARK  Name = ZINC01833070
REMARK  9 active torsions:
REMARK  status: ('A' for Active; 'I' for Inactive)
REMARK    1  A    between atoms: C_1  and  C_2
REMARK    2  A    between atoms: C_13  and  N_15
REMARK    3  A    between atoms: N_15  and  C_16
REMARK    4  A    between atoms: C_16  and  C_18
REMARK    5  A    between atoms: C_16  and  C_19
REMARK    6  A    between atoms: C_19  and  C_20
REMARK    7  A    between atoms: C_20  and  C_21
REMARK    8  A    between atoms: C_28  and  C_31
REMARK    9  A    between atoms: C_28  and  C_32
REMARK                            x       y       z     vdW  Elec       q    Type
REMARK                         _______ _______ _______ _____ _____    ______ ____
ROOT
ATOM      1  C   UNL     1       9.949  -3.096   0.227  0.00  0.00    +0.088 C 
ATOM      2  C   UNL     1       8.600  -3.769   0.215  0.00  0.00    +0.129 A 
ATOM      3  N   UNL     1       8.495  -4.962   0.744  0.00  0.00    -0.231 NA
ATOM      4  C   UNL     1       7.316  -5.621   0.767  0.00  0.00    +0.093 A 
ATOM      5  C   UNL     1       7.032  -6.958   1.321  0.00  0.00    +0.034 A 
ATOM      6  C   UNL     1       7.935  -7.844   1.948  0.00  0.00    +0.020 A 
ATOM      7  C   UNL     1       7.478  -9.064   2.408  0.00  0.00    +0.000 A 
ATOM      8  C   UNL     1       6.147  -9.407   2.254  0.00  0.00    +0.051 A 
ATOM      9  N   UNL     1       5.309  -8.571   1.662  0.00  0.00    -0.244 NA
ATOM     10  C   UNL     1       5.702  -7.402   1.209  0.00  0.00    +0.111 A 
ATOM     11  S   UNL     1       4.864  -6.069   0.385  0.00  0.00    -0.064 S 
ATOM     12  C   UNL     1       6.227  -4.953   0.193  0.00  0.00    +0.080 A 
ATOM     13  C   UNL     1       6.377  -3.689  -0.359  0.00  0.00    +0.137 A 
ATOM     14  N   UNL     1       7.585  -3.128  -0.335  0.00  0.00    -0.217 NA
ATOM     15  C   UNL     1       5.616 -10.727   2.753  0.00  0.00    +0.090 C 
ATOM     16  C   UNL     1       6.777 -11.689   3.009  0.00  0.00    +0.070 C 
ATOM     17  O   UNL     1       7.764 -11.011   3.795  0.00  0.00    -0.369 OA
ATOM     18  C   UNL     1       8.459  -9.998   3.070  0.00  0.00    +0.197 C 
ATOM     19  C   UNL     1       6.270 -12.917   3.768  0.00  0.00    +0.041 C 
ATOM     20  C   UNL     1       7.387 -12.125   1.675  0.00  0.00    +0.041 C 
ENDROOT
BRANCH  13  21
ATOM     21  N   UNL     1       5.298  -3.029  -0.927  0.00  0.00    -0.325 N 
ATOM     22  H   UNL     1       4.424  -3.451  -0.942  0.00  0.00    +0.148 HD
BRANCH  21  23
ATOM     23  C   UNL     1       5.477  -1.695  -1.505  0.00  0.00    +0.069 C 
ATOM     24  C   UNL     1       5.969  -1.826  -2.948  0.00  0.00    +0.028 C 
BRANCH  23  25
ATOM     25  C   UNL     1       4.142  -0.948  -1.488  0.00  0.00    +0.026 C 
BRANCH  25  26
ATOM     26  C   UNL     1       3.711  -0.707  -0.039  0.00  0.00    +0.037 C 
BRANCH  26  27
ATOM     27  C   UNL     1       2.396   0.029  -0.022  0.00  0.00    -0.047 A 
ATOM     28  C   UNL     1       1.208  -0.679  -0.014  0.00  0.00    +0.003 A 
ATOM     29  C   UNL     1       0.002  -0.004   0.002  0.00  0.00    +0.000 A 
ATOM     30  C   UNL     1      -0.017   1.378   0.010  0.00  0.00    +0.000 A 
ATOM     31  C   UNL     1       1.171   2.086   0.002  0.00  0.00    +0.000 A 
ATOM     32  C   UNL     1       2.377   1.411  -0.014  0.00  0.00    +0.003 A 
ENDBRANCH  26  27
ENDBRANCH  25  26
ENDBRANCH  23  25
ENDBRANCH  21  23
ENDBRANCH  13  21
TORSDOF 5
