REMARK  Name = ZINC66127830
REMARK  10 active torsions:
REMARK  status: ('A' for Active; 'I' for Inactive)
REMARK    1  A    between atoms: C_1  and  C_2
REMARK    2  A    between atoms: C_2  and  C_3
REMARK    3  A    between atoms: C_3  and  N_4
REMARK    4  A    between atoms: C_5  and  C_16
REMARK    5  A    between atoms: C_25  and  O_26
REMARK    6  A    between atoms: O_26  and  C_27
REMARK    7  A    between atoms: C_27  and  C_28
REMARK    8  A    between atoms: C_28  and  C_29
REMARK    9  A    between atoms: C_29  and  C_30
REMARK   10  A    between atoms: C_29  and  C_31
REMARK                            x       y       z     vdW  Elec       q    Type
REMARK                         _______ _______ _______ _____ _____    ______ ____
ROOT
ATOM      1  C   UNL     1      -1.102  -2.794   0.469  0.00  0.00    +0.040 A 
ATOM      2  C   UNL     1      -1.881  -3.962   0.518  0.00  0.00    -0.008 A 
ATOM      3  C   UNL     1      -1.493  -5.064   1.298  0.00  0.00    +0.009 A 
ATOM      4  C   UNL     1      -2.272  -6.180   1.323  0.00  0.00    +0.001 A 
ATOM      5  C   UNL     1      -3.451  -6.247   0.583  0.00  0.00    +0.001 A 
ATOM      6  C   UNL     1      -3.859  -5.199  -0.184  0.00  0.00    +0.008 A 
ATOM      7  C   UNL     1      -3.081  -4.030  -0.234  0.00  0.00    -0.017 A 
ATOM      8  C   UNL     1      -3.471  -2.928  -1.015  0.00  0.00    +0.012 A 
ATOM      9  C   UNL     1      -2.695  -1.811  -1.041  0.00  0.00    +0.046 A 
ATOM     10  C   UNL     1      -1.513  -1.740  -0.296  0.00  0.00    +0.128 A 
ENDROOT
BRANCH   1  12
ATOM     11  N   UNL     1       0.572  -1.299   1.382  0.00  0.00    -0.275 N 
ATOM     12  C   UNL     1       0.177  -2.702   1.261  0.00  0.00    +0.197 C 
ATOM     13  N   UNL     1       1.224  -3.469   0.577  0.00  0.00    -0.321 N 
ATOM     14  C   UNL     1       1.813  -2.924  -0.558  0.00  0.00    +0.041 A 
ATOM     15  C   UNL     1       2.313  -3.716  -1.577  0.00  0.00    +0.024 A 
ATOM     16  C   UNL     1       2.886  -3.122  -2.686  0.00  0.00    +0.002 A 
ATOM     17  C   UNL     1       2.963  -1.742  -2.785  0.00  0.00    +0.001 A 
ATOM     18  C   UNL     1       2.470  -0.938  -1.778  0.00  0.00    +0.015 A 
ATOM     19  C   UNL     1       1.892  -1.523  -0.654  0.00  0.00    +0.058 A 
ATOM     20  C   UNL     1       1.353  -0.711   0.452  0.00  0.00    +0.250 C 
ATOM     21  O   UNL     1       1.614   0.475   0.529  0.00  0.00    -0.270 OA
ATOM     22  H   UNL     1       1.500  -4.338   0.910  0.00  0.00    +0.148 HD
BRANCH  11  23
ATOM     23  C   UNL     1       0.106  -0.516   2.529  0.00  0.00    +0.110 C 
BRANCH  23  25
ATOM     24  C   UNL     1      -1.793   0.822   3.448  0.00  0.00    +0.005 C 
ATOM     25  C   UNL     1      -1.276   0.064   2.224  0.00  0.00    +0.016 C 
ENDBRANCH  23  25
ENDBRANCH  11  23
ENDBRANCH   1  12
BRANCH  10  26
ATOM     26  O   UNL     1      -0.762  -0.608  -0.338  0.00  0.00    -0.492 OA
BRANCH  26  27
ATOM     27  C   UNL     1      -1.256   0.470  -1.135  0.00  0.00    +0.229 C 
BRANCH  27  28
ATOM     28  C   UNL     1      -0.313   1.668  -1.013  0.00  0.00    +0.044 C 
BRANCH  28  29
ATOM     29  C   UNL     1      -0.827   2.813  -1.889  0.00  0.00    -0.014 C 
ATOM     30  C   UNL     1      -2.174   3.301  -1.351  0.00  0.00    +0.007 C 
ATOM     31  C   UNL     1       0.179   3.965  -1.865  0.00  0.00    +0.007 C 
ENDBRANCH  28  29
ENDBRANCH  27  28
ENDBRANCH  26  27
ENDBRANCH  10  26
TORSDOF 7
