REMARK  Name = ZINC08791028
REMARK  7 active torsions:
REMARK  status: ('A' for Active; 'I' for Inactive)
REMARK    1  A    between atoms: C_1  and  C_2
REMARK    2  A    between atoms: C_4  and  C_37
REMARK    3  A    between atoms: C_13  and  C_15
REMARK    4  A    between atoms: C_15  and  C_17
REMARK    5  A    between atoms: C_15  and  O_18
REMARK    6  A    between atoms: N_21  and  C_24
REMARK    7  A    between atoms: C_24  and  C_25
REMARK                            x       y       z     vdW  Elec       q    Type
REMARK                         _______ _______ _______ _____ _____    ______ ____
ROOT
ATOM      1  C   UNL     1      -2.020  -2.688   3.667  0.00  0.00    +0.044 C 
ATOM      2  C   UNL     1      -1.443  -1.299   3.578  0.00  0.00    -0.050 A 
ATOM      3  C   UNL     1      -0.881  -0.709   4.696  0.00  0.00    +0.008 A 
ATOM      4  C   UNL     1      -0.351   0.562   4.620  0.00  0.00    -0.029 A 
ATOM      5  C   UNL     1      -0.377   1.262   3.416  0.00  0.00    +0.039 A 
ATOM      6  C   UNL     1      -0.945   0.658   2.298  0.00  0.00    -0.027 A 
ATOM      7  C   UNL     1      -1.473  -0.612   2.378  0.00  0.00    +0.008 A 
ATOM      8  C   UNL     1      -0.817   1.656   1.182  0.00  0.00    +0.050 C 
ATOM      9  C   UNL     1      -0.013   1.086   0.008  0.00  0.00    +0.088 C 
ATOM     10  C   UNL     1      -0.671   1.685  -1.266  0.00  0.00    +0.075 C 
ATOM     11  C   UNL     1      -1.803   2.591  -0.736  0.00  0.00    -0.028 C 
ATOM     12  C   UNL     1       0.424   2.548  -1.850  0.00  0.00    +0.224 C 
ATOM     13  O   UNL     1       0.332   3.205  -2.865  0.00  0.00    -0.275 OA
ATOM     14  N   UNL     1       1.510   2.475  -1.073  0.00  0.00    -0.237 N 
ATOM     15  C   UNL     1       1.375   1.685  -0.002  0.00  0.00    +0.225 C 
ATOM     16  O   UNL     1       2.232   1.481   0.831  0.00  0.00    -0.275 OA
ATOM     17  C   UNL     1      -0.128   2.844   1.797  0.00  0.00    +0.211 C 
ATOM     18  O   UNL     1       0.173   3.877   1.237  0.00  0.00    -0.277 OA
ATOM     19  N   UNL     1       0.090   2.537   3.090  0.00  0.00    -0.286 N 
ATOM     20  C   UNL     1       0.257   1.197   5.844  0.00  0.00    +0.045 C 
ATOM     21  H   UNL     1       0.522   3.133   3.723  0.00  0.00    +0.155 HD
ATOM     22  N   UNL     1      -2.100   2.048   0.593  0.00  0.00    +0.396 N 
ATOM     23  H   UNL     1      -2.553   2.763   1.175  0.00  0.00    -0.083 HD
ATOM     24  H   UNL     1      -2.717   1.232   0.512  0.00  0.00    -0.083 HD
ENDROOT
BRANCH  11  25
ATOM     25  C   UNL     1      -3.024   2.512  -1.655  0.00  0.00    +0.098 C 
ATOM     26  C   UNL     1      -4.131   3.417  -1.112  0.00  0.00    +0.036 C 
BRANCH  25  27
ATOM     27  O   UNL     1      -2.659   2.941  -2.969  0.00  0.00    -0.394 OA
ATOM     28  H   UNL     1      -2.331   3.850  -3.009  0.00  0.00    +0.210 HD
ENDBRANCH  25  27
ENDBRANCH  11  25
BRANCH  14  29
ATOM     29  C   UNL     1       2.748   3.201  -1.371  0.00  0.00    +0.151 C 
BRANCH  29  30
ATOM     30  C   UNL     1       3.639   2.343  -2.231  0.00  0.00    -0.026 A 
ATOM     31  C   UNL     1       4.557   1.494  -1.642  0.00  0.00    +0.009 A 
ATOM     32  C   UNL     1       5.374   0.702  -2.426  0.00  0.00    +0.050 A 
ATOM     33  C   UNL     1       5.280   0.763  -3.807  0.00  0.00    +0.166 A 
ATOM     34  C   UNL     1       4.359   1.622  -4.402  0.00  0.00    +0.167 A 
ATOM     35  C   UNL     1       3.540   2.410  -3.608  0.00  0.00    +0.054 A 
ATOM     36  O   UNL     1       4.461   1.501  -5.757  0.00  0.00    -0.453 OA
ATOM     37  C   UNL     1       5.165   0.265  -5.981  0.00  0.00    +0.466 C 
ATOM     38  O   UNL     1       5.960   0.104  -4.791  0.00  0.00    -0.453 OA
ENDBRANCH  29  30
ENDBRANCH  14  29
TORSDOF 4
