REMARK  Name = ZINC06042343
REMARK  11 active torsions:
REMARK  status: ('A' for Active; 'I' for Inactive)
REMARK    1  A    between atoms: C_1  and  C_2
REMARK    2  A    between atoms: C_2  and  C_3
REMARK    3  A    between atoms: C_3  and  C_4
REMARK    4  A    between atoms: C_4  and  C_5
REMARK    5  A    between atoms: C_5  and  N_6
REMARK    6  A    between atoms: N_6  and  C_7
REMARK    7  A    between atoms: C_7  and  N_9
REMARK    8  A    between atoms: N_9  and  C_10
REMARK    9  A    between atoms: N_9  and  C_17
REMARK   10  A    between atoms: C_10  and  C_11
REMARK   11  A    between atoms: C_17  and  C_18
REMARK                            x       y       z     vdW  Elec       q    Type
REMARK                         _______ _______ _______ _____ _____    ______ ____
ROOT
ATOM      1  N   UNL     1      -3.968  -6.095   0.007  0.00  0.00    -0.304 N 
ENDROOT
BRANCH   1   2
ATOM      2  C   UNL     1      -3.986  -4.748   0.015  0.00  0.00    +0.133 C 
ATOM      3  S   UNL     1      -5.480  -3.912   0.033  0.00  0.00    -0.019 S 
BRANCH   2   4
ATOM      4  N   UNL     1      -2.828  -4.058   0.007  0.00  0.00    -0.326 N 
ATOM      5  H   UNL     1      -1.982  -4.531  -0.003  0.00  0.00    +0.148 HD
BRANCH   4   6
ATOM      6  C   UNL     1      -2.848  -2.593   0.015  0.00  0.00    +0.103 C 
BRANCH   6   7
ATOM      7  C   UNL     1      -1.413  -2.063   0.004  0.00  0.00    +0.019 C 
BRANCH   7   8
ATOM      8  C   UNL     1      -1.433  -0.534   0.013  0.00  0.00    +0.001 C 
BRANCH   8  10
ATOM      9  C   UNL     1      -0.019   1.526   0.010  0.00  0.00    +0.004 C 
ATOM     10  C   UNL     1       0.002  -0.004   0.002  0.00  0.00    -0.003 C 
ENDBRANCH   8  10
ENDBRANCH   7   8
ENDBRANCH   6   7
ENDBRANCH   4   6
ENDBRANCH   2   4
ENDBRANCH   1   2
BRANCH   1  11
ATOM     11  C   UNL     1      -2.689  -6.810  -0.009  0.00  0.00    +0.142 C 
BRANCH  11  12
ATOM     12  C   UNL     1      -2.237  -7.063   1.406  0.00  0.00    -0.030 A 
ATOM     13  C   UNL     1      -1.450  -6.132   2.058  0.00  0.00    +0.005 A 
ATOM     14  C   UNL     1      -1.036  -6.364   3.356  0.00  0.00    +0.000 A 
ATOM     15  C   UNL     1      -1.409  -7.527   4.003  0.00  0.00    +0.000 A 
ATOM     16  C   UNL     1      -2.196  -8.458   3.352  0.00  0.00    +0.000 A 
ATOM     17  C   UNL     1      -2.614  -8.224   2.055  0.00  0.00    +0.005 A 
ENDBRANCH  11  12
ENDBRANCH   1  11
BRANCH   1  18
ATOM     18  C   UNL     1      -5.226  -6.845   0.015  0.00  0.00    +0.142 C 
BRANCH  18  19
ATOM     19  C   UNL     1      -5.671  -7.094  -1.403  0.00  0.00    -0.030 A 
ATOM     20  C   UNL     1      -6.484  -6.177  -2.043  0.00  0.00    +0.006 A 
ATOM     21  C   UNL     1      -6.892  -6.405  -3.344  0.00  0.00    +0.015 A 
ATOM     22  C   UNL     1      -6.487  -7.552  -4.005  0.00  0.00    +0.018 A 
ATOM     23  C   UNL     1      -5.675  -8.469  -3.363  0.00  0.00    +0.015 A 
ATOM     24  C   UNL     1      -5.263  -8.237  -2.064  0.00  0.00    +0.006 A 
ATOM     25 BR   UNL     1      -7.046  -7.864  -5.784  0.00  0.00    -0.050 Br
ENDBRANCH  18  19
ENDBRANCH   1  18
TORSDOF 10
