REMARK  Name = ZINC13502383
REMARK  10 active torsions:
REMARK  status: ('A' for Active; 'I' for Inactive)
REMARK    1  A    between atoms: C_1  and  C_2
REMARK    2  A    between atoms: C_2  and  C_3
REMARK    3  A    between atoms: C_6  and  C_9
REMARK    4  A    between atoms: C_9  and  C_11
REMARK    5  A    between atoms: C_9  and  N_20
REMARK    6  A    between atoms: N_13  and  C_14
REMARK    7  A    between atoms: N_20  and  C_21
REMARK    8  A    between atoms: C_24  and  N_27
REMARK    9  A    between atoms: C_28  and  C_30
REMARK   10  A    between atoms: C_31  and  C_33
REMARK                            x       y       z     vdW  Elec       q    Type
REMARK                         _______ _______ _______ _____ _____    ______ ____
ROOT
ATOM      1  N   UNL     1       0.743   5.157  -0.786  0.00  0.00    -0.250 N 
ATOM      2  C   UNL     1       0.238   6.272  -0.222  0.00  0.00    +0.270 C 
ATOM      3  O   UNL     1      -0.942   6.535  -0.348  0.00  0.00    -0.268 OA
ENDROOT
BRANCH   1   4
ATOM      4  C   UNL     1      -0.076   4.337  -1.571  0.00  0.00    +0.038 A 
ATOM      5  C   UNL     1       0.350   3.062  -1.921  0.00  0.00    +0.025 A 
ATOM      6  C   UNL     1      -0.460   2.251  -2.689  0.00  0.00    +0.025 A 
ATOM      7  C   UNL     1      -1.696   2.713  -3.122  0.00  0.00    +0.033 A 
ATOM      8  C   UNL     1      -2.119   3.990  -2.777  0.00  0.00    +0.025 A 
ATOM      9  C   UNL     1      -1.312   4.799  -2.003  0.00  0.00    +0.025 A 
BRANCH   7  10
ATOM     10  N   UNL     1      -2.516   1.892  -3.907  0.00  0.00    -0.286 N 
ATOM     11  C   UNL     1      -2.518   0.559  -3.712  0.00  0.00    +0.214 C 
ATOM     12  O   UNL     1      -1.882   0.078  -2.798  0.00  0.00    -0.276 OA
ATOM     13  C   UNL     1      -3.311  -0.336  -4.630  0.00  0.00    +0.109 C 
ATOM     14  H   UNL     1      -3.082   2.283  -4.591  0.00  0.00    +0.155 HD
ENDBRANCH   7  10
ENDBRANCH   1   4
BRANCH   2  15
ATOM     15  C   UNL     1       1.120   7.175   0.553  0.00  0.00    +0.126 A 
ATOM     16  C   UNL     1       0.682   8.458   0.876  0.00  0.00    +0.033 A 
ATOM     17  C   UNL     1       1.517   9.290   1.606  0.00  0.00    +0.004 A 
ATOM     18  C   UNL     1       2.765   8.814   1.977  0.00  0.00    +0.020 A 
ATOM     19  C   UNL     1       3.135   7.527   1.621  0.00  0.00    +0.111 A 
ATOM     20  N   UNL     1       2.321   6.756   0.932  0.00  0.00    -0.250 NA
ENDBRANCH   2  15
BRANCH   1  21
ATOM     21  C   UNL     1       2.150   4.805  -0.580  0.00  0.00    +0.197 C 
BRANCH  21  25
ATOM     22  C   UNL     1       2.417   1.607   2.240  0.00  0.00    -0.048 A 
ATOM     23  C   UNL     1       3.522   2.398   1.985  0.00  0.00    +0.004 A 
ATOM     24  C   UNL     1       3.436   3.432   1.072  0.00  0.00    +0.006 A 
ATOM     25  C   UNL     1       2.244   3.677   0.415  0.00  0.00    -0.018 A 
ATOM     26  C   UNL     1       1.138   2.890   0.674  0.00  0.00    +0.006 A 
ATOM     27  C   UNL     1       1.226   1.852   1.583  0.00  0.00    +0.004 A 
BRANCH  22  29
ATOM     28  C   UNL     1       2.144   0.997   4.628  0.00  0.00    +0.009 C 
ATOM     29  C   UNL     1       2.511   0.480   3.236  0.00  0.00    +0.032 C 
ENDBRANCH  22  29
ENDBRANCH  21  25
BRANCH  21  30
ATOM     30  C   UNL     1       2.757   4.372  -1.889  0.00  0.00    +0.239 C 
ATOM     31  O   UNL     1       2.082   4.359  -2.896  0.00  0.00    -0.273 OA
ATOM     32  N   UNL     1       4.052   3.999  -1.941  0.00  0.00    -0.311 N 
ATOM     33  H   UNL     1       4.592   4.010  -1.136  0.00  0.00    +0.149 HD
BRANCH  32  34
ATOM     34  C   UNL     1       4.642   3.578  -3.214  0.00  0.00    +0.073 C 
ATOM     35  C   UNL     1       4.357   2.093  -3.442  0.00  0.00    +0.022 C 
ATOM     36  C   UNL     1       4.973   1.653  -4.772  0.00  0.00    +0.002 C 
ATOM     37  C   UNL     1       6.486   1.882  -4.733  0.00  0.00    +0.000 C 
ATOM     38  C   UNL     1       6.771   3.368  -4.505  0.00  0.00    +0.002 C 
ATOM     39  C   UNL     1       6.154   3.808  -3.176  0.00  0.00    +0.022 C 
ENDBRANCH  32  34
ENDBRANCH  21  30
ENDBRANCH   1  21
TORSDOF 8
