REMARK  Name = ZINC19364447
REMARK  4 active torsions:
REMARK  status: ('A' for Active; 'I' for Inactive)
REMARK    1  A    between atoms: C_6  and  S_7
REMARK    2  A    between atoms: S_7  and  N_10
REMARK    3  A    between atoms: N_10  and  C_11
REMARK    4  A    between atoms: C_17  and  N_19
REMARK                            x       y       z     vdW  Elec       q    Type
REMARK                         _______ _______ _______ _____ _____    ______ ____
ROOT
ATOM      1  C   UNL     1      -2.226   1.184  -1.289  0.00  0.00    +0.094 C 
ATOM      2  C   UNL     1      -2.942   1.677  -0.031  0.00  0.00    +0.022 C 
ATOM      3  C   UNL     1      -2.288   1.055   1.205  0.00  0.00    +0.002 C 
ATOM      4  C   UNL     1      -0.815   1.464   1.263  0.00  0.00    +0.002 C 
ATOM      5  C   UNL     1      -0.099   0.971   0.004  0.00  0.00    +0.020 C 
ATOM      6  C   UNL     1      -0.753   1.593  -1.232  0.00  0.00    +0.075 C 
ENDROOT
BRANCH   6   7
ATOM      7  N   UNL     1      -0.065   1.119  -2.440  0.00  0.00    -0.301 NA
ATOM      8  C   UNL     1       1.328   1.586  -2.471  0.00  0.00    +0.065 C 
ATOM      9  C   UNL     1       1.984   1.139  -3.779  0.00  0.00    -0.067 C 
ATOM     10  N   UNL     1       1.920  -0.325  -3.882  0.00  0.00    +0.381 N 
ATOM     11  C   UNL     1       0.527  -0.792  -3.851  0.00  0.00    -0.067 C 
ATOM     12  C   UNL     1      -0.129  -0.346  -2.543  0.00  0.00    +0.065 C 
ATOM     13  H   UNL     1       2.380  -0.647  -4.828  0.00  0.00    -0.086 HD
ATOM     14  H   UNL     1       2.463  -0.776  -3.038  0.00  0.00    -0.086 HD
ENDBRANCH   6   7
BRANCH   1  15
ATOM     15  N   UNL     1      -2.852   1.779  -2.473  0.00  0.00    -0.185 NA
ATOM     16  H   UNL     1      -2.666   2.835  -2.721  0.00  0.00    +0.148 HD
BRANCH  15  17
ATOM     17  S   UNL     1      -4.026   0.950  -3.294  0.00  0.00    +0.059 S 
ATOM     18  O   UNL     1      -4.447   1.790  -4.359  0.00  0.00    -0.153 OA
ATOM     19  O   UNL     1      -3.521  -0.361  -3.512  0.00  0.00    -0.153 OA
BRANCH  17  25
ATOM     20  C   UNL     1      -5.502  -0.317  -1.379  0.00  0.00    +0.030 A 
ATOM     21  C   UNL     1      -6.579  -0.445  -0.523  0.00  0.00    +0.022 A 
ATOM     22  C   UNL     1      -7.566   0.525  -0.504  0.00  0.00    +0.041 A 
ATOM     23  C   UNL     1      -7.470   1.624  -1.338  0.00  0.00    +0.022 A 
ATOM     24  C   UNL     1      -6.389   1.754  -2.190  0.00  0.00    +0.030 A 
ATOM     25  C   UNL     1      -5.404   0.784  -2.208  0.00  0.00    +0.105 A 
ATOM     26 CL   UNL     1      -8.923   0.362   0.567  0.00  0.00    -0.084 Cl
ENDBRANCH  17  25
ENDBRANCH  15  17
ENDBRANCH   1  15
TORSDOF 4
