REMARK  Name = ZINC12590283
REMARK  7 active torsions:
REMARK  status: ('A' for Active; 'I' for Inactive)
REMARK    1  A    between atoms: C_1  and  C_2
REMARK    2  A    between atoms: C_3  and  C_12
REMARK    3  A    between atoms: C_5  and  C_7
REMARK    4  A    between atoms: C_12  and  N_51
REMARK    5  A    between atoms: C_13  and  C_26
REMARK    6  A    between atoms: C_18  and  C_20
REMARK    7  A    between atoms: C_26  and  C_27
REMARK                            x       y       z     vdW  Elec       q    Type
REMARK                         _______ _______ _______ _____ _____    ______ ____
ROOT
ATOM      1  C   UNL     1      -1.674   3.288   0.564  0.00  0.00    -0.059 C 
ATOM      2  C   UNL     1      -2.350   1.986   0.120  0.00  0.00    +0.012 C 
ATOM      3  C   UNL     1      -1.307   0.928  -0.107  0.00  0.00    -0.034 C 
ATOM      4  C   UNL     1      -0.046   1.200  -0.254  0.00  0.00    -0.042 C 
ATOM      5  C   UNL     1       0.507   2.595  -0.198  0.00  0.00    -0.014 C 
ATOM      6  N   UNL     1      -0.582   3.571  -0.388  0.00  0.00    +0.393 N 
ATOM      7  H   UNL     1      -0.942   3.490  -1.346  0.00  0.00    -0.080 HD
ENDROOT
BRANCH   5   8
ATOM      8  C   UNL     1       1.519   2.775  -1.300  0.00  0.00    -0.057 A 
ATOM      9  C   UNL     1       1.097   3.024  -2.592  0.00  0.00    +0.002 A 
ATOM     10  C   UNL     1       2.026   3.193  -3.602  0.00  0.00    +0.000 A 
ATOM     11  C   UNL     1       3.376   3.105  -3.321  0.00  0.00    +0.000 A 
ATOM     12  C   UNL     1       3.798   2.851  -2.029  0.00  0.00    +0.000 A 
ATOM     13  C   UNL     1       2.870   2.686  -1.019  0.00  0.00    +0.002 A 
ENDBRANCH   5   8
BRANCH   6  14
ATOM     14  C   UNL     1      -0.071   4.946  -0.181  0.00  0.00    -0.017 C 
BRANCH  14  17
ATOM     15  C   UNL     1      -1.575   6.224  -2.603  0.00  0.00    +0.088 C 
ATOM     16  C   UNL     1      -1.881   6.449  -1.145  0.00  0.00    +0.124 A 
ATOM     17  C   UNL     1      -1.235   5.900  -0.102  0.00  0.00    +0.066 A 
ATOM     18  N   UNL     1      -1.807   6.357   1.024  0.00  0.00    -0.216 NA
ATOM     19  C   UNL     1      -2.788   7.166   0.696  0.00  0.00    +0.231 A 
ATOM     20  O   UNL     1      -2.855   7.236  -0.644  0.00  0.00    -0.440 OA
BRANCH  19  21
ATOM     21  C   UNL     1      -3.670   7.880   1.643  0.00  0.00    +0.074 A 
ATOM     22  C   UNL     1      -4.775   8.790   1.311  0.00  0.00    +0.054 A 
ATOM     23  C   UNL     1      -5.285   9.196   2.486  0.00  0.00    +0.195 A 
ATOM     24  O   UNL     1      -4.598   8.621   3.484  0.00  0.00    -0.470 OA
ATOM     25  C   UNL     1      -3.633   7.826   3.002  0.00  0.00    +0.208 A 
ENDBRANCH  19  21
ENDBRANCH  14  17
ENDBRANCH   6  14
BRANCH   1  26
ATOM     26  C   UNL     1      -1.122   3.129   1.982  0.00  0.00    +0.012 C 
BRANCH  26  27
ATOM     27  C   UNL     1      -0.801   4.487   2.551  0.00  0.00    -0.036 C 
ATOM     28  C   UNL     1      -1.392   4.895   3.647  0.00  0.00    +0.004 C 
ENDBRANCH  26  27
ENDBRANCH   1  26
TORSDOF 6
