REMARK  Name = ZINC34749338
REMARK  8 active torsions:
REMARK  status: ('A' for Active; 'I' for Inactive)
REMARK    1  A    between atoms: C_1  and  C_2
REMARK    2  A    between atoms: C_2  and  C_3
REMARK    3  A    between atoms: C_4  and  C_33
REMARK    4  A    between atoms: N_10  and  C_25
REMARK    5  A    between atoms: N_16  and  C_19
REMARK    6  A    between atoms: C_19  and  C_20
REMARK    7  A    between atoms: C_25  and  C_26
REMARK    8  A    between atoms: C_26  and  C_27
REMARK                            x       y       z     vdW  Elec       q    Type
REMARK                         _______ _______ _______ _____ _____    ______ ____
ROOT
ATOM      1  C   UNL     1       0.673  -0.456   1.220  0.00  0.00    -0.023 A 
ATOM      2  C   UNL     1       2.002  -0.621   1.158  0.00  0.00    -0.007 A 
ATOM      3  S   UNL     1       2.426  -1.184   2.796  0.00  0.00    -0.073 S 
ATOM      4  C   UNL     1       0.804  -1.182   3.516  0.00  0.00    +0.117 A 
ATOM      5  C   UNL     1      -0.020  -0.738   2.465  0.00  0.00    +0.076 A 
ATOM      6  C   UNL     1      -1.414  -0.634   2.770  0.00  0.00    +0.264 A 
ATOM      7  O   UNL     1      -2.206  -0.262   1.920  0.00  0.00    -0.267 OA
ATOM      8  N   UNL     1      -1.840  -0.951   4.006  0.00  0.00    -0.280 N 
ATOM      9  C   UNL     1      -0.969  -1.369   4.969  0.00  0.00    +0.202 A 
ATOM     10  N   UNL     1       0.317  -1.484   4.713  0.00  0.00    -0.208 NA
ATOM     11  N   UNL     1      -1.442  -1.683   6.219  0.00  0.00    -0.304 N 
ATOM     12  C   UNL     1      -1.797  -3.068   6.567  0.00  0.00    +0.089 C 
ATOM     13  C   UNL     1      -1.104  -3.430   7.884  0.00  0.00    -0.059 C 
ATOM     14  N   UNL     1      -1.454  -2.439   8.909  0.00  0.00    +0.387 N 
ATOM     15  C   UNL     1      -0.923  -1.123   8.533  0.00  0.00    -0.059 C 
ATOM     16  C   UNL     1      -1.602  -0.646   7.250  0.00  0.00    +0.089 C 
ATOM     17  C   UNL     1       2.919  -0.386  -0.015  0.00  0.00    +0.052 C 
ATOM     18  H   UNL     1      -2.458  -2.384   8.994  0.00  0.00    -0.081 HD
ENDROOT
BRANCH   1  20
ATOM     19  C   UNL     1      -0.158   1.550   0.022  0.00  0.00    +0.009 C 
ATOM     20  C   UNL     1      -0.093   0.021   0.013  0.00  0.00    +0.033 C 
ENDBRANCH   1  20
BRANCH  14  21
ATOM     21  C   UNL     1      -0.879  -2.847  10.198  0.00  0.00    +0.019 C 
BRANCH  21  22
ATOM     22  C   UNL     1      -1.338  -1.898  11.275  0.00  0.00    +0.199 C 
ATOM     23  O   UNL     1      -2.071  -0.973  10.997  0.00  0.00    -0.278 OA
ATOM     24  N   UNL     1      -0.933  -2.077  12.548  0.00  0.00    -0.300 N 
ATOM     25  C   UNL     1      -0.150  -2.854  13.513  0.00  0.00    +0.126 C 
ATOM     26  C   UNL     1      -0.959  -1.628  13.943  0.00  0.00    +0.126 C 
ENDBRANCH  21  22
ENDBRANCH  14  21
BRANCH   8  27
ATOM     27  C   UNL     1      -3.266  -0.846   4.324  0.00  0.00    +0.133 C 
BRANCH  27  28
ATOM     28  C   UNL     1      -3.981  -2.127   3.890  0.00  0.00    +0.057 C 
BRANCH  28  29
ATOM     29  C   UNL     1      -5.465  -1.973   4.107  0.00  0.00    -0.046 A 
ATOM     30  C   UNL     1      -6.043  -2.426   5.278  0.00  0.00    +0.004 A 
ATOM     31  C   UNL     1      -7.403  -2.284   5.477  0.00  0.00    +0.000 A 
ATOM     32  C   UNL     1      -8.186  -1.689   4.505  0.00  0.00    +0.000 A 
ATOM     33  C   UNL     1      -7.607  -1.235   3.334  0.00  0.00    +0.000 A 
ATOM     34  C   UNL     1      -6.246  -1.373   3.137  0.00  0.00    +0.004 A 
ENDBRANCH  28  29
ENDBRANCH  27  28
ENDBRANCH   8  27
TORSDOF 6
