REMARK  Name = ZINC09292779
REMARK  13 active torsions:
REMARK  status: ('A' for Active; 'I' for Inactive)
REMARK    1  A    between atoms: C_1  and  C_2
REMARK    2  A    between atoms: C_2  and  C_3
REMARK    3  A    between atoms: C_3  and  O_4
REMARK    4  A    between atoms: O_4  and  C_5
REMARK    5  A    between atoms: C_8  and  C_14
REMARK    6  A    between atoms: C_10  and  O_11
REMARK    7  A    between atoms: O_11  and  C_12
REMARK    8  A    between atoms: C_12  and  C_13
REMARK    9  A    between atoms: C_16  and  C_17
REMARK   10  A    between atoms: C_17  and  C_18
REMARK   11  A    between atoms: C_25  and  C_28
REMARK   12  A    between atoms: N_34  and  C_35
REMARK   13  A    between atoms: C_35  and  C_36
REMARK                            x       y       z     vdW  Elec       q    Type
REMARK                         _______ _______ _______ _____ _____    ______ ____
ROOT
ATOM      1  C   UNL     1       0.065   4.698   2.116  0.00  0.00    +0.145 C 
ATOM      2  C   UNL     1       0.541   5.145   3.479  0.00  0.00    +0.076 C 
ATOM      3  C   UNL     1       1.892   5.488   3.328  0.00  0.00    +0.249 C 
ATOM      4  O   UNL     1       2.628   5.897   4.208  0.00  0.00    -0.282 OA
ATOM      5  C   UNL     1       2.271   5.266   1.906  0.00  0.00    +0.288 C 
ATOM      6  O   UNL     1       3.374   5.467   1.441  0.00  0.00    -0.266 OA
ATOM      7  N   UNL     1       1.216   4.801   1.216  0.00  0.00    -0.279 N 
ENDROOT
BRANCH   1  11
ATOM      8  C   UNL     1      -3.090   7.240   0.749  0.00  0.00    +0.162 A 
ATOM      9  C   UNL     1      -1.775   7.671   0.690  0.00  0.00    +0.050 A 
ATOM     10  C   UNL     1      -0.757   6.847   1.133  0.00  0.00    +0.009 A 
ATOM     11  C   UNL     1      -1.048   5.592   1.636  0.00  0.00    -0.019 A 
ATOM     12  C   UNL     1      -2.358   5.154   1.693  0.00  0.00    +0.055 A 
ATOM     13  C   UNL     1      -3.384   5.977   1.255  0.00  0.00    +0.162 A 
BRANCH   8  14
ATOM     14  O   UNL     1      -4.093   8.049   0.313  0.00  0.00    -0.488 OA
BRANCH  14  15
ATOM     15  C   UNL     1      -3.717   9.331  -0.194  0.00  0.00    +0.229 C 
BRANCH  15  17
ATOM     16  C   UNL     1      -4.568  11.465  -1.176  0.00  0.00    +0.007 C 
ATOM     17  C   UNL     1      -4.970  10.092  -0.633  0.00  0.00    +0.038 C 
ENDBRANCH  15  17
ENDBRANCH  14  15
ENDBRANCH   8  14
BRANCH  13  18
ATOM     18  O   UNL     1      -4.673   5.550   1.315  0.00  0.00    -0.489 OA
BRANCH  18  19
ATOM     19  C   UNL     1      -4.900   4.243   1.847  0.00  0.00    +0.226 C 
ATOM     20  C   UNL     1      -6.399   3.940   1.835  0.00  0.00    +0.048 C 
ENDBRANCH  18  19
ENDBRANCH  13  18
ENDBRANCH   1  11
BRANCH   2  21
ATOM     21  C   UNL     1      -0.206   5.205   4.641  0.00  0.00    +0.195 C 
ATOM     22  O   UNL     1      -1.534   4.969   4.602  0.00  0.00    -0.287 OA
BRANCH  21  23
ATOM     23  C   UNL     1       0.448   5.525   5.919  0.00  0.00    +0.023 A 
ATOM     24  C   UNL     1       1.584   4.816   6.329  0.00  0.00    +0.015 A 
ATOM     25  C   UNL     1       2.192   5.117   7.523  0.00  0.00    +0.046 A 
ATOM     26  C   UNL     1       1.680   6.124   8.344  0.00  0.00    +0.124 A 
ATOM     27  C   UNL     1       0.551   6.827   7.932  0.00  0.00    -0.002 A 
ATOM     28  C   UNL     1      -0.065   6.538   6.740  0.00  0.00    +0.019 A 
ATOM     29  C   UNL     1       0.248   7.851   9.009  0.00  0.00    +0.083 C 
ATOM     30  C   UNL     1       1.569   7.866   9.815  0.00  0.00    +0.175 C 
ATOM     31  O   UNL     1       2.115   6.562   9.556  0.00  0.00    -0.488 OA
ATOM     32  C   UNL     1       1.291   8.055  11.307  0.00  0.00    +0.052 C 
ENDBRANCH  21  23
ENDBRANCH   2  21
BRANCH   7  33
ATOM     33  C   UNL     1       1.214   4.464  -0.210  0.00  0.00    +0.144 C 
BRANCH  33  34
ATOM     34  C   UNL     1       1.587   3.014  -0.385  0.00  0.00    -0.027 A 
ATOM     35  C   UNL     1       0.613   2.028  -0.393  0.00  0.00    +0.025 A 
ATOM     36  C   UNL     1       0.992   0.709  -0.556  0.00  0.00    +0.111 A 
ATOM     37  N   UNL     1       2.262   0.385  -0.702  0.00  0.00    -0.263 NA
ATOM     38  C   UNL     1       3.215   1.297  -0.698  0.00  0.00    +0.111 A 
ATOM     39  C   UNL     1       2.912   2.636  -0.540  0.00  0.00    +0.025 A 
ENDBRANCH  33  34
ENDBRANCH   7  33
TORSDOF 10
