REMARK  Name = ZINC59778291
REMARK  6 active torsions:
REMARK  status: ('A' for Active; 'I' for Inactive)
REMARK    1  A    between atoms: C_6  and  C_7
REMARK    2  A    between atoms: C_10  and  S_13
REMARK    3  A    between atoms: S_13  and  C_14
REMARK    4  A    between atoms: C_14  and  C_15
REMARK    5  A    between atoms: C_15  and  C_16
REMARK    6  A    between atoms: N_18  and  C_19
REMARK                            x       y       z     vdW  Elec       q    Type
REMARK                         _______ _______ _______ _____ _____    ______ ____
ROOT
ATOM      1  S   UNL     1      -3.280  -4.087   0.051  0.00  0.00    -0.086 S 
ENDROOT
BRANCH   1   5
ATOM      2  C   UNL     1      -1.268  -0.766   0.054  0.00  0.00    +0.182 A 
ATOM      3  N   UNL     1      -1.377  -2.103   0.042  0.00  0.00    -0.201 NA
ATOM      4  H   UNL     1      -4.351  -1.245   0.099  0.00  0.00    +0.191 HD
ATOM      5  C   UNL     1      -2.648  -2.442   0.059  0.00  0.00    +0.185 A 
ATOM      6  N   UNL     1      -3.384  -1.308   0.083  0.00  0.00    -0.253 N 
ATOM      7  N   UNL     1      -2.471  -0.241   0.085  0.00  0.00    -0.152 NA
BRANCH   2  13
ATOM      8  C   UNL     1      -0.012   1.389   0.057  0.00  0.00    +0.013 A 
ATOM      9  C   UNL     1       1.175   2.092   0.046  0.00  0.00    +0.016 A 
ATOM     10  C   UNL     1       2.382   1.416   0.020  0.00  0.00    +0.018 A 
ATOM     11  C   UNL     1       2.406   0.032   0.005  0.00  0.00    +0.016 A 
ATOM     12  C   UNL     1       1.224  -0.681   0.016  0.00  0.00    +0.013 A 
ATOM     13  C   UNL     1       0.006  -0.005   0.042  0.00  0.00    +0.021 A 
ATOM     14 BR   UNL     1       4.006   2.386   0.004  0.00  0.00    -0.050 Br
ENDBRANCH   2  13
ENDBRANCH   1   5
BRANCH   1  15
ATOM     15  C   UNL     1      -1.795  -5.128   0.017  0.00  0.00    +0.086 C 
BRANCH  15  16
ATOM     16  C   UNL     1      -2.205  -6.601   0.008  0.00  0.00    +0.107 C 
BRANCH  16  17
ATOM     17  C   UNL     1      -0.971  -7.466  -0.021  0.00  0.00    +0.218 C 
ATOM     18  O   UNL     1       0.128  -6.954  -0.033  0.00  0.00    -0.275 OA
ATOM     19  N   UNL     1      -1.090  -8.809  -0.033  0.00  0.00    -0.284 N 
ATOM     20  H   UNL     1      -1.965  -9.219   0.042  0.00  0.00    +0.155 HD
BRANCH  19  21
ATOM     21  C   UNL     1       0.052  -9.611  -0.154  0.00  0.00    +0.052 A 
ATOM     22  C   UNL     1       1.248  -9.212   0.427  0.00  0.00    +0.026 A 
ATOM     23  C   UNL     1       2.372 -10.005   0.306  0.00  0.00    +0.022 A 
ATOM     24  C   UNL     1       2.308 -11.197  -0.394  0.00  0.00    +0.042 A 
ATOM     25  C   UNL     1       1.118 -11.598  -0.975  0.00  0.00    +0.041 A 
ATOM     26  C   UNL     1      -0.012 -10.811  -0.852  0.00  0.00    +0.064 A 
ATOM     27 CL   UNL     1      -1.507 -11.318  -1.575  0.00  0.00    -0.082 Cl
ATOM     28 CL   UNL     1       3.724 -12.190  -0.545  0.00  0.00    -0.083 Cl
ENDBRANCH  19  21
ENDBRANCH  16  17
ENDBRANCH  15  16
ENDBRANCH   1  15
TORSDOF 6
