REMARK  Name = ZINC20930697
REMARK  9 active torsions:
REMARK  status: ('A' for Active; 'I' for Inactive)
REMARK    1  A    between atoms: C_1  and  O_2
REMARK    2  A    between atoms: O_2  and  C_3
REMARK    3  A    between atoms: C_7  and  C_10
REMARK    4  A    between atoms: C_8  and  O_9
REMARK    5  A    between atoms: N_11  and  N_12
REMARK    6  A    between atoms: C_13  and  C_15
REMARK    7  A    between atoms: C_20  and  N_21
REMARK    8  A    between atoms: N_21  and  S_22
REMARK    9  A    between atoms: S_22  and  C_25
REMARK                            x       y       z     vdW  Elec       q    Type
REMARK                         _______ _______ _______ _____ _____    ______ ____
ROOT
ATOM      1  N   UNL     1      -3.419   5.879   0.355  0.00  0.00    -0.203 N 
ATOM      2  C   UNL     1      -3.549   7.218   0.268  0.00  0.00    +0.265 C 
ATOM      3  O   UNL     1      -2.564   7.915   0.113  0.00  0.00    -0.268 OA
ATOM      4  H   UNL     1      -4.309   5.248   0.495  0.00  0.00    +0.178 HD
ENDROOT
BRANCH   2   5
ATOM      5  C   UNL     1      -4.883   7.836   0.360  0.00  0.00    +0.063 A 
ATOM      6  C   UNL     1      -6.018   7.038   0.532  0.00  0.00    +0.015 A 
ATOM      7  C   UNL     1      -7.262   7.623   0.623  0.00  0.00    +0.001 A 
ATOM      8  C   UNL     1      -7.397   8.999   0.534  0.00  0.00    +0.002 A 
ATOM      9  C   UNL     1      -6.288   9.800   0.358  0.00  0.00    +0.027 A 
ATOM     10  C   UNL     1      -5.024   9.230   0.270  0.00  0.00    +0.086 A 
BRANCH  10  11
ATOM     11  N   UNL     1      -3.905  10.034   0.094  0.00  0.00    -0.097 NA
BRANCH  11  12
ATOM     12  S   UNL     1      -3.833  11.521   0.819  0.00  0.00    +0.098 S 
ATOM     13  O   UNL     1      -2.531  12.033   0.567  0.00  0.00    -0.148 OA
ATOM     14  O   UNL     1      -5.011  12.217   0.438  0.00  0.00    -0.148 OA
BRANCH  12  15
ATOM     15  C   UNL     1      -3.943  11.259   2.558  0.00  0.00    +0.148 A 
ATOM     16  C   UNL     1      -2.947  11.054   3.455  0.00  0.00    +0.037 A 
ATOM     17  C   UNL     1      -3.272  10.870   4.786  0.00  0.00    +0.010 A 
ATOM     18  C   UNL     1      -4.576  10.900   5.155  0.00  0.00    +0.047 A 
ATOM     19  S   UNL     1      -5.394  11.202   3.597  0.00  0.00    -0.077 S 
ENDBRANCH  12  15
ENDBRANCH  11  12
ENDBRANCH  10  11
ENDBRANCH   2   5
BRANCH   1  21
ATOM     20  C   UNL     1      -2.025   4.002   0.351  0.00  0.00    +0.142 C 
ATOM     21  N   UNL     1      -2.150   5.291   0.267  0.00  0.00    -0.187 NA
BRANCH  20  26
ATOM     22  C   UNL     1       1.698   3.590  -0.006  0.00  0.00    +0.162 A 
ATOM     23  C   UNL     1       1.821   2.212   0.085  0.00  0.00    +0.049 A 
ATOM     24  C   UNL     1       0.699   1.421   0.261  0.00  0.00    +0.004 A 
ATOM     25  C   UNL     1      -0.552   1.995   0.343  0.00  0.00    +0.013 A 
ATOM     26  C   UNL     1      -0.690   3.383   0.258  0.00  0.00    +0.040 A 
ATOM     27  C   UNL     1       0.445   4.183   0.080  0.00  0.00    +0.167 A 
BRANCH  22  29
ATOM     28  C   UNL     1       4.061   3.684  -0.260  0.00  0.00    +0.277 C 
ATOM     29  O   UNL     1       2.805   4.361  -0.179  0.00  0.00    -0.491 OA
ENDBRANCH  22  29
BRANCH  27  30
ATOM     30  O   UNL     1       0.321   5.534  -0.008  0.00  0.00    -0.503 OA
ATOM     31  H   UNL     1      -0.672   6.001   0.060  0.00  0.00    +0.292 HD
ENDBRANCH  27  30
ENDBRANCH  20  26
ENDBRANCH   1  21
TORSDOF 8
