REMARK  Name = ZINC65550481
REMARK  8 active torsions:
REMARK  status: ('A' for Active; 'I' for Inactive)
REMARK    1  A    between atoms: C_1  and  O_2
REMARK    2  A    between atoms: O_2  and  C_3
REMARK    3  A    between atoms: C_6  and  C_9
REMARK    4  A    between atoms: C_13  and  S_19
REMARK    5  A    between atoms: N_15  and  C_16
REMARK    6  A    between atoms: C_16  and  C_17
REMARK    7  A    between atoms: S_19  and  C_20
REMARK    8  A    between atoms: C_20  and  C_21
REMARK                            x       y       z     vdW  Elec       q    Type
REMARK                         _______ _______ _______ _____ _____    ______ ____
ROOT
ATOM      1  C   UNL     1       2.419  -2.621   4.052  0.00  0.00    +0.172 C 
ATOM      2  N   UNL     1       3.404  -1.630   4.542  0.00  0.00    -0.233 NA
ATOM      3  N   UNL     1       4.451  -2.439   5.185  0.00  0.00    -0.229 NA
ATOM      4  C   UNL     1       4.548  -3.628   4.299  0.00  0.00    +0.200 C 
ATOM      5  N   UNL     1       3.147  -3.897   3.896  0.00  0.00    -0.254 NA
ATOM      6  H   UNL     1       2.980  -0.995   5.202  0.00  0.00    +0.143 HD
ATOM      7  H   UNL     1       4.179  -2.705   6.119  0.00  0.00    +0.143 HD
ENDROOT
BRANCH   1  11
ATOM      8  C   UNL     1       0.829  -1.371   0.288  0.00  0.00    +0.120 A 
ATOM      9  C   UNL     1       1.203  -0.426   1.232  0.00  0.00    +0.046 A 
ATOM     10  C   UNL     1       1.717  -0.833   2.449  0.00  0.00    +0.010 A 
ATOM     11  C   UNL     1       1.858  -2.180   2.725  0.00  0.00    -0.015 A 
ATOM     12  C   UNL     1       1.486  -3.124   1.785  0.00  0.00    +0.010 A 
ATOM     13  C   UNL     1       0.967  -2.723   0.570  0.00  0.00    +0.046 A 
BRANCH   8  15
ATOM     14  C   UNL     1       0.210   0.434  -1.131  0.00  0.00    +0.277 C 
ATOM     15  O   UNL     1       0.324  -0.974  -0.909  0.00  0.00    -0.495 OA
ENDBRANCH   8  15
ENDBRANCH   1  11
BRANCH   5  16
ATOM     16  C   UNL     1       2.551  -4.949   4.731  0.00  0.00    +0.115 C 
BRANCH  16  17
ATOM     17  C   UNL     1       2.977  -6.300   4.215  0.00  0.00    -0.019 C 
ATOM     18  C   UNL     1       3.509  -7.175   5.033  0.00  0.00    +0.005 C 
ENDBRANCH  16  17
ENDBRANCH   5  16
BRANCH   4  19
ATOM     19  S   UNL     1       5.233  -5.042   5.206  0.00  0.00    -0.121 S 
BRANCH  19  20
ATOM     20  C   UNL     1       6.996  -4.647   5.367  0.00  0.00    +0.118 C 
BRANCH  20  21
ATOM     21  C   UNL     1       7.724  -5.823   6.021  0.00  0.00    +0.184 C 
ATOM     22  N   UNL     1       7.612  -7.018   5.176  0.00  0.00    -0.363 N 
ATOM     23  C   UNL     1       6.995  -7.930   5.869  0.00  0.00    +0.060 A 
ATOM     24  C   UNL     1       6.595  -9.312   5.570  0.00  0.00    +0.027 A 
ATOM     25  C   UNL     1       5.951 -10.036   6.508  0.00  0.00    +0.002 A 
ATOM     26  C   UNL     1       5.638  -9.523   7.779  0.00  0.00    +0.002 A 
ATOM     27  C   UNL     1       5.958  -8.269   8.155  0.00  0.00    +0.027 A 
ATOM     28  C   UNL     1       6.664  -7.387   7.215  0.00  0.00    +0.060 A 
ATOM     29  N   UNL     1       7.090  -6.160   7.301  0.00  0.00    -0.363 N 
ATOM     30  H   UNL     1       7.938  -7.111   4.267  0.00  0.00    +0.162 HD
ATOM     31  H   UNL     1       7.004  -5.576   8.071  0.00  0.00    +0.162 HD
ENDBRANCH  20  21
ENDBRANCH  19  20
ENDBRANCH   4  19
TORSDOF 7
