REMARK  Name = ZINC00826585
REMARK  2 active torsions:
REMARK  status: ('A' for Active; 'I' for Inactive)
REMARK    1  A    between atoms: C_4  and  C_7
REMARK    2  A    between atoms: N_8  and  N_9
REMARK                            x       y       z     vdW  Elec       q    Type
REMARK                         _______ _______ _______ _____ _____    ______ ____
ROOT
ATOM      1  N   UNL     1       4.111   2.059  -0.025  0.00  0.00    -0.143 N 
ATOM      2  C   UNL     1       3.569   0.832   0.104  0.00  0.00    +0.301 A 
ATOM      3  O   UNL     1       4.285  -0.148   0.208  0.00  0.00    -0.263 OA
ATOM      4  C   UNL     1       2.158   0.691   0.119  0.00  0.00    +0.131 A 
ATOM      5  C   UNL     1       1.380   1.828  -0.001  0.00  0.00    +0.081 A 
ATOM      6  C   UNL     1      -0.015   1.393   0.045  0.00  0.00    +0.025 A 
ATOM      7  C   UNL     1      -1.239   2.066  -0.021  0.00  0.00    +0.027 A 
ATOM      8  C   UNL     1      -2.407   1.362   0.047  0.00  0.00    +0.019 A 
ATOM      9  C   UNL     1      -2.389  -0.020   0.193  0.00  0.00    +0.017 A 
ATOM     10  C   UNL     1      -1.196  -0.703   0.266  0.00  0.00    +0.027 A 
ATOM     11  C   UNL     1       0.008  -0.007   0.192  0.00  0.00    +0.049 A 
ATOM     12  N   UNL     1       1.324  -0.409   0.235  0.00  0.00    -0.349 N 
ATOM     13  H   UNL     1       1.623  -1.327   0.331  0.00  0.00    +0.166 HD
ATOM     14 BR   UNL     1      -4.060   2.275  -0.049  0.00  0.00    -0.050 Br
ATOM     15  N   UNL     1       1.993   3.062  -0.132  0.00  0.00    -0.304 N 
ATOM     16  H   UNL     1       1.437   3.888  -0.219  0.00  0.00    +0.171 HD
ATOM     17  C   UNL     1       3.336   3.151  -0.141  0.00  0.00    +0.351 A 
ATOM     18  O   UNL     1       3.860   4.243  -0.256  0.00  0.00    -0.245 OA
ENDROOT
BRANCH   1  20
ATOM     19  C   UNL     1       6.196   1.707  -1.022  0.00  0.00    +0.141 C 
ATOM     20  N   UNL     1       5.505   2.198  -0.039  0.00  0.00    -0.167 NA
BRANCH  19  24
ATOM     21  C   UNL     1      10.437   1.839  -0.907  0.00  0.00    +0.000 A 
ATOM     22  C   UNL     1       9.795   1.271  -1.994  0.00  0.00    +0.001 A 
ATOM     23  C   UNL     1       8.417   1.225  -2.038  0.00  0.00    +0.009 A 
ATOM     24  C   UNL     1       7.670   1.752  -0.982  0.00  0.00    -0.005 A 
ATOM     25  C   UNL     1       8.325   2.329   0.109  0.00  0.00    +0.009 A 
ATOM     26  C   UNL     1       9.703   2.364   0.142  0.00  0.00    +0.001 A 
ENDBRANCH  19  24
ENDBRANCH   1  20
TORSDOF 2
