REMARK  Name = ZINC03035494
REMARK  6 active torsions:
REMARK  status: ('A' for Active; 'I' for Inactive)
REMARK    1  A    between atoms: C_1  and  C_2
REMARK    2  A    between atoms: C_5  and  C_8
REMARK    3  A    between atoms: C_13  and  C_14
REMARK    4  A    between atoms: C_15  and  C_27
REMARK    5  A    between atoms: N_16  and  C_26
REMARK    6  A    between atoms: N_17  and  C_20
REMARK                            x       y       z     vdW  Elec       q    Type
REMARK                         _______ _______ _______ _____ _____    ______ ____
ROOT
ATOM      1  C   UNL     1      -1.095   3.411   2.962  0.00  0.00    +0.102 C 
ATOM      2  N   UNL     1      -1.008   4.138   1.860  0.00  0.00    -0.168 NA
ATOM      3  C   UNL     1      -0.697   3.615   0.694  0.00  0.00    +0.275 C 
ATOM      4  O   UNL     1      -0.613   4.298  -0.316  0.00  0.00    -0.267 OA
ATOM      5  C   UNL     1      -0.459   2.159   0.668  0.00  0.00    +0.078 C 
ATOM      6  C   UNL     1      -0.128   1.345  -0.378  0.00  0.00    +0.035 C 
ATOM      7  S   UNL     1      -0.717   1.761   2.392  0.00  0.00    -0.066 S 
ENDROOT
BRANCH   6   8
ATOM      8  C   UNL     1      -0.095  -0.059  -0.198  0.00  0.00    +0.063 A 
ATOM      9  C   UNL     1      -1.129  -0.864   0.251  0.00  0.00    +0.045 A 
ATOM     10  N   UNL     1      -0.695  -2.139   0.281  0.00  0.00    -0.284 N 
ATOM     11  N   UNL     1       0.634  -2.202  -0.148  0.00  0.00    -0.217 N 
ATOM     12  C   UNL     1       1.047  -0.956  -0.459  0.00  0.00    +0.279 A 
ATOM     13  O   UNL     1       2.145  -0.634  -0.871  0.00  0.00    -0.265 OA
ATOM     14  C   UNL     1      -1.498  -3.291   0.701  0.00  0.00    +0.171 C 
ATOM     15  C   UNL     1      -2.507  -0.393   0.639  0.00  0.00    +0.066 C 
BRANCH  11  16
ATOM     16  C   UNL     1       1.405  -3.364  -0.244  0.00  0.00    +0.067 A 
ATOM     17  C   UNL     1       1.450  -4.260   0.816  0.00  0.00    +0.028 A 
ATOM     18  C   UNL     1       2.208  -5.410   0.715  0.00  0.00    +0.002 A 
ATOM     19  C   UNL     1       2.932  -5.664  -0.436  0.00  0.00    +0.000 A 
ATOM     20  C   UNL     1       2.894  -4.772  -1.491  0.00  0.00    +0.002 A 
ATOM     21  C   UNL     1       2.133  -3.623  -1.399  0.00  0.00    +0.028 A 
ENDBRANCH  11  16
ENDBRANCH   6   8
BRANCH   1  26
ATOM     22  C   UNL     1      -2.381   5.144   8.295  0.00  0.00    +0.044 C 
ATOM     23  C   UNL     1      -2.045   4.690   6.898  0.00  0.00    -0.050 A 
ATOM     24  C   UNL     1      -2.002   5.611   5.866  0.00  0.00    +0.004 A 
ATOM     25  C   UNL     1      -1.695   5.202   4.585  0.00  0.00    +0.010 A 
ATOM     26  C   UNL     1      -1.426   3.856   4.331  0.00  0.00    +0.005 A 
ATOM     27  C   UNL     1      -1.476   2.931   5.376  0.00  0.00    +0.010 A 
ATOM     28  C   UNL     1      -1.780   3.354   6.653  0.00  0.00    +0.004 A 
ENDBRANCH   1  26
TORSDOF 3
