REMARK  Name = ZINC21960321
REMARK  11 active torsions:
REMARK  status: ('A' for Active; 'I' for Inactive)
REMARK    1  A    between atoms: C_1  and  C_2
REMARK    2  A    between atoms: C_2  and  N_3
REMARK    3  A    between atoms: N_3  and  C_4
REMARK    4  A    between atoms: N_3  and  C_6
REMARK    5  A    between atoms: C_4  and  C_5
REMARK    6  A    between atoms: C_6  and  C_7
REMARK    7  A    between atoms: C_10  and  C_13
REMARK    8  A    between atoms: C_13  and  N_14
REMARK    9  A    between atoms: C_15  and  C_17
REMARK   10  A    between atoms: C_17  and  C_18
REMARK   11  A    between atoms: C_21  and  C_23
REMARK                            x       y       z     vdW  Elec       q    Type
REMARK                         _______ _______ _______ _____ _____    ______ ____
ROOT
ATOM      1  N   UNL     1      -3.317   3.713   5.397  0.00  0.00    -0.311 N 
ATOM      2  C   UNL     1      -3.993   4.215   6.449  0.00  0.00    +0.219 C 
ATOM      3  O   UNL     1      -5.003   4.862   6.269  0.00  0.00    -0.275 OA
ATOM      4  H   UNL     1      -2.402   3.126   5.560  0.00  0.00    +0.149 HD
ENDROOT
BRANCH   1   5
ATOM      5  C   UNL     1      -3.802   3.951   4.035  0.00  0.00    +0.139 C 
BRANCH   5   9
ATOM      6  C   UNL     1      -1.173   2.076   1.238  0.00  0.00    -0.064 A 
ATOM      7  C   UNL     1      -0.943   3.379   1.637  0.00  0.00    +0.002 A 
ATOM      8  C   UNL     1      -1.796   3.987   2.538  0.00  0.00    +0.005 A 
ATOM      9  C   UNL     1      -2.874   3.289   3.049  0.00  0.00    -0.030 A 
ATOM     10  C   UNL     1      -3.102   1.984   2.655  0.00  0.00    +0.005 A 
ATOM     11  C   UNL     1      -2.251   1.377   1.749  0.00  0.00    +0.002 A 
BRANCH   6  12
ATOM     12  C   UNL     1      -0.246   1.414   0.252  0.00  0.00    -0.043 C 
BRANCH  12  13
ATOM     13  N   UNL     1      -0.733   1.652  -1.114  0.00  0.00    +0.382 N 
ATOM     14  H   UNL     1      -0.893   2.734  -1.232  0.00  0.00    -0.081 HD
BRANCH  13  16
ATOM     15  C   UNL     1       1.389   2.263  -2.172  0.00  0.00    -0.017 C 
ATOM     16  C   UNL     1       0.262   1.230  -2.109  0.00  0.00    -0.082 C 
ENDBRANCH  13  16
BRANCH  13  17
ATOM     17  C   UNL     1      -2.020   0.979  -1.338  0.00  0.00    -0.082 C 
ATOM     18  C   UNL     1      -2.683   1.551  -2.593  0.00  0.00    -0.017 C 
ENDBRANCH  13  17
ENDBRANCH  12  13
ENDBRANCH   6  12
ENDBRANCH   5   9
ENDBRANCH   1   5
BRANCH   2  19
ATOM     19  C   UNL     1      -3.494   3.970   7.851  0.00  0.00    +0.151 C 
BRANCH  19  20
ATOM     20  C   UNL     1      -4.422   4.632   8.836  0.00  0.00    +0.058 A 
ATOM     21  C   UNL     1      -4.987   3.904   9.833  0.00  0.00    +0.071 A 
ATOM     22  S   UNL     1      -5.950   5.163  10.659  0.00  0.00    -0.075 S 
ATOM     23  C   UNL     1      -5.504   6.520   9.584  0.00  0.00    +0.109 A 
ATOM     24  N   UNL     1      -4.691   5.914   8.729  0.00  0.00    -0.243 NA
BRANCH  23  25
ATOM     25  C   UNL     1      -5.928   7.935   9.633  0.00  0.00    +0.014 A 
ATOM     26  C   UNL     1      -6.801   8.384  10.622  0.00  0.00    +0.018 A 
ATOM     27  C   UNL     1      -7.164   9.686  10.634  0.00  0.00    +0.046 A 
ATOM     28  S   UNL     1      -6.278  10.341   9.230  0.00  0.00    -0.104 S 
ATOM     29  C   UNL     1      -5.468   8.838   8.712  0.00  0.00    +0.055 A 
ENDBRANCH  23  25
ENDBRANCH  19  20
ENDBRANCH   2  19
TORSDOF 9
