REMARK  Name = ZINC31625303
REMARK  11 active torsions:
REMARK  status: ('A' for Active; 'I' for Inactive)
REMARK    1  A    between atoms: C_1  and  C_2
REMARK    2  A    between atoms: C_2  and  C_3
REMARK    3  A    between atoms: C_2  and  C_4
REMARK    4  A    between atoms: C_4  and  N_5
REMARK    5  A    between atoms: N_5  and  C_6
REMARK    6  A    between atoms: C_7  and  N_22
REMARK    7  A    between atoms: N_8  and  C_15
REMARK    8  A    between atoms: C_15  and  C_16
REMARK    9  A    between atoms: C_23  and  C_25
REMARK   10  A    between atoms: C_25  and  N_26
REMARK   11  A    between atoms: C_28  and  C_33
REMARK                            x       y       z     vdW  Elec       q    Type
REMARK                         _______ _______ _______ _____ _____    ______ ____
ROOT
ATOM      1  N   UNL     1       5.770  -1.099  -1.588  0.00  0.00    -0.263 N 
ATOM      2  C   UNL     1       4.774  -0.206  -1.406  0.00  0.00    +0.240 C 
ATOM      3  O   UNL     1       4.322   0.400  -2.354  0.00  0.00    -0.273 OA
ENDROOT
BRANCH   1   4
ATOM      4  C   UNL     1       6.220  -1.397  -2.892  0.00  0.00    +0.140 A 
ATOM      5  C   UNL     1       5.356  -1.924  -3.829  0.00  0.00    +0.128 A 
ATOM      6  N   UNL     1       5.823  -2.201  -5.093  0.00  0.00    -0.276 N 
ATOM      7  C   UNL     1       7.110  -1.969  -5.408  0.00  0.00    +0.331 A 
ATOM      8  O   UNL     1       7.505  -2.225  -6.530  0.00  0.00    -0.246 OA
ATOM      9  N   UNL     1       7.968  -1.460  -4.506  0.00  0.00    -0.273 N 
ATOM     10  H   UNL     1       9.016  -1.278  -4.786  0.00  0.00    +0.173 HD
ATOM     11  C   UNL     1       7.560  -1.167  -3.256  0.00  0.00    +0.277 A 
ATOM     12  O   UNL     1       8.346  -0.706  -2.446  0.00  0.00    -0.266 OA
BRANCH   5  13
ATOM     13  N   UNL     1       4.042  -2.167  -3.505  0.00  0.00    -0.343 N 
ATOM     14  H   UNL     1       3.359  -2.587  -4.257  0.00  0.00    +0.144 HD
ATOM     15  H   UNL     1       3.674  -1.940  -2.493  0.00  0.00    +0.144 HD
ENDBRANCH   5  13
BRANCH   6  16
ATOM     16  C   UNL     1       4.915  -2.757  -6.099  0.00  0.00    +0.163 C 
BRANCH  16  17
ATOM     17  C   UNL     1       4.944  -4.262  -6.025  0.00  0.00    -0.028 A 
ATOM     18  C   UNL     1       5.848  -4.975  -6.790  0.00  0.00    +0.005 A 
ATOM     19  C   UNL     1       5.878  -6.355  -6.718  0.00  0.00    +0.000 A 
ATOM     20  C   UNL     1       4.996  -7.023  -5.889  0.00  0.00    +0.000 A 
ATOM     21  C   UNL     1       4.088  -6.310  -5.128  0.00  0.00    +0.000 A 
ATOM     22  C   UNL     1       4.062  -4.929  -5.196  0.00  0.00    +0.005 A 
ENDBRANCH  16  17
ENDBRANCH   6  16
ENDBRANCH   1   4
BRANCH   1  23
ATOM     23  C   UNL     1       6.383  -1.758  -0.432  0.00  0.00    +0.117 C 
BRANCH  23  25
ATOM     24  C   UNL     1       5.660  -4.023  -1.199  0.00  0.00    +0.009 C 
ATOM     25  C   UNL     1       5.571  -3.001  -0.064  0.00  0.00    +0.001 C 
ATOM     26  C   UNL     1       6.132  -3.615   1.220  0.00  0.00    +0.009 C 
ENDBRANCH  23  25
ENDBRANCH   1  23
BRANCH   2  27
ATOM     27  C   UNL     1       4.225   0.038  -0.024  0.00  0.00    +0.221 C 
BRANCH  27  28
ATOM     28  N   UNL     1       3.161   1.043  -0.092  0.00  0.00    -0.306 N 
ATOM     29  C   UNL     1       3.470   2.358   0.042  0.00  0.00    +0.102 A 
ATOM     30  C   UNL     1       2.505   3.304  -0.017  0.00  0.00    +0.071 A 
ATOM     31  C   UNL     1       1.169   2.930  -0.219  0.00  0.00    +0.019 A 
ATOM     32  C   UNL     1       0.860   1.608  -0.354  0.00  0.00    +0.071 A 
ATOM     33  C   UNL     1       1.887   0.651  -0.287  0.00  0.00    +0.252 A 
ATOM     34  O   UNL     1       1.625  -0.535  -0.407  0.00  0.00    -0.268 OA
BRANCH  30  35
ATOM     35  C   UNL     1       2.865   4.760   0.135  0.00  0.00    +0.419 C 
ATOM     36  F   UNL     1       3.037   5.332  -1.130  0.00  0.00    -0.166 F 
ATOM     37  F   UNL     1       1.839   5.426   0.812  0.00  0.00    -0.166 F 
ATOM     38  F   UNL     1       4.054   4.872   0.863  0.00  0.00    -0.166 F 
ENDBRANCH  30  35
ENDBRANCH  27  28
ENDBRANCH   2  27
TORSDOF 9
