REMARK  Name = ZINC10059421
REMARK  5 active torsions:
REMARK  status: ('A' for Active; 'I' for Inactive)
REMARK    1  A    between atoms: C_4  and  C_7
REMARK    2  A    between atoms: C_12  and  S_16
REMARK    3  A    between atoms: C_14  and  O_15
REMARK    4  A    between atoms: S_16  and  C_17
REMARK    5  A    between atoms: C_17  and  C_18
REMARK                            x       y       z     vdW  Elec       q    Type
REMARK                         _______ _______ _______ _____ _____    ______ ____
ROOT
ATOM      1  C   UNL     1       1.248  -2.163  -0.021  0.00  0.00    +0.108 A 
ATOM      2  C   UNL     1       1.785  -2.880   1.070  0.00  0.00    +0.263 A 
ATOM      3  O   UNL     1       2.236  -2.293   2.039  0.00  0.00    -0.267 OA
ATOM      4  N   UNL     1       1.788  -4.229   1.019  0.00  0.00    -0.301 N 
ATOM      5  H   UNL     1       2.153  -4.740   1.758  0.00  0.00    +0.171 HD
ATOM      6  C   UNL     1       1.282  -4.874  -0.068  0.00  0.00    +0.173 A 
ATOM      7  N   UNL     1       0.778  -4.214  -1.092  0.00  0.00    -0.188 NA
ATOM      8  C   UNL     1       0.738  -2.881  -1.106  0.00  0.00    +0.228 A 
ENDROOT
BRANCH   1  12
ATOM      9  C   UNL     1       1.170   2.086   0.002  0.00  0.00    +0.000 A 
ATOM     10  C   UNL     1      -0.017   1.375   0.010  0.00  0.00    +0.001 A 
ATOM     11  C   UNL     1       0.002  -0.004   0.002  0.00  0.00    +0.009 A 
ATOM     12  C   UNL     1       1.221  -0.682  -0.013  0.00  0.00    -0.008 A 
ATOM     13  C   UNL     1       2.414   0.040  -0.021  0.00  0.00    +0.009 A 
ATOM     14  C   UNL     1       2.382   1.420  -0.013  0.00  0.00    +0.001 A 
ENDBRANCH   1  12
BRANCH   8  15
ATOM     15  O   UNL     1       0.210  -2.228  -2.166  0.00  0.00    -0.492 OA
ATOM     16  H   UNL     1      -0.116  -2.811  -2.865  0.00  0.00    +0.294 HD
ENDBRANCH   8  15
BRANCH   6  17
ATOM     17  S   UNL     1       1.300  -6.636  -0.107  0.00  0.00    -0.083 S 
BRANCH  17  18
ATOM     18  C   UNL     1       0.533  -6.922  -1.722  0.00  0.00    +0.112 C 
BRANCH  18  19
ATOM     19  C   UNL     1       0.441  -8.404  -1.979  0.00  0.00    -0.036 A 
ATOM     20  C   UNL     1      -0.681  -9.107  -1.579  0.00  0.00    +0.004 A 
ATOM     21  C   UNL     1      -0.766 -10.466  -1.815  0.00  0.00    +0.001 A 
ATOM     22  C   UNL     1       0.271 -11.124  -2.450  0.00  0.00    +0.015 A 
ATOM     23  C   UNL     1       1.394 -10.422  -2.849  0.00  0.00    +0.018 A 
ATOM     24  C   UNL     1       1.476  -9.060  -2.618  0.00  0.00    +0.019 A 
ATOM     25 BR   UNL     1       2.812 -11.321  -3.718  0.00  0.00    -0.050 Br
ENDBRANCH  18  19
ENDBRANCH  17  18
ENDBRANCH   6  17
TORSDOF 5
