REMARK  Name = ZINC33324509
REMARK  10 active torsions:
REMARK  status: ('A' for Active; 'I' for Inactive)
REMARK    1  A    between atoms: C_1  and  C_2
REMARK    2  A    between atoms: C_2  and  N_3
REMARK    3  A    between atoms: N_3  and  C_4
REMARK    4  A    between atoms: C_4  and  C_5
REMARK    5  A    between atoms: C_8  and  N_13
REMARK    6  A    between atoms: C_10  and  C_12
REMARK    7  A    between atoms: N_13  and  C_14
REMARK    8  A    between atoms: C_17  and  N_20
REMARK    9  A    between atoms: N_20  and  S_21
REMARK   10  A    between atoms: S_21  and  C_24
REMARK                            x       y       z     vdW  Elec       q    Type
REMARK                         _______ _______ _______ _____ _____    ______ ____
ROOT
ATOM      1  C   UNL     1      -3.796  -0.999   1.647  0.00  0.00    +0.032 A 
ATOM      2  C   UNL     1      -3.204  -0.990   0.391  0.00  0.00    +0.025 A 
ATOM      3  C   UNL     1      -2.217  -0.069   0.100  0.00  0.00    +0.026 A 
ATOM      4  C   UNL     1      -1.818   0.849   1.062  0.00  0.00    +0.048 A 
ATOM      5  C   UNL     1      -2.406   0.836   2.320  0.00  0.00    +0.026 A 
ATOM      6  C   UNL     1      -3.397  -0.081   2.610  0.00  0.00    +0.025 A 
ENDROOT
BRANCH   1   7
ATOM      7  N   UNL     1      -4.797  -1.933   1.943  0.00  0.00    -0.301 N 
ATOM      8  H   UNL     1      -5.554  -2.186   1.186  0.00  0.00    +0.154 HD
BRANCH   7  12
ATOM      9  N   UNL     1      -2.875  -2.818   6.277  0.00  0.00    -0.316 N 
ATOM     10  C   UNL     1      -3.882  -2.977   5.337  0.00  0.00    +0.126 A 
ATOM     11  C   UNL     1      -3.795  -2.352   4.096  0.00  0.00    +0.085 A 
ATOM     12  C   UNL     1      -4.834  -2.538   3.190  0.00  0.00    +0.105 A 
ATOM     13  N   UNL     1      -5.862  -3.312   3.536  0.00  0.00    -0.332 N 
ATOM     14  C   UNL     1      -5.905  -3.890   4.719  0.00  0.00    +0.107 A 
ATOM     15  N   UNL     1      -4.944  -3.734   5.606  0.00  0.00    -0.219 NA
ATOM     16  C   UNL     1      -7.089  -4.756   5.067  0.00  0.00    +0.086 C 
ATOM     17  H   UNL     1      -6.691  -3.474   2.831  0.00  0.00    +0.168 HD
BRANCH   9  19
ATOM     18  C   UNL     1      -2.152  -0.499   6.562  0.00  0.00    +0.024 C 
ATOM     19  C   UNL     1      -1.778  -1.881   6.023  0.00  0.00    +0.103 C 
ENDBRANCH   9  19
BRANCH   9  20
ATOM     20  C   UNL     1      -2.908  -3.588   7.523  0.00  0.00    +0.103 C 
ATOM     21  C   UNL     1      -2.165  -4.910   7.326  0.00  0.00    +0.024 C 
ENDBRANCH   9  20
ENDBRANCH   7  12
ENDBRANCH   1   7
BRANCH   4  22
ATOM     22  N   UNL     1      -0.818   1.782   0.767  0.00  0.00    -0.216 N 
ATOM     23  H   UNL     1       0.189   1.664   1.194  0.00  0.00    +0.174 HD
BRANCH  22  24
ATOM     24  S   UNL     1      -1.151   3.066  -0.225  0.00  0.00    +0.073 S 
ATOM     25  O   UNL     1       0.061   3.794  -0.368  0.00  0.00    -0.150 OA
ATOM     26  O   UNL     1      -1.861   2.544  -1.340  0.00  0.00    -0.150 OA
BRANCH  24  27
ATOM     27  C   UNL     1      -2.271   4.116   0.639  0.00  0.00    +0.112 A 
ATOM     28  C   UNL     1      -1.823   5.333   1.157  0.00  0.00    +0.030 A 
ATOM     29  C   UNL     1      -2.648   6.188   1.830  0.00  0.00    +0.010 A 
ATOM     30  C   UNL     1      -3.991   5.825   2.018  0.00  0.00    -0.017 A 
ATOM     31  C   UNL     1      -4.937   6.611   2.696  0.00  0.00    +0.008 A 
ATOM     32  C   UNL     1      -6.215   6.148   2.814  0.00  0.00    +0.001 A 
ATOM     33  C   UNL     1      -6.616   4.919   2.284  0.00  0.00    +0.004 A 
ATOM     34  C   UNL     1      -5.725   4.133   1.620  0.00  0.00    -0.039 A 
ATOM     35  C   UNL     1      -4.418   4.592   1.492  0.00  0.00    -0.010 A 
ATOM     36  C   UNL     1      -3.567   3.734   0.803  0.00  0.00    -0.013 A 
ATOM     37  C   UNL     1      -4.377   2.526   0.398  0.00  0.00    +0.042 C 
ATOM     38  C   UNL     1      -5.800   2.789   0.937  0.00  0.00    +0.040 C 
ENDBRANCH  24  27
ENDBRANCH  22  24
ENDBRANCH   4  22
TORSDOF 7
