REMARK  Name = ZINC09850822
REMARK  7 active torsions:
REMARK  status: ('A' for Active; 'I' for Inactive)
REMARK    1  A    between atoms: C_4  and  C_7
REMARK    2  A    between atoms: C_8  and  C_9
REMARK    3  A    between atoms: C_9  and  N_60
REMARK    4  A    between atoms: C_15  and  C_17
REMARK    5  A    between atoms: C_17  and  C_19
REMARK    6  A    between atoms: C_17  and  N_28
REMARK    7  A    between atoms: C_19  and  C_21
REMARK                            x       y       z     vdW  Elec       q    Type
REMARK                         _______ _______ _______ _____ _____    ______ ____
ROOT
ATOM      1  C   UNL     1      -0.477   1.590  -1.171  0.00  0.00    -0.059 C 
ATOM      2  C   UNL     1       0.211   1.127   0.118  0.00  0.00    +0.089 C 
ATOM      3  N   UNL     1      -0.587   1.583   1.267  0.00  0.00    -0.303 N 
ATOM      4  C   UNL     1      -0.975   3.001   1.325  0.00  0.00    +0.089 C 
ATOM      5  C   UNL     1      -1.616   3.389  -0.011  0.00  0.00    -0.059 C 
ATOM      6  C   UNL     1      -0.955   0.723   2.237  0.00  0.00    +0.246 C 
ATOM      7  O   UNL     1      -0.720  -0.461   2.120  0.00  0.00    -0.273 OA
ATOM      8  N   UNL     1      -0.677   3.054  -1.104  0.00  0.00    +0.384 N 
ATOM      9  H   UNL     1       0.226   3.505  -0.917  0.00  0.00    -0.081 HD
ENDROOT
BRANCH   8  10
ATOM     10  C   UNL     1      -1.204   3.550  -2.392  0.00  0.00    -0.051 C 
BRANCH  10  12
ATOM     11  C   UNL     1      -0.550   5.727  -3.319  0.00  0.00    +0.002 C 
ATOM     12  C   UNL     1      -1.192   5.057  -2.372  0.00  0.00    -0.045 C 
BRANCH  11  16
ATOM     13  C   UNL     1      -0.516   9.974  -3.263  0.00  0.00    +0.000 A 
ATOM     14  C   UNL     1       0.144   9.293  -4.271  0.00  0.00    +0.001 A 
ATOM     15  C   UNL     1       0.136   7.914  -4.295  0.00  0.00    +0.008 A 
ATOM     16  C   UNL     1      -0.538   7.205  -3.299  0.00  0.00    -0.025 A 
ATOM     17  C   UNL     1      -1.206   7.898  -2.289  0.00  0.00    +0.008 A 
ATOM     18  C   UNL     1      -1.186   9.278  -2.273  0.00  0.00    +0.001 A 
ENDBRANCH  11  16
ENDBRANCH  10  12
ENDBRANCH   8  10
BRANCH   6  19
ATOM     19  C   UNL     1      -1.660   1.233   3.468  0.00  0.00    +0.247 C 
BRANCH  19  20
ATOM     20  N   UNL     1      -0.858   2.292   4.086  0.00  0.00    -0.296 N 
ATOM     21  C   UNL     1      -1.383   3.536   4.226  0.00  0.00    +0.090 A 
ATOM     22  C   UNL     1      -0.661   4.530   4.793  0.00  0.00    +0.018 A 
ATOM     23  C   UNL     1       0.642   4.279   5.245  0.00  0.00    +0.007 A 
ATOM     24  C   UNL     1       1.167   3.028   5.105  0.00  0.00    +0.070 A 
ATOM     25  C   UNL     1       0.388   2.018   4.516  0.00  0.00    +0.252 A 
ATOM     26  O   UNL     1       0.844   0.892   4.388  0.00  0.00    -0.268 OA
ENDBRANCH  19  20
BRANCH  19  27
ATOM     27  C   UNL     1      -1.842   0.102   4.447  0.00  0.00    +0.195 C 
ATOM     28  O   UNL     1      -1.153   0.048   5.444  0.00  0.00    -0.289 OA
BRANCH  27  29
ATOM     29  C   UNL     1      -2.854  -0.935   4.194  0.00  0.00    +0.020 A 
ATOM     30  C   UNL     1      -3.727  -0.815   3.108  0.00  0.00    +0.012 A 
ATOM     31  C   UNL     1      -4.668  -1.794   2.874  0.00  0.00    +0.016 A 
ATOM     32  C   UNL     1      -4.759  -2.889   3.718  0.00  0.00    +0.018 A 
ATOM     33  C   UNL     1      -3.902  -3.011   4.799  0.00  0.00    +0.016 A 
ATOM     34  C   UNL     1      -2.951  -2.043   5.042  0.00  0.00    +0.012 A 
ATOM     35 BR   UNL     1      -6.059  -4.222   3.392  0.00  0.00    -0.050 Br
ENDBRANCH  27  29
ENDBRANCH  19  27
ENDBRANCH   6  19
TORSDOF 7
