REMARK  Name = ZINC25383850
REMARK  9 active torsions:
REMARK  status: ('A' for Active; 'I' for Inactive)
REMARK    1  A    between atoms: C_1  and  C_2
REMARK    2  A    between atoms: C_5  and  C_8
REMARK    3  A    between atoms: C_11  and  C_13
REMARK    4  A    between atoms: C_13  and  C_14
REMARK    5  A    between atoms: C_14  and  C_15
REMARK    6  A    between atoms: N_17  and  C_18
REMARK    7  A    between atoms: C_18  and  C_19
REMARK    8  A    between atoms: C_19  and  C_21
REMARK    9  A    between atoms: C_19  and  N_26
REMARK                            x       y       z     vdW  Elec       q    Type
REMARK                         _______ _______ _______ _____ _____    ______ ____
ROOT
ATOM      1  C   UNL     1      -1.351  -9.009  -3.024  0.00  0.00    +0.213 C 
ATOM      2  O   UNL     1      -0.304  -9.424  -3.473  0.00  0.00    -0.276 OA
ATOM      3  N   UNL     1      -2.493  -9.694  -3.234  0.00  0.00    -0.317 N 
ATOM      4  H   UNL     1      -3.330  -9.362  -2.874  0.00  0.00    +0.149 HD
ENDROOT
BRANCH   1   5
ATOM      5  C   UNL     1      -1.375  -7.728  -2.230  0.00  0.00    +0.105 C 
BRANCH   5   6
ATOM      6  C   UNL     1       0.041  -7.157  -2.140  0.00  0.00    +0.103 C 
BRANCH   6  10
ATOM      7  C   UNL     1      -0.122  -3.769  -0.830  0.00  0.00    +0.153 A 
ATOM      8  C   UNL     1       0.089  -4.492   0.300  0.00  0.00    +0.132 A 
ATOM      9  N   UNL     1       0.170  -5.783  -0.055  0.00  0.00    -0.333 N 
ATOM     10  C   UNL     1       0.017  -5.876  -1.347  0.00  0.00    +0.175 A 
ATOM     11  O   UNL     1      -0.171  -4.650  -1.854  0.00  0.00    -0.442 OA
ATOM     12  H   UNL     1       0.317  -6.526   0.550  0.00  0.00    +0.168 HD
BRANCH   7  17
ATOM     13  C   UNL     1      -0.723   1.942  -1.188  0.00  0.00    +0.044 C 
ATOM     14  C   UNL     1      -0.566   0.447  -1.094  0.00  0.00    -0.050 A 
ATOM     15  C   UNL     1      -0.639  -0.327  -2.239  0.00  0.00    +0.004 A 
ATOM     16  C   UNL     1      -0.496  -1.697  -2.160  0.00  0.00    +0.012 A 
ATOM     17  C   UNL     1      -0.276  -2.302  -0.922  0.00  0.00    +0.019 A 
ATOM     18  C   UNL     1      -0.202  -1.516   0.229  0.00  0.00    +0.012 A 
ATOM     19  C   UNL     1      -0.342  -0.147   0.136  0.00  0.00    +0.004 A 
ENDBRANCH   7  17
ENDBRANCH   6  10
ENDBRANCH   5   6
ENDBRANCH   1   5
BRANCH   3  20
ATOM     20  C   UNL     1      -2.469 -10.939  -4.005  0.00  0.00    +0.094 C 
BRANCH  20  21
ATOM     21  C   UNL     1      -3.900 -11.442  -4.206  0.00  0.00    -0.013 C 
BRANCH  21  22
ATOM     22  N   UNL     1      -3.869 -12.756  -4.862  0.00  0.00    +0.386 N 
ATOM     23  C   UNL     1      -5.250 -13.203  -5.145  0.00  0.00    -0.078 C 
ATOM     24  C   UNL     1      -5.222 -14.736  -4.923  0.00  0.00    -0.020 C 
ATOM     25  C   UNL     1      -4.260 -14.861  -3.713  0.00  0.00    -0.020 C 
ATOM     26  C   UNL     1      -3.230 -13.741  -3.971  0.00  0.00    -0.078 C 
ATOM     27  H   UNL     1      -3.352 -12.693  -5.726  0.00  0.00    -0.081 HD
ENDBRANCH  21  22
BRANCH  21  28
ATOM     28  C   UNL     1      -4.659 -10.467  -5.068  0.00  0.00    -0.022 A 
ATOM     29  C   UNL     1      -5.534  -9.501  -4.697  0.00  0.00    +0.009 A 
ATOM     30  C   UNL     1      -6.118  -8.714  -5.672  0.00  0.00    +0.008 A 
ATOM     31  C   UNL     1      -5.798  -8.932  -6.971  0.00  0.00    +0.045 A 
ATOM     32  S   UNL     1      -4.634 -10.280  -6.843  0.00  0.00    -0.103 S 
ENDBRANCH  21  28
ENDBRANCH  20  21
ENDBRANCH   3  20
TORSDOF 8
