REMARK  Name = ZINC39851628
REMARK  11 active torsions:
REMARK  status: ('A' for Active; 'I' for Inactive)
REMARK    1  A    between atoms: C_1  and  C_2
REMARK    2  A    between atoms: C_2  and  C_3
REMARK    3  A    between atoms: C_3  and  N_4
REMARK    4  A    between atoms: C_5  and  N_28
REMARK    5  A    between atoms: C_6  and  C_14
REMARK    6  A    between atoms: C_7  and  C_13
REMARK    7  A    between atoms: C_8  and  C_11
REMARK    8  A    between atoms: N_18  and  C_22
REMARK    9  A    between atoms: N_28  and  C_29
REMARK   10  A    between atoms: C_29  and  C_30
REMARK   11  A    between atoms: C_30  and  C_31
REMARK                            x       y       z     vdW  Elec       q    Type
REMARK                         _______ _______ _______ _____ _____    ______ ____
ROOT
ATOM      1  N   UNL     1       0.780  -1.910   1.371  0.00  0.00    -0.295 N 
ATOM      2  C   UNL     1      -0.295  -2.607   1.821  0.00  0.00    +0.109 A 
ATOM      3  C   UNL     1      -0.185  -3.974   2.123  0.00  0.00    +0.019 A 
ATOM      4  C   UNL     1       1.051  -4.621   1.955  0.00  0.00    -0.017 A 
ATOM      5  C   UNL     1       2.138  -3.885   1.492  0.00  0.00    +0.120 A 
ATOM      6  C   UNL     1       1.973  -2.508   1.197  0.00  0.00    +0.270 A 
ATOM      7  O   UNL     1       2.920  -1.859   0.787  0.00  0.00    -0.266 OA
ATOM      8  C   UNL     1       1.198  -6.087   2.271  0.00  0.00    +0.046 C 
ENDROOT
BRANCH   3   9
ATOM      9  C   UNL     1      -1.348  -4.719   2.609  0.00  0.00    +0.032 C 
ATOM     10  C   UNL     1      -1.894  -5.702   1.843  0.00  0.00    +0.077 C 
ATOM     11  C   UNL     1      -1.498  -6.177   0.555  0.00  0.00    +0.259 C 
ATOM     12  O   UNL     1      -0.543  -5.694  -0.025  0.00  0.00    -0.269 OA
ATOM     13  N   UNL     1      -2.200  -7.157   0.013  0.00  0.00    -0.252 N 
ATOM     14  C   UNL     1      -3.261  -7.693   0.657  0.00  0.00    +0.121 C 
ATOM     15  S   UNL     1      -4.300  -8.954   0.147  0.00  0.00    -0.027 S 
ATOM     16  S   UNL     1      -3.298  -6.757   2.178  0.00  0.00    -0.061 S 
BRANCH  13  17
ATOM     17  C   UNL     1      -1.823  -7.669  -1.307  0.00  0.00    +0.083 C 
ATOM     18  C   UNL     1      -2.990  -7.481  -2.279  0.00  0.00    +0.023 C 
ATOM     19  C   UNL     1      -2.596  -8.016  -3.658  0.00  0.00    +0.002 C 
ATOM     20  C   UNL     1      -2.257  -9.504  -3.549  0.00  0.00    +0.000 C 
ATOM     21  C   UNL     1      -1.091  -9.692  -2.577  0.00  0.00    +0.002 C 
ATOM     22  C   UNL     1      -1.485  -9.157  -1.199  0.00  0.00    +0.023 C 
ENDBRANCH  13  17
ENDBRANCH   3   9
BRANCH   5  23
ATOM     23  C   UNL     1       3.412  -4.515   1.310  0.00  0.00    +0.105 C 
ATOM     24  N   UNL     1       4.422  -5.014   1.166  0.00  0.00    -0.191 NA
ENDBRANCH   5  23
BRANCH   2  25
ATOM     25  N   UNL     1      -1.492  -1.973   1.983  0.00  0.00    -0.330 N 
ATOM     26  H   UNL     1      -2.088  -1.861   1.225  0.00  0.00    +0.147 HD
BRANCH  25  27
ATOM     27  C   UNL     1      -1.879  -1.461   3.300  0.00  0.00    +0.107 C 
BRANCH  27  28
ATOM     28  C   UNL     1      -3.305  -0.911   3.235  0.00  0.00    +0.054 C 
BRANCH  28  29
ATOM     29  C   UNL     1      -3.703  -0.385   4.590  0.00  0.00    -0.046 A 
ATOM     30  C   UNL     1      -4.309  -1.223   5.507  0.00  0.00    +0.004 A 
ATOM     31  C   UNL     1      -4.673  -0.740   6.750  0.00  0.00    +0.000 A 
ATOM     32  C   UNL     1      -4.432   0.581   7.076  0.00  0.00    +0.000 A 
ATOM     33  C   UNL     1      -3.825   1.419   6.159  0.00  0.00    +0.000 A 
ATOM     34  C   UNL     1      -3.456   0.935   4.918  0.00  0.00    +0.004 A 
ENDBRANCH  28  29
ENDBRANCH  27  28
ENDBRANCH  25  27
ENDBRANCH   2  25
BRANCH   1  35
ATOM     35  C   UNL     1       0.638  -0.485   1.065  0.00  0.00    +0.126 C 
BRANCH  35  37
ATOM     36  C   UNL     1      -0.154   1.161  -0.640  0.00  0.00    +0.005 C 
ATOM     37  C   UNL     1       0.112  -0.320  -0.362  0.00  0.00    +0.018 C 
ENDBRANCH  35  37
ENDBRANCH   1  35
TORSDOF 9
