REMARK  Name = ZINC19287981
REMARK  7 active torsions:
REMARK  status: ('A' for Active; 'I' for Inactive)
REMARK    1  A    between atoms: C_1  and  C_2
REMARK    2  A    between atoms: N_6  and  C_7
REMARK    3  A    between atoms: C_7  and  C_8
REMARK    4  A    between atoms: C_8  and  O_28
REMARK    5  A    between atoms: N_11  and  C_14
REMARK    6  A    between atoms: C_14  and  C_15
REMARK    7  A    between atoms: C_18  and  N_22
REMARK                            x       y       z     vdW  Elec       q    Type
REMARK                         _______ _______ _______ _____ _____    ______ ____
ROOT
ATOM      1  C   UNL     1       1.592   5.303   0.965  0.00  0.00    +0.081 C 
ATOM      2  C   UNL     1       0.122   5.325   1.393  0.00  0.00    +0.018 C 
ATOM      3  C   UNL     1       0.000   6.026   2.747  0.00  0.00    -0.076 C 
ATOM      4  N   UNL     1       0.519   7.396   2.641  0.00  0.00    +0.383 N 
ATOM      5  C   UNL     1       1.942   7.398   2.278  0.00  0.00    -0.076 C 
ATOM      6  C   UNL     1       2.122   6.739   0.909  0.00  0.00    +0.018 C 
ATOM      7  H   UNL     1      -0.033   7.902   1.835  0.00  0.00    -0.081 HD
ENDROOT
BRANCH   1   8
ATOM      8  O   UNL     1       2.354   4.550   1.911  0.00  0.00    -0.387 OA
ATOM      9  H   UNL     1       2.387   4.864   2.965  0.00  0.00    +0.210 HD
ENDBRANCH   1   8
BRANCH   1  10
ATOM     10  C   UNL     1       1.713   4.659  -0.417  0.00  0.00    +0.157 C 
BRANCH  10  16
ATOM     11  C   UNL     1       3.394   2.178   0.371  0.00  0.00    +0.084 C 
ATOM     12  C   UNL     1       1.938   2.188  -0.018  0.00  0.00    +0.084 A 
ATOM     13  N   UNL     1       1.159   1.142  -0.075  0.00  0.00    -0.350 N 
ATOM     14  C   UNL     1      -0.068   1.525  -0.460  0.00  0.00    +0.101 A 
ATOM     15  C   UNL     1      -0.051   2.860  -0.639  0.00  0.00    +0.105 A 
ATOM     16  N   UNL     1       1.221   3.281  -0.358  0.00  0.00    -0.333 N 
ATOM     17  H   UNL     1       1.555   0.147   0.175  0.00  0.00    +0.166 HD
ENDBRANCH  10  16
ENDBRANCH   1  10
BRANCH   4  18
ATOM     18  C   UNL     1       0.292   8.143   3.885  0.00  0.00    -0.040 C 
BRANCH  18  19
ATOM     19  C   UNL     1      -1.189   8.330   4.095  0.00  0.00    -0.029 A 
ATOM     20  C   UNL     1      -1.852   7.575   5.045  0.00  0.00    +0.006 A 
ATOM     21  C   UNL     1      -3.208   7.744   5.240  0.00  0.00    +0.023 A 
ATOM     22  C   UNL     1      -3.909   8.674   4.482  0.00  0.00    +0.032 A 
ATOM     23  C   UNL     1      -3.242   9.432   3.529  0.00  0.00    +0.061 A 
ATOM     24  C   UNL     1      -1.882   9.263   3.341  0.00  0.00    +0.126 A 
ATOM     25  F   UNL     1      -1.230  10.003   2.418  0.00  0.00    -0.205 F 
BRANCH  22  26
ATOM     26  N   UNL     1      -5.281   8.845   4.678  0.00  0.00    -0.330 N 
ATOM     27  C   UNL     1      -5.998   7.574   4.519  0.00  0.00    +0.105 C 
ATOM     28  C   UNL     1      -7.472   7.770   4.882  0.00  0.00    +0.019 C 
ATOM     29  C   UNL     1      -8.080   8.837   3.969  0.00  0.00    +0.003 C 
ATOM     30  C   UNL     1      -7.285  10.137   4.116  0.00  0.00    +0.019 C 
ATOM     31  C   UNL     1      -5.817   9.873   3.776  0.00  0.00    +0.105 C 
ENDBRANCH  22  26
ENDBRANCH  18  19
ENDBRANCH   4  18
TORSDOF 6
