REMARK  Name = ZINC35363846
REMARK  14 active torsions:
REMARK  status: ('A' for Active; 'I' for Inactive)
REMARK    1  A    between atoms: C_1  and  C_2
REMARK    2  A    between atoms: C_13  and  C_14
REMARK    3  A    between atoms: C_13  and  O_15
REMARK    4  A    between atoms: N_21  and  O_22
REMARK    5  A    between atoms: O_22  and  C_23
REMARK    6  A    between atoms: C_23  and  C_24
REMARK    7  A    between atoms: N_26  and  C_27
REMARK    8  A    between atoms: C_27  and  C_28
REMARK    9  A    between atoms: C_28  and  C_29
REMARK   10  A    between atoms: C_28  and  C_30
REMARK   11  A    between atoms: C_28  and  C_31
REMARK   12  A    between atoms: C_31  and  C_33
REMARK   13  A    between atoms: C_31  and  O_36
REMARK   14  A    between atoms: C_39  and  C_40
REMARK                            x       y       z     vdW  Elec       q    Type
REMARK                         _______ _______ _______ _____ _____    ______ ____
ROOT
ATOM      1  C   UNL     1      -0.019   1.532   0.011  0.00  0.00    +0.014 C 
ATOM      2  C   UNL     1       0.002  -0.004   0.002  0.00  0.00    -0.000 C 
ATOM      3  C   UNL     1      -1.396  -0.548   0.038  0.00  0.00    +0.010 C 
ATOM      4  C   UNL     1      -2.013  -0.462   1.440  0.00  0.00    +0.005 C 
ATOM      5  C   UNL     1      -1.151   0.271   2.440  0.00  0.00    +0.006 C 
ATOM      6  C   UNL     1       0.277  -0.255   2.509  0.00  0.00    -0.003 C 
ATOM      7  C   UNL     1       0.841  -0.576   1.162  0.00  0.00    +0.001 C 
ATOM      8  C   UNL     1       2.243  -0.048   0.831  0.00  0.00    +0.007 C 
ATOM      9  C   UNL     1       2.317  -0.166  -0.714  0.00  0.00    +0.035 C 
ATOM     10  C   UNL     1       0.866  -0.393  -1.213  0.00  0.00    +0.069 C 
ATOM     11  C   UNL     1       0.670  -1.849  -1.613  0.00  0.00    +0.042 C 
ATOM     12  C   UNL     1       1.098   0.769   3.298  0.00  0.00    +0.008 C 
ATOM     13  C   UNL     1       0.697   0.655   4.769  0.00  0.00    +0.032 C 
ATOM     14  C   UNL     1      -0.759   0.301   4.936  0.00  0.00    -0.058 C 
ATOM     15  C   UNL     1      -1.154  -0.013   6.180  0.00  0.00    +0.031 C 
ATOM     16  C   UNL     1      -2.561  -0.420   6.416  0.00  0.00    +0.102 C 
ATOM     17  N   UNL     1      -3.088  -0.395   7.621  0.00  0.00    -0.085 NA
ATOM     18  C   UNL     1      -3.347  -0.887   5.245  0.00  0.00    +0.027 C 
ATOM     19  C   UNL     1      -2.944  -0.545   4.018  0.00  0.00    -0.014 C 
ATOM     20  C   UNL     1      -1.752   0.328   3.829  0.00  0.00    +0.011 C 
ATOM     21  C   UNL     1      -2.323   1.755   3.889  0.00  0.00    +0.020 C 
ENDROOT
BRANCH  10  22
ATOM     22  O   UNL     1       0.576   0.476  -2.303  0.00  0.00    -0.388 OA
ATOM     23  H   UNL     1       1.085   0.288  -3.103  0.00  0.00    +0.210 HD
ENDBRANCH  10  22
BRANCH  17  24
ATOM     24  O   UNL     1      -4.434  -0.789   7.813  0.00  0.00    -0.384 OA
BRANCH  24  25
ATOM     25  C   UNL     1      -4.874  -0.713   9.171  0.00  0.00    +0.358 C 
BRANCH  25  26
ATOM     26  C   UNL     1      -6.313  -1.153   9.258  0.00  0.00    +0.253 C 
ATOM     27  O   UNL     1      -6.903  -1.499   8.257  0.00  0.00    -0.272 OA
ATOM     28  N   UNL     1      -6.943  -1.163  10.449  0.00  0.00    -0.312 N 
ATOM     29  H   UNL     1      -6.471  -0.887  11.250  0.00  0.00    +0.149 HD
BRANCH  28  30
ATOM     30  C   UNL     1      -8.342  -1.592  10.534  0.00  0.00    +0.113 C 
BRANCH  30  31
ATOM     31  C   UNL     1      -8.813  -1.510  11.988  0.00  0.00    +0.017 C 
ATOM     32  C   UNL     1      -7.946  -2.422  12.857  0.00  0.00    +0.015 C 
ATOM     33  C   UNL     1      -8.690  -0.067  12.483  0.00  0.00    +0.015 C 
BRANCH  31  34
ATOM     34  C   UNL     1     -10.273  -1.957  12.077  0.00  0.00    +0.234 C 
BRANCH  34  35
ATOM     35  C   UNL     1     -10.737  -1.876  13.508  0.00  0.00    +0.384 C 
ATOM     36  O   UNL     1     -11.613  -1.088  13.821  0.00  0.00    -0.243 OA
ATOM     37  O   UNL     1     -10.236  -2.598  14.353  0.00  0.00    -0.243 OA
ENDBRANCH  34  35
BRANCH  34  38
ATOM     38  O   UNL     1     -11.083  -1.104  11.264  0.00  0.00    -0.380 OA
ATOM     39  H   UNL     1     -11.054  -0.173  11.522  0.00  0.00    +0.211 HD
ENDBRANCH  34  38
ENDBRANCH  31  34
ENDBRANCH  30  31
ENDBRANCH  28  30
ENDBRANCH  25  26
ENDBRANCH  24  25
ENDBRANCH  17  24
TORSDOF 9
