REMARK  Name = ZINC13609216
REMARK  12 active torsions:
REMARK  status: ('A' for Active; 'I' for Inactive)
REMARK    1  A    between atoms: CD1_1  and  CG1_2
REMARK    2  A    between atoms: CG1_2  and  CB_3
REMARK    3  A    between atoms: CB_3  and  CG2_5
REMARK    4  A    between atoms: CB_3  and  CA_6
REMARK    5  A    between atoms: CA_6  and  C_8
REMARK    6  A    between atoms: CA_6  and  N_10
REMARK    7  A    between atoms: C_8  and  O_9
REMARK    8  A    between atoms: C_11  and  C_13
REMARK    9  A    between atoms: C_13  and  C_14
REMARK   10  A    between atoms: C_14  and  C_15
REMARK   11  A    between atoms: C_16  and  C_34
REMARK   12  A    between atoms: C_24  and  C_29
REMARK                            x       y       z     vdW  Elec       q    Type
REMARK                         _______ _______ _______ _____ _____    ______ ____
ROOT
ATOM      1  C   UNK A   0       1.627   2.350   9.610  0.00  0.00    +0.041 A 
ATOM      2  C   UNK A   0       0.981   1.673  10.593  0.00  0.00    -0.030 A 
ATOM      3  C   UNK A   0       1.757   1.278  11.774  0.00  0.00    +0.022 A 
ATOM      4  C   UNK A   0       1.155   0.576  12.818  0.00  0.00    +0.023 A 
ATOM      5  C   UNK A   0       1.911   0.220  13.926  0.00  0.00    +0.025 A 
ATOM      6  C   UNK A   0       1.632  -0.494  15.173  0.00  0.00    +0.001 A 
ATOM      7  C   UNK A   0       2.783  -0.526  15.864  0.00  0.00    +0.109 A 
ATOM      8  O   UNK A   0       3.750   0.096  15.170  0.00  0.00    -0.459 OA
ATOM      9  C   UNK A   0       3.278   0.566  13.995  0.00  0.00    +0.142 A 
ATOM     10  C   UNK A   0       3.868   1.264  12.953  0.00  0.00    +0.035 A 
ATOM     11  C   UNK A   0       3.122   1.625  11.842  0.00  0.00    +0.146 A 
ATOM     12  O   UNK A   0       3.705   2.304  10.833  0.00  0.00    -0.422 OA
ATOM     13  C   UNK A   0       2.995   2.656   9.757  0.00  0.00    +0.341 A 
ATOM     14  O   UNK A   0       3.554   3.269   8.866  0.00  0.00    -0.245 OA
ATOM     15  C   UNK A   0       5.327   1.632  13.029  0.00  0.00    +0.051 C 
ATOM     16  C   UNK A   0       2.922  -1.176  17.223  0.00  0.00    +0.075 C 
ATOM     17  C   UNK A   0       1.522  -1.374  17.814  0.00  0.00    +0.008 C 
ATOM     18  C   UNK A   0       0.625  -2.066  16.784  0.00  0.00    +0.005 C 
ATOM     19  C   UNK A   0       0.331  -1.093  15.634  0.00  0.00    +0.039 C 
ATOM     20  C   UNK A   0      -0.482   1.332  10.474  0.00  0.00    +0.045 C 
ENDROOT
BRANCH   1  21
ATOM     21  C   UNK A   0       0.884   2.778   8.371  0.00  0.00    +0.052 C 
BRANCH  21  22
ATOM     22  C   UNK A   0       0.980   1.677   7.313  0.00  0.00    +0.100 C 
BRANCH  22  24
ATOM     23  N   ILE A   1       0.186   1.288   5.002  0.00  0.00    -0.310 N 
ATOM     24  C   UNK A   0       0.237   2.105   6.073  0.00  0.00    +0.214 C 
ATOM     25  O   UNK A   0      -0.314   3.185   6.040  0.00  0.00    -0.276 OA
ATOM     26  H   ILE A   1       0.628   0.425   5.029  0.00  0.00    +0.149 HD
BRANCH  23  27
ATOM     27  CA  ILE A   1      -0.536   1.705   3.797  0.00  0.00    +0.101 C 
BRANCH  27  28
ATOM     28  CB  ILE A   1       0.038   0.974   2.582  0.00  0.00    +0.008 C 
ATOM     29  CG2 ILE A   1      -0.654   1.476   1.312  0.00  0.00    +0.009 C 
BRANCH  28  31
ATOM     30  CD1 ILE A   1       2.136   0.418   1.345  0.00  0.00    +0.004 C 
ATOM     31  CG1 ILE A   1       1.540   1.246   2.485  0.00  0.00    +0.002 C 
ENDBRANCH  28  31
ENDBRANCH  27  28
BRANCH  27  32
ATOM     32  C   ILE A   1      -2.019   1.360   3.947  0.00  0.00    +0.178 C 
BRANCH  32  33
ATOM     33  O   ILE A   1      -2.174  -0.059   4.010  0.00  0.00    -0.393 OA
ATOM     34  H   ILE A   1      -3.091  -0.351   4.105  0.00  0.00    +0.209 HD
ENDBRANCH  32  33
ENDBRANCH  27  32
ENDBRANCH  23  27
ENDBRANCH  22  24
ENDBRANCH  21  22
ENDBRANCH   1  21
TORSDOF 8
