REMARK  Name = ZINC20432626
REMARK  3 active torsions:
REMARK  status: ('A' for Active; 'I' for Inactive)
REMARK    1  A    between atoms: C_2  and  S_9
REMARK    2  A    between atoms: S_9  and  N_12
REMARK    3  A    between atoms: C_16  and  N_19
REMARK                            x       y       z     vdW  Elec       q    Type
REMARK                         _______ _______ _______ _____ _____    ______ ____
ROOT
ATOM      1  S   UNL     1       2.663   4.723   0.002  0.00  0.00    +0.061 S 
ATOM      2  O   UNL     1       2.380   5.998   0.561  0.00  0.00    -0.153 OA
ATOM      3  O   UNL     1       3.654   3.858   0.539  0.00  0.00    -0.153 OA
ENDROOT
BRANCH   1   5
ATOM      4  C   UNL     1       1.167   2.440   0.004  0.00  0.00    +0.048 A 
ATOM      5  C   UNL     1       1.149   3.822   0.011  0.00  0.00    +0.108 A 
ATOM      6  C   UNL     1      -0.057   4.497   0.026  0.00  0.00    +0.048 A 
ATOM      7  C   UNL     1      -1.247   3.790   0.033  0.00  0.00    +0.044 A 
ATOM      8  C   UNL     1      -1.229   2.407   0.021  0.00  0.00    +0.040 A 
ATOM      9  C   UNL     1      -0.021   1.732   0.012  0.00  0.00    +0.044 A 
ATOM     10 CL   UNL     1       0.002  -0.004   0.002  0.00  0.00    -0.083 Cl
ATOM     11 CL   UNL     1      -2.761   4.639   0.051  0.00  0.00    -0.083 Cl
ENDBRANCH   1   5
BRANCH   1  12
ATOM     12  N   UNL     1       3.069   4.981  -1.583  0.00  0.00    -0.178 NA
ATOM     13  C   UNL     1       2.606   6.185  -2.288  0.00  0.00    +0.109 C 
ATOM     14  C   UNL     1       1.895   5.758  -3.576  0.00  0.00    +0.016 C 
ATOM     15  C   UNL     1       2.829   4.869  -4.399  0.00  0.00    -0.014 C 
ATOM     16  C   UNL     1       3.174   3.610  -3.599  0.00  0.00    -0.059 C 
ATOM     17  C   UNL     1       3.904   4.015  -2.309  0.00  0.00    +0.093 C 
BRANCH  16  18
ATOM     18  N   UNL     1       4.045   2.742  -4.402  0.00  0.00    +0.381 N 
ATOM     19  H   UNL     1       4.293   1.838  -3.826  0.00  0.00    -0.090 HD
ATOM     20  H   UNL     1       4.970   3.282  -4.652  0.00  0.00    -0.090 HD
ATOM     21  H   UNL     1       3.525   2.456  -5.328  0.00  0.00    -0.090 HD
ENDBRANCH  16  18
ENDBRANCH   1  12
TORSDOF 3
