REMARK  Name = ZINC07884634
REMARK  7 active torsions:
REMARK  status: ('A' for Active; 'I' for Inactive)
REMARK    1  A    between atoms: C_1  and  O_2
REMARK    2  A    between atoms: O_2  and  C_3
REMARK    3  A    between atoms: C_5  and  C_10
REMARK    4  A    between atoms: C_8  and  O_9
REMARK    5  A    between atoms: N_21  and  C_22
REMARK    6  A    between atoms: C_22  and  C_23
REMARK    7  A    between atoms: C_23  and  C_24
REMARK                            x       y       z     vdW  Elec       q    Type
REMARK                         _______ _______ _______ _____ _____    ______ ____
ROOT
ATOM      1  C   UNL     1      -1.206   1.681  -0.010  0.00  0.00    +0.193 C 
ATOM      2  N   UNL     1       0.043   0.931   0.168  0.00  0.00    -0.321 N 
ATOM      3  C   UNL     1       1.236   1.640   0.260  0.00  0.00    +0.041 A 
ATOM      4  C   UNL     1       2.439   1.109  -0.171  0.00  0.00    +0.024 A 
ATOM      5  C   UNL     1       3.595   1.858  -0.060  0.00  0.00    +0.002 A 
ATOM      6  C   UNL     1       3.559   3.135   0.478  0.00  0.00    +0.001 A 
ATOM      7  C   UNL     1       2.368   3.678   0.913  0.00  0.00    +0.015 A 
ATOM      8  C   UNL     1       1.196   2.934   0.809  0.00  0.00    +0.058 A 
ATOM      9  C   UNL     1      -0.102   3.463   1.266  0.00  0.00    +0.250 C 
ATOM     10  O   UNL     1      -0.150   4.457   1.965  0.00  0.00    -0.270 OA
ATOM     11  N   UNL     1      -1.237   2.831   0.900  0.00  0.00    -0.275 N 
ATOM     12  H   UNL     1       0.037  -0.037   0.216  0.00  0.00    +0.148 HD
ENDROOT
BRANCH   1  15
ATOM     13  C   UNL     1      -0.898   1.821  -3.773  0.00  0.00    +0.162 A 
ATOM     14  C   UNL     1      -0.813   1.379  -2.463  0.00  0.00    +0.056 A 
ATOM     15  C   UNL     1      -1.300   2.164  -1.435  0.00  0.00    -0.006 A 
ATOM     16  C   UNL     1      -1.877   3.390  -1.711  0.00  0.00    +0.011 A 
ATOM     17  C   UNL     1      -1.960   3.840  -3.016  0.00  0.00    +0.049 A 
ATOM     18  C   UNL     1      -1.474   3.057  -4.051  0.00  0.00    +0.158 A 
BRANCH  13  20
ATOM     19  C   UNL     1       0.158  -0.207  -4.426  0.00  0.00    +0.277 C 
ATOM     20  O   UNL     1      -0.420   1.050  -4.785  0.00  0.00    -0.491 OA
ENDBRANCH  13  20
BRANCH  18  21
ATOM     21  O   UNL     1      -1.560   3.496  -5.335  0.00  0.00    -0.503 OA
ATOM     22  H   UNL     1      -2.376   3.236  -5.785  0.00  0.00    +0.292 HD
ENDBRANCH  18  21
ENDBRANCH   1  15
BRANCH  11  23
ATOM     23  C   UNL     1      -2.523   3.305   1.419  0.00  0.00    +0.115 C 
BRANCH  23  24
ATOM     24  C   UNL     1      -2.895   2.504   2.668  0.00  0.00    +0.054 C 
BRANCH  24  25
ATOM     25  C   UNL     1      -4.271   2.906   3.131  0.00  0.00    -0.046 A 
ATOM     26  C   UNL     1      -4.421   3.939   4.037  0.00  0.00    +0.004 A 
ATOM     27  C   UNL     1      -5.684   4.311   4.459  0.00  0.00    +0.000 A 
ATOM     28  C   UNL     1      -6.797   3.643   3.981  0.00  0.00    +0.000 A 
ATOM     29  C   UNL     1      -6.646   2.607   3.078  0.00  0.00    +0.000 A 
ATOM     30  C   UNL     1      -5.384   2.238   2.654  0.00  0.00    +0.004 A 
ENDBRANCH  24  25
ENDBRANCH  23  24
ENDBRANCH  11  23
TORSDOF 6
