REMARK  Name = ZINC13108861
REMARK  13 active torsions:
REMARK  status: ('A' for Active; 'I' for Inactive)
REMARK    1  A    between atoms: C_1  and  C_2
REMARK    2  A    between atoms: C_2  and  C_26
REMARK    3  A    between atoms: C_3  and  C_4
REMARK    4  A    between atoms: C_4  and  C_5
REMARK    5  A    between atoms: C_6  and  O_25
REMARK    6  A    between atoms: C_8  and  O_23
REMARK    7  A    between atoms: C_9  and  C_12
REMARK    8  A    between atoms: C_10  and  O_11
REMARK    9  A    between atoms: C_12  and  C_14
REMARK   10  A    between atoms: C_14  and  C_15
REMARK   11  A    between atoms: C_15  and  C_16
REMARK   12  A    between atoms: C_19  and  O_22
REMARK   13  A    between atoms: O_23  and  C_24
REMARK                            x       y       z     vdW  Elec       q    Type
REMARK                         _______ _______ _______ _____ _____    ______ ____
ROOT
ATOM      1  C   UNL     1      -0.864  -0.562   3.381  0.00  0.00    +0.040 A 
ATOM      2  C   UNL     1      -2.185  -0.130   3.398  0.00  0.00    +0.127 A 
ATOM      3  C   UNL     1      -3.104  -0.713   4.261  0.00  0.00    +0.092 A 
ATOM      4  C   UNL     1      -2.712  -1.729   5.112  0.00  0.00    +0.138 A 
ATOM      5  C   UNL     1      -1.377  -2.174   5.102  0.00  0.00    +0.101 A 
ATOM      6  C   UNL     1      -0.454  -1.581   4.220  0.00  0.00    +0.138 A 
ENDROOT
BRANCH   6   7
ATOM      7  O   UNL     1       0.834  -2.004   4.197  0.00  0.00    -0.506 OA
ATOM      8  H   UNL     1       1.413  -1.532   4.811  0.00  0.00    +0.292 HD
ENDBRANCH   6   7
BRANCH   5   9
ATOM      9  C   UNL     1      -0.953  -3.247   5.998  0.00  0.00    +0.171 C 
ATOM     10  O   UNL     1       0.200  -3.627   5.986  0.00  0.00    -0.292 OA
BRANCH   9  11
ATOM     11  C   UNL     1      -1.946  -3.882   6.937  0.00  0.00    +0.084 C 
BRANCH  11  12
ATOM     12  C   UNL     1      -1.249  -4.969   7.758  0.00  0.00    +0.043 C 
BRANCH  12  13
ATOM     13  C   UNL     1      -2.242  -5.604   8.697  0.00  0.00    -0.047 A 
ATOM     14  C   UNL     1      -2.425  -5.081   9.964  0.00  0.00    +0.007 A 
ATOM     15  C   UNL     1      -3.334  -5.661  10.827  0.00  0.00    +0.045 A 
ATOM     16  C   UNL     1      -4.065  -6.769  10.421  0.00  0.00    +0.117 A 
ATOM     17  C   UNL     1      -3.880  -7.291   9.149  0.00  0.00    +0.045 A 
ATOM     18  C   UNL     1      -2.973  -6.704   8.288  0.00  0.00    +0.007 A 
BRANCH  16  19
ATOM     19  O   UNL     1      -4.960  -7.342  11.268  0.00  0.00    -0.507 OA
ATOM     20  H   UNL     1      -5.853  -6.976  11.204  0.00  0.00    +0.292 HD
ENDBRANCH  16  19
ENDBRANCH  12  13
ENDBRANCH  11  12
ENDBRANCH   9  11
ENDBRANCH   5   9
BRANCH   4  21
ATOM     21  O   UNL     1      -3.612  -2.295   5.955  0.00  0.00    -0.494 OA
ATOM     22  C   UNL     1      -4.949  -1.793   5.910  0.00  0.00    +0.277 C 
ENDBRANCH   4  21
BRANCH   2  23
ATOM     23  O   UNL     1      -2.579   0.867   2.567  0.00  0.00    -0.506 OA
ATOM     24  H   UNL     1      -2.896   0.559   1.706  0.00  0.00    +0.292 HD
ENDBRANCH   2  23
BRANCH   1  25
ATOM     25  C   UNL     1       0.123   0.078   2.439  0.00  0.00    +0.069 C 
BRANCH  25  28
ATOM     26  C   UNL     1      -0.164   1.492   0.017  0.00  0.00    +0.038 C 
ATOM     27  C   UNL     1      -0.067  -0.012   0.007  0.00  0.00    -0.079 C 
ATOM     28  C   UNL     1       0.121  -0.664   1.128  0.00  0.00    -0.023 C 
ATOM     29  C   UNL     1      -0.186  -0.766  -1.292  0.00  0.00    +0.038 C 
ENDBRANCH  25  28
ENDBRANCH   1  25
TORSDOF 10
