REMARK  Name = ZINC35543563
REMARK  9 active torsions:
REMARK  status: ('A' for Active; 'I' for Inactive)
REMARK    1  A    between atoms: C_1  and  C_2
REMARK    2  A    between atoms: C_2  and  C_4
REMARK    3  A    between atoms: C_2  and  N_10
REMARK    4  A    between atoms: C_11  and  C_13
REMARK    5  A    between atoms: N_26  and  C_29
REMARK    6  A    between atoms: C_29  and  C_30
REMARK    7  A    between atoms: N_32  and  C_33
REMARK    8  A    between atoms: C_33  and  C_34
REMARK    9  A    between atoms: C_33  and  C_35
REMARK                            x       y       z     vdW  Elec       q    Type
REMARK                         _______ _______ _______ _____ _____    ______ ____
ROOT
ATOM      1  C   UNL     1       0.780  -1.133   3.576  0.00  0.00    +0.098 C 
ATOM      2  C   UNL     1       1.923  -0.176   3.914  0.00  0.00    +0.051 C 
ATOM      3  C   UNL     1       1.356   1.159   4.322  0.00  0.00    -0.026 A 
ATOM      4  C   UNL     1       2.123   2.299   4.157  0.00  0.00    +0.005 A 
ATOM      5  C   UNL     1       1.620   3.533   4.522  0.00  0.00    +0.000 A 
ATOM      6  C   UNL     1       0.347   3.633   5.054  0.00  0.00    +0.002 A 
ATOM      7  C   UNL     1      -0.422   2.500   5.223  0.00  0.00    +0.023 A 
ATOM      8  C   UNL     1       0.083   1.256   4.856  0.00  0.00    +0.033 A 
ATOM      9  N   UNL     1      -0.721   0.120   5.046  0.00  0.00    -0.329 N 
ATOM     10  C   UNL     1      -0.193  -1.204   4.759  0.00  0.00    +0.069 C 
ATOM     11  C   UNL     1      -1.270  -2.231   4.448  0.00  0.00    -0.055 C 
ATOM     12  N   UNL     1      -2.455  -2.052   5.285  0.00  0.00    +0.388 N 
ATOM     13  C   UNL     1      -3.030  -0.725   5.019  0.00  0.00    -0.059 C 
ATOM     14  C   UNL     1      -2.074   0.333   5.566  0.00  0.00    +0.087 C 
ATOM     15  H   UNL     1      -2.195  -2.119   6.258  0.00  0.00    -0.081 HD
ENDROOT
BRANCH   1  17
ATOM     16  N   UNL     1       0.711  -0.489   1.189  0.00  0.00    -0.308 N 
ATOM     17  C   UNL     1       0.051  -0.633   2.355  0.00  0.00    +0.219 C 
ATOM     18  O   UNL     1      -1.129  -0.361   2.423  0.00  0.00    -0.275 OA
ATOM     19  H   UNL     1       1.654  -0.707   1.135  0.00  0.00    +0.149 HD
BRANCH  16  21
ATOM     20  C   UNL     1      -0.019   1.526   0.010  0.00  0.00    +0.033 C 
ATOM     21  C   UNL     1       0.002  -0.004   0.002  0.00  0.00    +0.100 C 
BRANCH  21  22
ATOM     22  C   UNL     1       0.707  -0.490  -1.238  0.00  0.00    -0.027 A 
ATOM     23  C   UNL     1       2.089  -0.511  -1.284  0.00  0.00    +0.005 A 
ATOM     24  C   UNL     1       2.736  -0.957  -2.421  0.00  0.00    +0.000 A 
ATOM     25  C   UNL     1       2.002  -1.382  -3.512  0.00  0.00    +0.000 A 
ATOM     26  C   UNL     1       0.620  -1.362  -3.466  0.00  0.00    +0.000 A 
ATOM     27  C   UNL     1      -0.027  -0.920  -2.327  0.00  0.00    +0.005 A 
ENDBRANCH  21  22
ENDBRANCH  16  21
ENDBRANCH   1  17
BRANCH  12  28
ATOM     28  C   UNL     1      -3.445  -3.090   4.966  0.00  0.00    +0.019 C 
BRANCH  28  29
ATOM     29  C   UNL     1      -4.612  -2.979   5.912  0.00  0.00    +0.197 C 
ATOM     30  O   UNL     1      -4.619  -2.121   6.769  0.00  0.00    -0.278 OA
ATOM     31  N   UNL     1      -5.648  -3.835   5.807  0.00  0.00    -0.315 N 
ATOM     32  H   UNL     1      -5.643  -4.521   5.122  0.00  0.00    +0.149 HD
BRANCH  31  33
ATOM     33  C   UNL     1      -6.783  -3.727   6.727  0.00  0.00    +0.067 C 
ATOM     34  C   UNL     1      -7.775  -2.691   6.195  0.00  0.00    +0.027 C 
ATOM     35  C   UNL     1      -7.478  -5.086   6.841  0.00  0.00    +0.027 C 
ENDBRANCH  31  33
ENDBRANCH  28  29
ENDBRANCH  12  28
TORSDOF 6
