REMARK  Name = ZINC41413944
REMARK  4 active torsions:
REMARK  status: ('A' for Active; 'I' for Inactive)
REMARK    1  A    between atoms: C_6  and  N_7
REMARK    2  A    between atoms: C_8  and  C_15
REMARK    3  A    between atoms: C_10  and  C_12
REMARK    4  A    between atoms: C_12  and  C_13
REMARK                            x       y       z     vdW  Elec       q    Type
REMARK                         _______ _______ _______ _____ _____    ______ ____
ROOT
ATOM      1  N   UNL     1      -1.202  -0.723   0.010  0.00  0.00    -0.236 N 
ATOM      2  C   UNL     1      -1.432  -1.899  -0.617  0.00  0.00    +0.048 A 
ATOM      3  C   UNL     1      -2.712  -2.257  -0.363  0.00  0.00    +0.049 A 
ATOM      4  C   UNL     1      -3.284  -1.269   0.445  0.00  0.00    +0.077 A 
ATOM      5  N   UNL     1      -2.379  -0.352   0.674  0.00  0.00    -0.170 NA
ENDROOT
BRANCH   1  11
ATOM      6  C   UNL     1      -0.017   1.384   0.010  0.00  0.00    +0.031 A 
ATOM      7  C   UNL     1       1.170   2.090   0.002  0.00  0.00    +0.042 A 
ATOM      8  C   UNL     1       2.379   1.415  -0.013  0.00  0.00    +0.142 A 
ATOM      9  C   UNL     1       2.400   0.029  -0.021  0.00  0.00    +0.078 A 
ATOM     10  C   UNL     1       1.215  -0.680  -0.013  0.00  0.00    +0.050 A 
ATOM     11  C   UNL     1       0.002  -0.004   0.002  0.00  0.00    +0.067 A 
ATOM     12 CL   UNL     1       3.917  -0.815  -0.041  0.00  0.00    -0.081 Cl
ATOM     13  F   UNL     1       3.539   2.108  -0.022  0.00  0.00    -0.204 F 
ENDBRANCH   1  11
BRANCH   2  14
ATOM     14  C   UNL     1      -0.440  -2.671  -1.448  0.00  0.00    +0.038 C 
ATOM     15  C   UNL     1      -0.981  -3.456  -2.644  0.00  0.00    +0.010 C 
ATOM     16  C   UNL     1      -0.509  -4.198  -1.392  0.00  0.00    +0.010 C 
ENDBRANCH   2  14
BRANCH   4  17
ATOM     17  C   UNL     1      -4.698  -1.264   0.966  0.00  0.00    +0.175 C 
BRANCH  17  18
ATOM     18  C   UNL     1      -4.680  -1.131   2.432  0.00  0.00    +0.069 C 
ATOM     19  N   UNL     1      -4.666  -1.029   3.563  0.00  0.00    -0.196 NA
ENDBRANCH  17  18
ENDBRANCH   4  17
TORSDOF 4
