REMARK  Name = ZINC33812673
REMARK  12 active torsions:
REMARK  status: ('A' for Active; 'I' for Inactive)
REMARK    1  A    between atoms: C_1  and  C_2
REMARK    2  A    between atoms: C_2  and  C_3
REMARK    3  A    between atoms: C_3  and  C_4
REMARK    4  A    between atoms: C_4  and  N_5
REMARK    5  A    between atoms: C_6  and  N_30
REMARK    6  A    between atoms: C_7  and  C_15
REMARK    7  A    between atoms: C_8  and  C_14
REMARK    8  A    between atoms: C_9  and  C_12
REMARK    9  A    between atoms: N_19  and  C_23
REMARK   10  A    between atoms: C_23  and  C_24
REMARK   11  A    between atoms: N_33  and  C_36
REMARK   12  A    between atoms: C_36  and  C_37
REMARK                            x       y       z     vdW  Elec       q    Type
REMARK                         _______ _______ _______ _____ _____    ______ ____
ROOT
ATOM      1  N   UNL     1       1.877  -2.406  -2.511  0.00  0.00    -0.295 N 
ATOM      2  C   UNL     1       1.039  -2.675  -3.545  0.00  0.00    +0.112 A 
ATOM      3  C   UNL     1       1.453  -3.500  -4.603  0.00  0.00    +0.019 A 
ATOM      4  C   UNL     1       2.747  -4.049  -4.586  0.00  0.00    -0.017 A 
ATOM      5  C   UNL     1       3.587  -3.759  -3.515  0.00  0.00    +0.120 A 
ATOM      6  C   UNL     1       3.122  -2.915  -2.474  0.00  0.00    +0.270 A 
ATOM      7  O   UNL     1       3.854  -2.653  -1.535  0.00  0.00    -0.266 OA
ATOM      8  C   UNL     1       3.216  -4.938  -5.708  0.00  0.00    +0.046 C 
ENDROOT
BRANCH   3   9
ATOM      9  C   UNL     1       0.545  -3.786  -5.715  0.00  0.00    +0.032 C 
ATOM     10  C   UNL     1       0.842  -3.345  -6.968  0.00  0.00    +0.077 C 
ATOM     11  C   UNL     1       0.137  -3.546  -8.193  0.00  0.00    +0.258 C 
ATOM     12  O   UNL     1      -0.893  -4.196  -8.225  0.00  0.00    -0.269 OA
ATOM     13  N   UNL     1       0.635  -3.006  -9.292  0.00  0.00    -0.253 N 
ATOM     14  C   UNL     1       1.778  -2.285  -9.256  0.00  0.00    +0.121 C 
ATOM     15  S   UNL     1       2.594  -1.505 -10.543  0.00  0.00    -0.027 S 
ATOM     16  S   UNL     1       2.216  -2.347  -7.526  0.00  0.00    -0.061 S 
BRANCH  13  17
ATOM     17  C   UNL     1      -0.062  -3.192 -10.567  0.00  0.00    +0.146 C 
BRANCH  17  18
ATOM     18  C   UNL     1      -1.069  -2.058 -10.768  0.00  0.00    +0.136 C 
ATOM     19  C   UNL     1      -1.842  -2.254 -12.097  0.00  0.00    +0.035 C 
ATOM     20  C   UNL     1      -3.147  -1.469 -11.797  0.00  0.00    +0.031 C 
ATOM     21  C   UNL     1      -3.344  -1.724 -10.287  0.00  0.00    +0.160 C 
ATOM     22  O   UNL     1      -2.071  -2.092  -9.740  0.00  0.00    -0.375 OA
ENDBRANCH  17  18
ENDBRANCH  13  17
ENDBRANCH   3   9
BRANCH   2  23
ATOM     23  N   UNL     1      -0.215  -2.138  -3.556  0.00  0.00    -0.320 N 
ATOM     24  C   UNL     1      -0.489  -0.867  -4.244  0.00  0.00    +0.088 C 
ATOM     25  C   UNL     1      -1.699  -1.063  -5.163  0.00  0.00    -0.060 C 
ATOM     26  N   UNL     1      -2.828  -1.583  -4.381  0.00  0.00    +0.382 N 
ATOM     27  C   UNL     1      -2.504  -2.919  -3.864  0.00  0.00    -0.060 C 
ATOM     28  C   UNL     1      -1.335  -2.818  -2.885  0.00  0.00    +0.088 C 
ATOM     29  H   UNL     1      -3.015  -0.961  -3.608  0.00  0.00    -0.082 HD
BRANCH  26  30
ATOM     30  C   UNL     1      -4.018  -1.667  -5.237  0.00  0.00    -0.082 C 
ATOM     31  C   UNL     1      -5.223  -2.089  -4.395  0.00  0.00    -0.017 C 
ENDBRANCH  26  30
ENDBRANCH   2  23
BRANCH   5  32
ATOM     32  C   UNL     1       4.910  -4.303  -3.467  0.00  0.00    +0.105 C 
ATOM     33  N   UNL     1       5.960  -4.734  -3.429  0.00  0.00    -0.191 NA
ENDBRANCH   5  32
BRANCH   1  34
ATOM     34  C   UNL     1       1.420  -1.542  -1.419  0.00  0.00    +0.126 C 
BRANCH  34  35
ATOM     35  C   UNL     1       1.872  -0.105  -1.683  0.00  0.00    +0.021 C 
BRANCH  35  37
ATOM     36  C   UNL     1       1.848   2.235  -0.806  0.00  0.00    +0.004 C 
ATOM     37  C   UNL     1       1.395   0.797  -0.543  0.00  0.00    -0.002 C 
ENDBRANCH  35  37
ENDBRANCH  34  35
ENDBRANCH   1  34
TORSDOF 9
