REMARK  Name = ZINC38872488
REMARK  5 active torsions:
REMARK  status: ('A' for Active; 'I' for Inactive)
REMARK    1  A    between atoms: C_3  and  C_9
REMARK    2  A    between atoms: C_11  and  C_14
REMARK    3  A    between atoms: C_14  and  N_15
REMARK    4  A    between atoms: C_18  and  C_21
REMARK    5  A    between atoms: N_23  and  C_24
REMARK                            x       y       z     vdW  Elec       q    Type
REMARK                         _______ _______ _______ _____ _____    ______ ____
ROOT
ATOM      1  N   UNL     1       7.752   2.310  -1.454  0.00  0.00    +0.386 N 
ATOM      2  C   UNL     1       7.180   1.131  -2.116  0.00  0.00    -0.077 C 
ATOM      3  C   UNL     1       7.599   1.113  -3.587  0.00  0.00    -0.006 C 
ATOM      4  C   UNL     1       9.127   1.059  -3.676  0.00  0.00    +0.071 C 
ATOM      5  C   UNL     1       9.715   2.254  -2.919  0.00  0.00    -0.006 C 
ATOM      6  C   UNL     1       9.217   2.229  -1.473  0.00  0.00    -0.077 C 
ATOM      7  H   UNL     1       7.456   3.143  -1.941  0.00  0.00    -0.081 HD
ENDROOT
BRANCH   4   8
ATOM      8  C   UNL     1       9.550   1.120  -5.121  0.00  0.00    +0.216 C 
ATOM      9  O   UNL     1       8.714   1.199  -5.995  0.00  0.00    -0.276 OA
ATOM     10  N   UNL     1      10.859   1.087  -5.442  0.00  0.00    -0.310 N 
ATOM     11  H   UNL     1      11.528   1.024  -4.743  0.00  0.00    +0.149 HD
BRANCH  10  12
ATOM     12  C   UNL     1      11.271   1.146  -6.847  0.00  0.00    +0.035 C 
ATOM     13  C   UNL     1      10.770   2.451  -7.470  0.00  0.00    +0.029 C 
ATOM     14  C   UNL     1      11.200   2.513  -8.937  0.00  0.00    -0.008 C 
ATOM     15  C   UNL     1      12.727   2.458  -9.024  0.00  0.00    +0.007 C 
ATOM     16  C   UNL     1      13.227   1.154  -8.401  0.00  0.00    -0.008 C 
ATOM     17  C   UNL     1      12.797   1.092  -6.934  0.00  0.00    +0.029 C 
ATOM     18  C   UNL     1      12.630  -0.035  -9.158  0.00  0.00    +0.007 C 
ATOM     19  C   UNL     1      11.104   0.019  -9.070  0.00  0.00    -0.008 C 
ATOM     20  C   UNL     1      10.604   1.324  -9.694  0.00  0.00    +0.007 C 
ATOM     21  C   UNL     1      10.674  -0.042  -7.603  0.00  0.00    +0.029 C 
ENDBRANCH  10  12
ENDBRANCH   4   8
BRANCH   1  22
ATOM     22  C   UNL     1       7.283   2.365  -0.063  0.00  0.00    +0.022 C 
BRANCH  22  25
ATOM     23  C   UNL     1       3.659   2.168  -0.022  0.00  0.00    +0.203 A 
ATOM     24  N   UNL     1       4.892   1.629  -0.042  0.00  0.00    -0.193 NA
ATOM     25  C   UNL     1       5.790   2.572  -0.044  0.00  0.00    +0.211 A 
ATOM     26  O   UNL     1       5.164   3.756  -0.025  0.00  0.00    -0.340 OA
ATOM     27  N   UNL     1       3.773   3.473  -0.017  0.00  0.00    -0.056 NA
BRANCH  23  30
ATOM     28  C   UNL     1      -0.017   1.380   0.010  0.00  0.00    +0.021 A 
ATOM     29  C   UNL     1       1.167   2.089   0.002  0.00  0.00    +0.014 A 
ATOM     30  C   UNL     1       2.384   1.410  -0.013  0.00  0.00    +0.041 A 
ATOM     31  C   UNL     1       2.398   0.015  -0.021  0.00  0.00    +0.053 A 
ATOM     32  C   UNL     1       1.207  -0.685  -0.013  0.00  0.00    +0.040 A 
ATOM     33  C   UNL     1       0.002  -0.004   0.002  0.00  0.00    +0.042 A 
ATOM     34 CL   UNL     1      -1.491  -0.889   0.011  0.00  0.00    -0.083 Cl
ATOM     35 CL   UNL     1       3.909  -0.839  -0.040  0.00  0.00    -0.083 Cl
ENDBRANCH  23  30
ENDBRANCH  22  25
ENDBRANCH   1  22
TORSDOF 5
