REMARK  Name = ZINC66199252
REMARK  14 active torsions:
REMARK  status: ('A' for Active; 'I' for Inactive)
REMARK    1  A    between atoms: C_1  and  C_2
REMARK    2  A    between atoms: C_5  and  N_9
REMARK    3  A    between atoms: C_6  and  C_8
REMARK    4  A    between atoms: C_10  and  C_12
REMARK    5  A    between atoms: C_12  and  C_13
REMARK    6  A    between atoms: C_13  and  C_14
REMARK    7  A    between atoms: N_16  and  N_17
REMARK    8  A    between atoms: C_18  and  C_20
REMARK    9  A    between atoms: C_20  and  C_22
REMARK   10  A    between atoms: C_20  and  C_23
REMARK   11  A    between atoms: C_26  and  C_29
REMARK   12  A    between atoms: C_29  and  C_30
REMARK   13  A    between atoms: C_30  and  C_31
REMARK   14  A    between atoms: C_30  and  C_32
REMARK                            x       y       z     vdW  Elec       q    Type
REMARK                         _______ _______ _______ _____ _____    ______ ____
ROOT
ATOM      1  C   UNL     1      -0.330  -8.351  -2.628  0.00  0.00    +0.230 C 
ATOM      2  O   UNL     1      -0.316  -8.960  -1.579  0.00  0.00    -0.274 OA
ATOM      3  N   UNL     1      -0.429  -9.020  -3.794  0.00  0.00    -0.234 N 
ATOM      4  H   UNL     1      -0.440  -8.533  -4.633  0.00  0.00    +0.173 HD
ENDROOT
BRANCH   3   5
ATOM      5  N   UNL     1      -0.516 -10.418  -3.794  0.00  0.00    -0.234 N 
ATOM      6  C   UNL     1      -0.615 -11.087  -4.960  0.00  0.00    +0.236 C 
ATOM      7  O   UNL     1      -0.629 -10.479  -6.009  0.00  0.00    -0.274 OA
ATOM      8  H   UNL     1      -0.505 -10.905  -2.955  0.00  0.00    +0.173 HD
BRANCH   6   9
ATOM      9  C   UNL     1      -0.708 -12.591  -4.960  0.00  0.00    +0.103 C 
ATOM     10  C   UNL     1       0.540 -13.180  -4.301  0.00  0.00    +0.022 C 
BRANCH   9  11
ATOM     11  C   UNL     1      -0.809 -13.088  -6.380  0.00  0.00    -0.036 A 
ATOM     12  C   UNL     1       0.206 -12.821  -7.279  0.00  0.00    +0.004 A 
ATOM     13  C   UNL     1       0.114 -13.277  -8.581  0.00  0.00    +0.004 A 
ATOM     14  C   UNL     1      -0.994 -14.000  -8.983  0.00  0.00    -0.047 A 
ATOM     15  C   UNL     1      -2.009 -14.268  -8.083  0.00  0.00    +0.004 A 
ATOM     16  C   UNL     1      -1.914 -13.816  -6.780  0.00  0.00    +0.004 A 
BRANCH  14  17
ATOM     17  C   UNL     1      -1.095 -14.496 -10.402  0.00  0.00    +0.038 C 
BRANCH  17  18
ATOM     18  C   UNL     1      -0.468 -15.888 -10.502  0.00  0.00    -0.013 C 
ATOM     19  C   UNL     1      -1.286 -16.877  -9.669  0.00  0.00    +0.007 C 
ATOM     20  C   UNL     1      -0.458 -16.339 -11.964  0.00  0.00    +0.007 C 
ENDBRANCH  17  18
ENDBRANCH  14  17
ENDBRANCH   9  11
ENDBRANCH   6   9
ENDBRANCH   3   5
BRANCH   1  21
ATOM     21  C   UNL     1      -0.236  -6.847  -2.628  0.00  0.00    +0.106 C 
BRANCH  21  22
ATOM     22  C   UNL     1      -0.134  -6.343  -1.187  0.00  0.00    +0.105 C 
BRANCH  22  24
ATOM     23  N   UNL     1       0.059  -4.170  -0.021  0.00  0.00    -0.285 N 
ATOM     24  C   UNL     1      -0.040  -4.839  -1.187  0.00  0.00    +0.218 C 
ATOM     25  O   UNL     1      -0.054  -4.230  -2.236  0.00  0.00    -0.275 OA
ATOM     26  H   UNL     1       0.135  -4.658   0.814  0.00  0.00    +0.155 HD
BRANCH  23  31
ATOM     27  C   UNL     1       0.025   1.503   0.005  0.00  0.00    +0.044 C 
ATOM     28  C   UNL     1       0.034  -0.004  -0.002  0.00  0.00    -0.050 A 
ATOM     29  C   UNL     1       0.632  -0.685  -1.046  0.00  0.00    +0.005 A 
ATOM     30  C   UNL     1       0.641  -2.066  -1.055  0.00  0.00    +0.024 A 
ATOM     31  C   UNL     1       0.051  -2.771  -0.014  0.00  0.00    +0.036 A 
ATOM     32  C   UNL     1      -0.548  -2.083   1.033  0.00  0.00    -0.029 A 
ATOM     33  C   UNL     1      -0.550  -0.702   1.039  0.00  0.00    +0.008 A 
ATOM     34  C   UNL     1      -1.190  -2.843   2.165  0.00  0.00    +0.045 C 
ENDBRANCH  23  31
ENDBRANCH  22  24
ENDBRANCH  21  22
ENDBRANCH   1  21
TORSDOF 9
