REMARK  Name = ZINC06343596
REMARK  5 active torsions:
REMARK  status: ('A' for Active; 'I' for Inactive)
REMARK    1  A    between atoms: C_1  and  N_2
REMARK    2  A    between atoms: N_2  and  C_3
REMARK    3  A    between atoms: N_2  and  N_4
REMARK    4  A    between atoms: C_5  and  C_6
REMARK    5  A    between atoms: C_12  and  C_13
REMARK                            x       y       z     vdW  Elec       q    Type
REMARK                         _______ _______ _______ _____ _____    ______ ____
ROOT
ATOM      1  C   UNL     1      -1.273   3.695   2.408  0.00  0.00    +0.028 C 
ATOM      2  C   UNL     1      -0.988   3.053   1.246  0.00  0.00    +0.001 C 
ATOM      3  C   UNL     1      -0.600   1.597   1.270  0.00  0.00    +0.039 C 
ATOM      4  C   UNL     1       0.337   1.302   0.096  0.00  0.00    +0.009 C 
ATOM      5  C   UNL     1      -0.372   1.649  -1.215  0.00  0.00    +0.039 C 
ATOM      6  C   UNL     1      -0.762   3.104  -1.203  0.00  0.00    +0.001 C 
ATOM      7  C   UNL     1      -0.831   3.794  -2.370  0.00  0.00    +0.022 C 
ATOM      8  C   UNL     1      -1.057   3.755   0.018  0.00  0.00    +0.185 C 
ATOM      9  O   UNL     1      -1.375   4.934   0.013  0.00  0.00    -0.287 OA
ENDROOT
BRANCH   7  10
ATOM     10  C   UNL     1      -0.713   3.111  -3.604  0.00  0.00    +0.013 A 
ATOM     11  C   UNL     1      -0.625   3.633  -4.890  0.00  0.00    +0.015 A 
ATOM     12  C   UNL     1      -0.513   2.734  -5.920  0.00  0.00    +0.008 A 
ATOM     13  C   UNL     1      -0.504   1.403  -5.643  0.00  0.00    +0.046 A 
ATOM     14  S   UNL     1      -0.645   1.356  -3.916  0.00  0.00    -0.097 S 
ENDBRANCH   7  10
BRANCH   1  16
ATOM     15  N   UNL     1      -1.480   3.615   4.751  0.00  0.00    -0.193 NA
ATOM     16  C   UNL     1      -1.206   2.998   3.634  0.00  0.00    +0.130 C 
BRANCH  15  18
ATOM     17  C   UNL     1      -1.036   1.508   5.986  0.00  0.00    +0.151 C 
ATOM     18  N   UNL     1      -1.413   2.924   5.968  0.00  0.00    -0.262 N 
ATOM     19  C   UNL     1      -1.721   3.616   7.221  0.00  0.00    +0.151 C 
ENDBRANCH  15  18
ENDBRANCH   1  16
TORSDOF 3
