REMARK  Name = ZINC13063972
REMARK  12 active torsions:
REMARK  status: ('A' for Active; 'I' for Inactive)
REMARK    1  A    between atoms: C_1  and  C_2
REMARK    2  A    between atoms: C_2  and  C_3
REMARK    3  A    between atoms: C_3  and  C_5
REMARK    4  A    between atoms: C_3  and  N_66
REMARK    5  A    between atoms: N_9  and  C_10
REMARK    6  A    between atoms: C_10  and  C_11
REMARK    7  A    between atoms: C_11  and  C_12
REMARK    8  A    between atoms: C_18  and  C_19
REMARK    9  A    between atoms: C_18  and  N_66
REMARK   10  A    between atoms: C_24  and  C_25
REMARK   11  A    between atoms: C_24  and  N_66
REMARK   12  A    between atoms: C_30  and  C_37
REMARK                            x       y       z     vdW  Elec       q    Type
REMARK                         _______ _______ _______ _____ _____    ______ ____
ROOT
ATOM      1  N   UNL     1      -3.002   1.224  -0.307  0.00  0.00    +0.392 N 
ATOM      2  H   UNL     1      -3.973   0.899  -0.381  0.00  0.00    -0.080 HD
ENDROOT
BRANCH   1   3
ATOM      3  C   UNL     1      -2.516   0.977   1.067  0.00  0.00    +0.003 C 
BRANCH   3   4
ATOM      4  C   UNL     1      -3.556   1.461   2.043  0.00  0.00    +0.138 A 
ATOM      5  N   UNL     1      -4.089   2.658   2.090  0.00  0.00    -0.115 NA
ATOM      6  N   UNL     1      -4.934   2.679   3.062  0.00  0.00    -0.023 NA
ATOM      7  N   UNL     1      -4.955   1.527   3.636  0.00  0.00    -0.044 NA
ATOM      8  N   UNL     1      -4.123   0.747   3.034  0.00  0.00    -0.231 N 
BRANCH   8   9
ATOM      9  C   UNL     1      -3.844  -0.652   3.367  0.00  0.00    +0.152 C 
BRANCH   9  10
ATOM     10  C   UNL     1      -2.822  -0.712   4.504  0.00  0.00    +0.058 C 
BRANCH  10  11
ATOM     11  C   UNL     1      -2.449  -2.147   4.770  0.00  0.00    -0.046 A 
ATOM     12  C   UNL     1      -3.164  -2.888   5.692  0.00  0.00    +0.004 A 
ATOM     13  C   UNL     1      -2.825  -4.207   5.931  0.00  0.00    +0.000 A 
ATOM     14  C   UNL     1      -1.764  -4.781   5.257  0.00  0.00    +0.000 A 
ATOM     15  C   UNL     1      -1.045  -4.038   4.339  0.00  0.00    +0.000 A 
ATOM     16  C   UNL     1      -1.387  -2.722   4.096  0.00  0.00    +0.004 A 
ENDBRANCH  10  11
ENDBRANCH   9  10
ENDBRANCH   8   9
ENDBRANCH   3   4
BRANCH   3  18
ATOM     17  C   UNL     1      -0.651   1.342   2.689  0.00  0.00    +0.002 C 
ATOM     18  C   UNL     1      -1.201   1.719   1.312  0.00  0.00    -0.011 C 
ENDBRANCH   3  18
ENDBRANCH   1   3
BRANCH   1  19
ATOM     19  C   UNL     1      -2.956   2.671  -0.606  0.00  0.00    -0.034 C 
BRANCH  19  20
ATOM     20  C   UNL     1      -3.791   2.939  -1.832  0.00  0.00    -0.027 A 
ATOM     21  C   UNL     1      -5.094   3.302  -1.914  0.00  0.00    +0.009 A 
ATOM     22  C   UNL     1      -5.658   3.496  -3.161  0.00  0.00    +0.008 A 
ATOM     23  C   UNL     1      -4.892   3.318  -4.264  0.00  0.00    +0.045 A 
ATOM     24  S   UNL     1      -3.318   2.868  -3.552  0.00  0.00    -0.103 S 
ENDBRANCH  19  20
ENDBRANCH   1  19
BRANCH   1  25
ATOM     25  C   UNL     1      -2.172   0.481  -1.278  0.00  0.00    -0.036 C 
BRANCH  25  26
ATOM     26  C   UNL     1      -2.595  -0.966  -1.267  0.00  0.00    +0.001 A 
ATOM     27  C   UNL     1      -3.531  -1.403  -2.145  0.00  0.00    +0.017 A 
ATOM     28  C   UNL     1      -3.919  -2.814  -2.108  0.00  0.00    -0.001 A 
ATOM     29  C   UNL     1      -4.879  -3.324  -2.989  0.00  0.00    +0.010 A 
ATOM     30  C   UNL     1      -5.219  -4.645  -2.929  0.00  0.00    +0.004 A 
ATOM     31  C   UNL     1      -4.621  -5.487  -2.002  0.00  0.00    -0.048 A 
ATOM     32  C   UNL     1      -3.673  -5.007  -1.125  0.00  0.00    +0.029 A 
ATOM     33  C   UNL     1      -3.311  -3.665  -1.167  0.00  0.00    +0.049 A 
ATOM     34  N   UNL     1      -2.365  -3.158  -0.301  0.00  0.00    -0.322 N 
ATOM     35  H   UNL     1      -1.946  -3.745   0.347  0.00  0.00    +0.169 HD
ATOM     36  C   UNL     1      -2.010  -1.861  -0.346  0.00  0.00    +0.251 A 
ATOM     37  O   UNL     1      -1.167  -1.448   0.431  0.00  0.00    -0.268 OA
ATOM     38  C   UNL     1      -5.012  -6.942  -1.954  0.00  0.00    +0.044 C 
ENDBRANCH  25  26
ENDBRANCH   1  25
TORSDOF 10
