REMARK  Name = ZINC49770695
REMARK  6 active torsions:
REMARK  status: ('A' for Active; 'I' for Inactive)
REMARK    1  A    between atoms: C_3  and  C_21
REMARK    2  A    between atoms: C_5  and  N_7
REMARK    3  A    between atoms: C_8  and  C_10
REMARK    4  A    between atoms: C_10  and  C_11
REMARK    5  A    between atoms: C_21  and  N_22
REMARK    6  A    between atoms: C_25  and  C_28
REMARK                            x       y       z     vdW  Elec       q    Type
REMARK                         _______ _______ _______ _____ _____    ______ ____
ROOT
ATOM      1  C   UNL     1      -0.028   1.373  -0.012  0.00  0.00    +0.002 A 
ATOM      2  C   UNL     1       1.157   2.086  -0.017  0.00  0.00    +0.002 A 
ATOM      3  C   UNL     1       2.368   1.419  -0.023  0.00  0.00    -0.062 A 
ATOM      4  C   UNL     1       2.398   0.038  -0.025  0.00  0.00    +0.025 A 
ATOM      5  C   UNL     1       1.210  -0.681  -0.020  0.00  0.00    +0.034 A 
ATOM      6  C   UNL     1      -0.005  -0.008  -0.013  0.00  0.00    +0.023 A 
ENDROOT
BRANCH   5   7
ATOM      7  N   UNL     1       1.237  -2.080  -0.021  0.00  0.00    -0.285 N 
ATOM      8  C   UNL     1       0.299  -2.773   0.653  0.00  0.00    +0.222 C 
ATOM      9  O   UNL     1      -0.617  -2.187   1.192  0.00  0.00    -0.275 OA
ATOM     10  H   UNL     1       1.932  -2.551  -0.508  0.00  0.00    +0.155 HD
BRANCH   8  11
ATOM     11  C   UNL     1       0.387  -4.275   0.738  0.00  0.00    +0.131 C 
BRANCH  11  12
ATOM     12  C   UNL     1      -0.774  -4.801   1.542  0.00  0.00    -0.038 A 
ATOM     13  C   UNL     1      -0.662  -4.944   2.913  0.00  0.00    +0.004 A 
ATOM     14  C   UNL     1      -1.728  -5.429   3.640  0.00  0.00    +0.004 A 
ATOM     15  C   UNL     1      -2.915  -5.775   3.008  0.00  0.00    -0.044 A 
ATOM     16  C   UNL     1      -3.029  -5.629   1.644  0.00  0.00    -0.044 A 
ATOM     17  C   UNL     1      -1.955  -5.138   0.913  0.00  0.00    +0.008 A 
ATOM     18  C   UNL     1      -4.291  -5.969   0.895  0.00  0.00    +0.035 C 
ATOM     19  C   UNL     1      -5.191  -6.868   1.739  0.00  0.00    +0.005 C 
ATOM     20  C   UNL     1      -5.367  -6.220   3.118  0.00  0.00    +0.005 C 
ATOM     21  C   UNL     1      -4.036  -6.306   3.863  0.00  0.00    +0.035 C 
ENDBRANCH  11  12
ENDBRANCH   8  11
ENDBRANCH   5   7
BRANCH   3  22
ATOM     22  C   UNL     1       3.657   2.200  -0.029  0.00  0.00    -0.043 C 
BRANCH  22  23
ATOM     23  N   UNL     1       4.083   2.453   1.354  0.00  0.00    +0.382 N 
ATOM     24  C   UNL     1       4.395   1.177   2.009  0.00  0.00    -0.078 C 
ATOM     25  C   UNL     1       4.761   1.428   3.474  0.00  0.00    -0.006 C 
ATOM     26  C   UNL     1       5.982   2.350   3.538  0.00  0.00    +0.071 C 
ATOM     27  C   UNL     1       5.671   3.648   2.788  0.00  0.00    -0.006 C 
ATOM     28  C   UNL     1       5.271   3.314   1.349  0.00  0.00    -0.078 C 
ATOM     29  H   UNL     1       3.337   2.913   1.855  0.00  0.00    -0.081 HD
BRANCH  26  30
ATOM     30  C   UNL     1       6.301   2.664   4.978  0.00  0.00    +0.213 C 
ATOM     31  O   UNL     1       5.619   2.198   5.865  0.00  0.00    -0.276 OA
ATOM     32  N   UNL     1       7.343   3.463   5.278  0.00  0.00    -0.329 N 
ATOM     33  H   UNL     1       7.889   3.836   4.568  0.00  0.00    +0.145 HD
ATOM     34  H   UNL     1       7.548   3.666   6.204  0.00  0.00    +0.145 HD
ENDBRANCH  26  30
ENDBRANCH  22  23
ENDBRANCH   3  22
TORSDOF 6
