REMARK  Name = ZINC02694700
REMARK  6 active torsions:
REMARK  status: ('A' for Active; 'I' for Inactive)
REMARK    1  A    between atoms: C_1  and  O_2
REMARK    2  A    between atoms: O_2  and  C_3
REMARK    3  A    between atoms: C_5  and  C_13
REMARK    4  A    between atoms: C_8  and  O_9
REMARK    5  A    between atoms: O_9  and  C_10
REMARK    6  A    between atoms: C_10  and  C_11
REMARK                            x       y       z     vdW  Elec       q    Type
REMARK                         _______ _______ _______ _____ _____    ______ ____
ROOT
ATOM      1  C   UNL     1       0.002  -0.004   0.002  0.00  0.00    +0.190 C 
ATOM      2  N   UNL     1      -0.018   1.470   0.010  0.00  0.00    -0.316 N 
ATOM      3  C   UNL     1       1.199   2.102   0.002  0.00  0.00    +0.080 A 
ATOM      4  C   UNL     1       2.369   1.498  -0.483  0.00  0.00    +0.068 A 
ATOM      5  C   UNL     1       3.571   2.315  -0.432  0.00  0.00    -0.023 A 
ATOM      6  C   UNL     1       3.416   3.552   0.089  0.00  0.00    -0.005 A 
ATOM      7  S   UNL     1       1.696   3.660   0.509  0.00  0.00    -0.078 S 
ATOM      8  C   UNL     1       4.473   4.598   0.267  0.00  0.00    +0.043 C 
ATOM      9  C   UNL     1       5.846   3.930   0.111  0.00  0.00    +0.005 C 
ATOM     10  C   UNL     1       5.830   3.058  -1.148  0.00  0.00    +0.005 C 
ATOM     11  C   UNL     1       4.933   1.840  -0.926  0.00  0.00    +0.037 C 
ATOM     12  C   UNL     1       2.261   0.115  -1.002  0.00  0.00    +0.248 C 
ATOM     13  O   UNL     1       3.201  -0.431  -1.549  0.00  0.00    -0.270 OA
ATOM     14  N   UNL     1       1.078  -0.514  -0.842  0.00  0.00    -0.289 N 
ATOM     15  H   UNL     1      -0.850   1.968   0.017  0.00  0.00    +0.149 HD
ATOM     16  H   UNL     1       0.935  -1.350  -1.313  0.00  0.00    +0.151 HD
ENDROOT
BRANCH   1  19
ATOM     17  C   UNL     1       1.038  -2.162   2.925  0.00  0.00    +0.162 A 
ATOM     18  C   UNL     1       0.854  -1.702   1.631  0.00  0.00    +0.056 A 
ATOM     19  C   UNL     1       0.202  -0.503   1.410  0.00  0.00    -0.006 A 
ATOM     20  C   UNL     1      -0.263   0.242   2.478  0.00  0.00    +0.011 A 
ATOM     21  C   UNL     1      -0.087  -0.214   3.771  0.00  0.00    +0.050 A 
ATOM     22  C   UNL     1       0.566  -1.414   4.000  0.00  0.00    +0.162 A 
BRANCH  17  24
ATOM     23  C   UNL     1       2.138  -4.053   1.994  0.00  0.00    +0.277 C 
ATOM     24  O   UNL     1       1.680  -3.340   3.144  0.00  0.00    -0.491 OA
ENDBRANCH  17  24
BRANCH  22  25
ATOM     25  O   UNL     1       0.745  -1.861   5.272  0.00  0.00    -0.484 OA
BRANCH  25  26
ATOM     26  C   UNL     1       0.234  -1.042   6.325  0.00  0.00    +0.256 C 
BRANCH  26  27
ATOM     27  C   UNL     1       0.523  -1.694   7.653  0.00  0.00    +0.006 C 
ATOM     28  C   UNL     1       0.990  -0.978   8.646  0.00  0.00    +0.007 C 
ENDBRANCH  26  27
ENDBRANCH  25  26
ENDBRANCH  22  25
ENDBRANCH   1  19
TORSDOF 5
