REMARK  Name = ZINC56153630
REMARK  9 active torsions:
REMARK  status: ('A' for Active; 'I' for Inactive)
REMARK    1  A    between atoms: C_4  and  C_7
REMARK    2  A    between atoms: C_7  and  C_9
REMARK    3  A    between atoms: C_7  and  N_22
REMARK    4  A    between atoms: N_11  and  C_12
REMARK    5  A    between atoms: C_15  and  N_19
REMARK    6  A    between atoms: N_22  and  C_23
REMARK    7  A    between atoms: C_23  and  C_24
REMARK    8  A    between atoms: C_24  and  C_25
REMARK    9  A    between atoms: C_25  and  C_26
REMARK                            x       y       z     vdW  Elec       q    Type
REMARK                         _______ _______ _______ _____ _____    ______ ____
ROOT
ATOM      1  C   UNL     1       3.729  -0.707  -0.041  0.00  0.00    +0.047 C 
ENDROOT
BRANCH   1   5
ATOM      2  C   UNL     1       0.004   1.384  -0.023  0.00  0.00    +0.000 A 
ATOM      3  C   UNL     1       1.192   2.089  -0.021  0.00  0.00    +0.000 A 
ATOM      4  C   UNL     1       2.398   1.413  -0.027  0.00  0.00    +0.002 A 
ATOM      5  C   UNL     1       2.415   0.031  -0.034  0.00  0.00    -0.053 A 
ATOM      6  C   UNL     1       1.226  -0.675  -0.035  0.00  0.00    +0.002 A 
ATOM      7  C   UNL     1       0.021   0.001  -0.030  0.00  0.00    +0.000 A 
ENDBRANCH   1   5
BRANCH   1   8
ATOM      8  C   UNL     1       4.050  -1.175   1.355  0.00  0.00    +0.207 C 
ATOM      9  O   UNL     1       4.187  -2.358   1.581  0.00  0.00    -0.277 OA
ATOM     10  N   UNL     1       4.186  -0.278   2.352  0.00  0.00    -0.285 N 
ATOM     11  H   UNL     1       4.141   0.672   2.159  0.00  0.00    +0.155 HD
BRANCH  10  12
ATOM     12  C   UNL     1       4.391  -0.717   3.665  0.00  0.00    +0.052 A 
ATOM     13  C   UNL     1       5.137  -1.862   3.908  0.00  0.00    +0.027 A 
ATOM     14  C   UNL     1       5.338  -2.292   5.204  0.00  0.00    +0.034 A 
ATOM     15  C   UNL     1       4.797  -1.584   6.262  0.00  0.00    +0.128 A 
ATOM     16  C   UNL     1       4.053  -0.443   6.025  0.00  0.00    +0.054 A 
ATOM     17  C   UNL     1       3.852  -0.004   4.729  0.00  0.00    +0.064 A 
ATOM     18 CL   UNL     1       2.924   1.433   4.433  0.00  0.00    -0.082 Cl
BRANCH  15  19
ATOM     19  N   UNL     1       5.014  -2.049   7.650  0.00  0.00    +0.056 N 
ATOM     20  O   UNL     1       5.664  -3.046   7.859  0.00  0.00    -0.126 OA
ATOM     21  O   UNL     1       4.541  -1.431   8.575  0.00  0.00    -0.126 OA
ENDBRANCH  15  19
ENDBRANCH  10  12
ENDBRANCH   1   8
BRANCH   1  22
ATOM     22  N   UNL     1       3.634  -1.867  -0.937  0.00  0.00    +0.389 N 
ATOM     23  H   UNL     1       4.485  -2.407  -0.879  0.00  0.00    -0.084 HD
ATOM     24  H   UNL     1       2.852  -2.442  -0.661  0.00  0.00    -0.084 HD
BRANCH  22  25
ATOM     25  C   UNL     1       3.440  -1.405  -2.318  0.00  0.00    -0.081 C 
BRANCH  25  26
ATOM     26  C   UNL     1       3.342  -2.614  -3.251  0.00  0.00    -0.010 C 
BRANCH  26  27
ATOM     27  C   UNL     1       3.140  -2.133  -4.689  0.00  0.00    +0.094 C 
BRANCH  27  28
ATOM     28  C   UNL     1       3.042  -3.324  -5.608  0.00  0.00    +0.210 C 
ATOM     29  O   UNL     1       3.127  -4.446  -5.157  0.00  0.00    -0.276 OA
ATOM     30  N   UNL     1       2.862  -3.141  -6.931  0.00  0.00    -0.329 N 
ATOM     31  H   UNL     1       2.795  -2.243  -7.292  0.00  0.00    +0.145 HD
ATOM     32  H   UNL     1       2.800  -3.907  -7.522  0.00  0.00    +0.145 HD
ENDBRANCH  27  28
ENDBRANCH  26  27
ENDBRANCH  25  26
ENDBRANCH  22  25
ENDBRANCH   1  22
TORSDOF 9
