REMARK  Name = ZINC01801671
REMARK  5 active torsions:
REMARK  status: ('A' for Active; 'I' for Inactive)
REMARK    1  A    between atoms: C_4  and  C_7
REMARK    2  A    between atoms: N_25  and  C_26
REMARK    3  A    between atoms: C_26  and  C_27
REMARK    4  A    between atoms: C_27  and  C_28
REMARK    5  A    between atoms: C_28  and  O_29
REMARK                            x       y       z     vdW  Elec       q    Type
REMARK                         _______ _______ _______ _____ _____    ______ ____
ROOT
ATOM      1  C   UNL     1       3.659   2.163  -0.022  0.00  0.00    +0.004 A 
ATOM      2  C   UNL     1       4.641   1.869   0.864  0.00  0.00    +0.056 A 
ATOM      3  S   UNL     1       5.932   3.026   0.451  0.00  0.00    -0.076 S 
ATOM      4  C   UNL     1       5.130   3.878  -0.883  0.00  0.00    +0.116 A 
ATOM      5  C   UNL     1       3.877   3.241  -0.981  0.00  0.00    +0.082 A 
ATOM      6  C   UNL     1       3.006   3.735  -1.994  0.00  0.00    +0.284 A 
ATOM      7  O   UNL     1       1.902   3.239  -2.148  0.00  0.00    -0.265 OA
ATOM      8  N   UNL     1       3.408   4.752  -2.784  0.00  0.00    -0.175 N 
ATOM      9  C   UNL     1       4.644   5.312  -2.617  0.00  0.00    +0.167 A 
ATOM     10  N   UNL     1       5.471   4.873  -1.684  0.00  0.00    -0.220 NA
ATOM     11  C   UNL     1       5.053   6.418  -3.493  0.00  0.00    +0.030 A 
ATOM     12  C   UNL     1       6.299   7.030  -3.372  0.00  0.00    +0.012 A 
ATOM     13  C   UNL     1       6.633   8.065  -4.218  0.00  0.00    +0.001 A 
ATOM     14  C   UNL     1       5.741   8.502  -5.188  0.00  0.00    +0.001 A 
ATOM     15  C   UNL     1       4.504   7.912  -5.325  0.00  0.00    +0.012 A 
ATOM     16  C   UNL     1       4.145   6.863  -4.479  0.00  0.00    +0.027 A 
ATOM     17  C   UNL     1       2.840   6.199  -4.581  0.00  0.00    +0.148 A 
ATOM     18  N   UNL     1       2.535   5.221  -3.774  0.00  0.00    -0.146 NA
ATOM     19  N   UNL     1       1.926   6.613  -5.540  0.00  0.00    -0.327 N 
ATOM     20  H   UNL     1       2.151   7.341  -6.141  0.00  0.00    +0.148 HD
ENDROOT
BRANCH   1  24
ATOM     21  C   UNL     1       0.002  -0.004   0.002  0.00  0.00    +0.000 A 
ATOM     22  C   UNL     1      -0.017   1.379   0.010  0.00  0.00    +0.001 A 
ATOM     23  C   UNL     1       1.167   2.088   0.002  0.00  0.00    +0.008 A 
ATOM     24  C   UNL     1       2.384   1.407  -0.013  0.00  0.00    -0.017 A 
ATOM     25  C   UNL     1       2.397   0.013  -0.020  0.00  0.00    +0.008 A 
ATOM     26  C   UNL     1       1.206  -0.685  -0.013  0.00  0.00    +0.001 A 
ENDBRANCH   1  24
BRANCH  19  27
ATOM     27  C   UNL     1       0.623   5.952  -5.644  0.00  0.00    +0.105 C 
BRANCH  27  28
ATOM     28  C   UNL     1      -0.186   6.596  -6.772  0.00  0.00    +0.046 C 
BRANCH  28  29
ATOM     29  C   UNL     1      -1.547   5.905  -6.881  0.00  0.00    +0.157 C 
BRANCH  29  30
ATOM     30  O   UNL     1      -2.303   6.506  -7.935  0.00  0.00    -0.395 OA
ATOM     31  H   UNL     1      -3.179   6.118  -8.061  0.00  0.00    +0.209 HD
ENDBRANCH  29  30
ENDBRANCH  28  29
ENDBRANCH  27  28
ENDBRANCH  19  27
TORSDOF 5
