REMARK  Name = ZINC40039304
REMARK  11 active torsions:
REMARK  status: ('A' for Active; 'I' for Inactive)
REMARK    1  A    between atoms: C_1  and  O_2
REMARK    2  A    between atoms: O_2  and  C_3
REMARK    3  A    between atoms: C_6  and  C_9
REMARK    4  A    between atoms: C_11  and  C_14
REMARK    5  A    between atoms: C_14  and  N_15
REMARK    6  A    between atoms: N_18  and  C_21
REMARK    7  A    between atoms: C_21  and  C_22
REMARK    8  A    between atoms: C_22  and  O_23
REMARK    9  A    between atoms: O_23  and  C_24
REMARK   10  A    between atoms: C_27  and  S_30
REMARK   11  A    between atoms: S_30  and  N_33
REMARK                            x       y       z     vdW  Elec       q    Type
REMARK                         _______ _______ _______ _____ _____    ______ ____
ROOT
ATOM      1  N   UNL     1       2.758  -6.282  -7.140  0.00  0.00    +0.387 N 
ATOM      2  C   UNL     1       2.522  -5.245  -8.153  0.00  0.00    -0.063 C 
ATOM      3  C   UNL     1       1.291  -5.615  -8.984  0.00  0.00    +0.066 C 
ATOM      4  N   UNL     1       1.513  -6.916  -9.631  0.00  0.00    -0.303 NA
ATOM      5  C   UNL     1       1.775  -7.959  -8.630  0.00  0.00    +0.066 C 
ATOM      6  C   UNL     1       3.002  -7.570  -7.802  0.00  0.00    -0.063 C 
ATOM      7  H   UNL     1       1.948  -6.359  -6.543  0.00  0.00    -0.081 HD
ENDROOT
BRANCH   1   8
ATOM      8  C   UNL     1       3.929  -5.918  -6.331  0.00  0.00    +0.022 C 
BRANCH   8  11
ATOM      9  C   UNL     1       2.984  -3.325  -3.973  0.00  0.00    +0.202 A 
ATOM     10  N   UNL     1       3.110  -4.606  -4.364  0.00  0.00    -0.193 NA
ATOM     11  C   UNL     1       3.632  -4.660  -5.556  0.00  0.00    +0.211 A 
ATOM     12  O   UNL     1       3.862  -3.410  -5.976  0.00  0.00    -0.340 OA
ATOM     13  N   UNL     1       3.428  -2.550  -4.933  0.00  0.00    -0.056 NA
BRANCH   9  17
ATOM     14  C   UNL     1       1.396  -2.009  -0.254  0.00  0.00    +0.120 A 
ATOM     15  C   UNL     1       1.833  -1.079  -1.188  0.00  0.00    +0.046 A 
ATOM     16  C   UNL     1       2.349  -1.503  -2.395  0.00  0.00    +0.015 A 
ATOM     17  C   UNL     1       2.431  -2.866  -2.676  0.00  0.00    +0.023 A 
ATOM     18  C   UNL     1       1.990  -3.797  -1.736  0.00  0.00    +0.015 A 
ATOM     19  C   UNL     1       1.480  -3.367  -0.529  0.00  0.00    +0.046 A 
BRANCH  14  21
ATOM     20  C   UNL     1       0.830  -0.177   1.152  0.00  0.00    +0.277 C 
ATOM     21  O   UNL     1       0.888  -1.589   0.934  0.00  0.00    -0.495 OA
ENDBRANCH  14  21
ENDBRANCH   9  17
ENDBRANCH   8  11
ENDBRANCH   1   8
BRANCH   4  22
ATOM     22  C   UNL     1       0.374  -7.280 -10.485  0.00  0.00    +0.125 C 
BRANCH  22  23
ATOM     23  C   UNL     1       0.423  -6.462 -11.777  0.00  0.00    +0.244 C 
BRANCH  23  24
ATOM     24  O   UNL     1       1.590  -6.817 -12.522  0.00  0.00    -0.491 OA
BRANCH  24  25
ATOM     25  C   UNL     1       1.786  -6.177 -13.705  0.00  0.00    +0.121 A 
ATOM     26  C   UNL     1       0.876  -5.223 -14.137  0.00  0.00    +0.047 A 
ATOM     27  C   UNL     1       1.077  -4.574 -15.340  0.00  0.00    +0.032 A 
ATOM     28  C   UNL     1       2.184  -4.875 -16.113  0.00  0.00    +0.105 A 
ATOM     29  C   UNL     1       3.091  -5.826 -15.684  0.00  0.00    +0.032 A 
ATOM     30  C   UNL     1       2.898  -6.473 -14.479  0.00  0.00    +0.047 A 
BRANCH  28  31
ATOM     31  S   UNL     1       2.437  -4.046 -17.646  0.00  0.00    +0.056 S 
ATOM     32  O   UNL     1       3.255  -4.897 -18.438  0.00  0.00    -0.153 OA
ATOM     33  O   UNL     1       1.161  -3.596 -18.081  0.00  0.00    -0.153 OA
BRANCH  31  34
ATOM     34  N   UNL     1       3.334  -2.690 -17.328  0.00  0.00    -0.204 NA
ATOM     35  H   UNL     1       3.611  -2.494 -16.419  0.00  0.00    +0.144 HD
ATOM     36  H   UNL     1       3.582  -2.092 -18.050  0.00  0.00    +0.144 HD
ENDBRANCH  31  34
ENDBRANCH  28  31
ENDBRANCH  24  25
ENDBRANCH  23  24
ENDBRANCH  22  23
ENDBRANCH   4  22
TORSDOF 10
