REMARK  Name = ZINC63062021
REMARK  5 active torsions:
REMARK  status: ('A' for Active; 'I' for Inactive)
REMARK    1  A    between atoms: C_1  and  C_2
REMARK    2  A    between atoms: C_7  and  O_8
REMARK    3  A    between atoms: O_8  and  C_9
REMARK    4  A    between atoms: C_12  and  C_16
REMARK    5  A    between atoms: N_17  and  O_18
REMARK                            x       y       z     vdW  Elec       q    Type
REMARK                         _______ _______ _______ _____ _____    ______ ____
ROOT
ATOM      1  C   UNL     1       0.053  -0.846   3.468  0.00  0.00    +0.147 A 
ATOM      2  C   UNL     1       0.136  -2.223   3.302  0.00  0.00    +0.048 A 
ATOM      3  C   UNL     1       0.166  -3.051   4.403  0.00  0.00    +0.015 A 
ATOM      4  C   UNL     1       0.113  -2.505   5.687  0.00  0.00    +0.019 A 
ATOM      5  C   UNL     1       0.030  -1.122   5.851  0.00  0.00    +0.035 A 
ATOM      6  C   UNL     1       0.006  -0.298   4.745  0.00  0.00    +0.084 A 
ATOM      7 CL   UNL     1      -0.091   1.423   4.947  0.00  0.00    -0.080 Cl
ENDROOT
BRANCH   4   8
ATOM      8  C   UNL     1       0.144  -3.392   6.871  0.00  0.00    +0.162 C 
ATOM      9  N   UNL     1       0.221  -4.681   6.716  0.00  0.00    -0.072 NA
ATOM     10  N   UNL     1       0.091  -2.849   8.144  0.00  0.00    -0.340 N 
ATOM     11  H   UNL     1       0.034  -1.887   8.259  0.00  0.00    +0.144 HD
ATOM     12  H   UNL     1       0.112  -3.430   8.920  0.00  0.00    +0.144 HD
BRANCH   9  13
ATOM     13  O   UNL     1       0.250  -5.530   7.850  0.00  0.00    -0.408 OA
ATOM     14  H   UNL     1       0.308  -6.471   7.635  0.00  0.00    +0.328 HD
ENDBRANCH   9  13
ENDBRANCH   4   8
BRANCH   1  15
ATOM     15  O   UNL     1       0.025  -0.033   2.381  0.00  0.00    -0.454 OA
BRANCH  15  22
ATOM     16  C   UNL     1      -0.086   1.825   0.256  0.00  0.00    +0.047 C 
ATOM     17  C   UNL     1       1.209   1.404   0.901  0.00  0.00    -0.007 A 
ATOM     18  C   UNL     1       2.405   1.936   0.459  0.00  0.00    +0.022 A 
ATOM     19  C   UNL     1       3.595   1.550   1.051  0.00  0.00    +0.018 A 
ATOM     20  C   UNL     1       3.589   0.631   2.086  0.00  0.00    +0.019 A 
ATOM     21  C   UNL     1       2.396   0.098   2.530  0.00  0.00    +0.047 A 
ATOM     22  C   UNL     1       1.201   0.487   1.942  0.00  0.00    +0.131 A 
ATOM     23 BR   UNL     1       5.231   2.279   0.444  0.00  0.00    -0.050 Br
ENDBRANCH  15  22
ENDBRANCH   1  15
TORSDOF 4
