REMARK  Name = ZINC44321412
REMARK  10 active torsions:
REMARK  status: ('A' for Active; 'I' for Inactive)
REMARK    1  A    between atoms: C_1  and  O_2
REMARK    2  A    between atoms: O_2  and  C_3
REMARK    3  A    between atoms: C_7  and  C_10
REMARK    4  A    between atoms: C_8  and  O_9
REMARK    5  A    between atoms: C_10  and  CA_11
REMARK    6  A    between atoms: CA_11  and  C_13
REMARK    7  A    between atoms: CA_11  and  N_16
REMARK    8  A    between atoms: C_17  and  O_19
REMARK    9  A    between atoms: O_19  and  C_20
REMARK   10  A    between atoms: C_20  and  C_21
REMARK                            x       y       z     vdW  Elec       q    Type
REMARK                         _______ _______ _______ _____ _____    ______ ____
ROOT
ATOM      1  N   UNL     1       2.260  -4.229  -0.090  0.00  0.00    -0.267 N 
ATOM      2  C   UNL     1       3.286  -3.990  -0.931  0.00  0.00    +0.401 C 
ATOM      3  O   UNL     1       4.430  -4.125  -0.546  0.00  0.00    -0.226 OA
ATOM      4  H   UNL     1       1.346  -4.121  -0.398  0.00  0.00    +0.153 HD
ENDROOT
BRANCH   1   5
ATOM      5  CA  UNL     1       2.524  -4.650   1.287  0.00  0.00    +0.193 C 
BRANCH   5   6
ATOM      6  C   UNL     1       2.679  -6.149   1.334  0.00  0.00    +0.376 C 
ATOM      7  O   UNL     1       2.080  -6.848   0.534  0.00  0.00    -0.244 OA
ATOM      8  OXT UNL     1       3.402  -6.661   2.171  0.00  0.00    -0.244 OA
ENDBRANCH   5   6
BRANCH   5   9
ATOM      9  C   UNL     1       1.357  -4.230   2.183  0.00  0.00    +0.073 C 
BRANCH   9  14
ATOM     10  C   UNL     1       2.000  -0.641   3.201  0.00  0.00    +0.163 A 
ATOM     11  C   UNL     1       1.149   0.041   2.347  0.00  0.00    +0.069 A 
ATOM     12  C   UNL     1       0.370  -0.659   1.443  0.00  0.00    +0.045 A 
ATOM     13  C   UNL     1       0.438  -2.040   1.391  0.00  0.00    +0.027 A 
ATOM     14  C   UNL     1       1.285  -2.726   2.241  0.00  0.00    +0.001 A 
ATOM     15  C   UNL     1       2.072  -2.030   3.145  0.00  0.00    +0.162 A 
ATOM     16 CL   UNL     1      -0.696   0.196   0.372  0.00  0.00    -0.083 Cl
BRANCH  10  18
ATOM     17  C   UNL     1       2.640   1.469   4.093  0.00  0.00    +0.277 C 
ATOM     18  O   UNL     1       2.767   0.045   4.090  0.00  0.00    -0.491 OA
ENDBRANCH  10  18
BRANCH  15  19
ATOM     19  O   UNL     1       2.910  -2.703   3.978  0.00  0.00    -0.503 OA
ATOM     20  H   UNL     1       2.488  -3.020   4.788  0.00  0.00    +0.292 HD
ENDBRANCH  15  19
ENDBRANCH   9  14
ENDBRANCH   5   9
ENDBRANCH   1   5
BRANCH   2  21
ATOM     21  O   UNL     1       3.042  -3.603  -2.197  0.00  0.00    -0.449 OA
BRANCH  21  22
ATOM     22  C   UNL     1       4.177  -3.368  -3.033  0.00  0.00    +0.246 C 
BRANCH  22  23
ATOM     23  C   UNL     1       3.706  -2.939  -4.425  0.00  0.00    +0.088 C 
ATOM     24  C   UNL     1       3.030  -4.094  -5.122  0.00  0.00    -0.029 A 
ATOM     25  C   UNL     1       1.912  -4.838  -4.810  0.00  0.00    +0.005 A 
ATOM     26  C   UNL     1       1.506  -5.862  -5.646  0.00  0.00    +0.000 A 
ATOM     27  C   UNL     1       2.220  -6.142  -6.798  0.00  0.00    +0.001 A 
ATOM     28  C   UNL     1       3.339  -5.403  -7.118  0.00  0.00    +0.009 A 
ATOM     29  C   UNL     1       3.755  -4.367  -6.279  0.00  0.00    -0.014 A 
ATOM     30  C   UNL     1       4.900  -3.429  -6.378  0.00  0.00    -0.014 A 
ATOM     31  C   UNL     1       4.891  -2.569  -5.283  0.00  0.00    -0.029 A 
ATOM     32  C   UNL     1       5.863  -1.601  -5.151  0.00  0.00    +0.005 A 
ATOM     33  C   UNL     1       6.855  -1.480  -6.108  0.00  0.00    +0.000 A 
ATOM     34  C   UNL     1       6.873  -2.329  -7.199  0.00  0.00    +0.001 A 
ATOM     35  C   UNL     1       5.904  -3.301  -7.340  0.00  0.00    +0.009 A 
ENDBRANCH  22  23
ENDBRANCH  21  22
ENDBRANCH   2  21
TORSDOF 9
