REMARK  Name = ZINC08996570
REMARK  11 active torsions:
REMARK  status: ('A' for Active; 'I' for Inactive)
REMARK    1  A    between atoms: C_1  and  C_2
REMARK    2  A    between atoms: C_5  and  C_32
REMARK    3  A    between atoms: C_6  and  C_8
REMARK    4  A    between atoms: C_8  and  O_9
REMARK    5  A    between atoms: O_9  and  C_10
REMARK    6  A    between atoms: C_13  and  C_17
REMARK    7  A    between atoms: C_14  and  O_16
REMARK    8  A    between atoms: C_18  and  C_24
REMARK    9  A    between atoms: C_19  and  C_23
REMARK   10  A    between atoms: C_29  and  O_30
REMARK   11  A    between atoms: O_30  and  C_31
REMARK                            x       y       z     vdW  Elec       q    Type
REMARK                         _______ _______ _______ _____ _____    ______ ____
ROOT
ATOM      1  C   UNL     1       0.061  -2.448   4.832  0.00  0.00    +0.124 A 
ATOM      2  C   UNL     1       0.085  -3.826   5.004  0.00  0.00    +0.046 A 
ATOM      3  C   UNL     1       0.099  -4.366   6.273  0.00  0.00    +0.017 A 
ATOM      4  C   UNL     1       0.088  -3.529   7.387  0.00  0.00    +0.044 A 
ATOM      5  C   UNL     1       0.064  -2.141   7.213  0.00  0.00    +0.130 A 
ATOM      6  C   UNL     1       0.055  -1.607   5.936  0.00  0.00    +0.091 A 
ENDROOT
BRANCH   4   7
ATOM      7  C   UNL     1       0.102  -4.106   8.752  0.00  0.00    +0.104 A 
ATOM      8  C   UNL     1       0.132  -5.487   9.074  0.00  0.00    +0.034 A 
ATOM      9  C   UNL     1       0.137  -5.590  10.433  0.00  0.00    +0.041 A 
ATOM     10  N   UNL     1       0.111  -4.341  10.943  0.00  0.00    -0.281 N 
ATOM     11  H   UNL     1       0.108  -4.113  11.885  0.00  0.00    +0.189 HD
ATOM     12  N   UNL     1       0.095  -3.430   9.880  0.00  0.00    -0.173 NA
ATOM     13  C   UNL     1       0.165  -6.872  11.225  0.00  0.00    +0.065 C 
BRANCH   8  14
ATOM     14  C   UNL     1       0.154  -6.613   8.108  0.00  0.00    +0.028 A 
ATOM     15  C   UNL     1       1.368  -7.122   7.655  0.00  0.00    +0.012 A 
ATOM     16  C   UNL     1       1.383  -8.170   6.756  0.00  0.00    +0.001 A 
ATOM     17  C   UNL     1       0.195  -8.717   6.304  0.00  0.00    +0.004 A 
ATOM     18  C   UNL     1      -1.016  -8.219   6.748  0.00  0.00    +0.046 A 
ATOM     19  C   UNL     1      -1.045  -7.171   7.654  0.00  0.00    +0.128 A 
BRANCH  19  20
ATOM     20  O   UNL     1      -2.234  -6.685   8.096  0.00  0.00    -0.495 OA
ATOM     21  C   UNL     1      -3.417  -7.305   7.588  0.00  0.00    +0.277 C 
ENDBRANCH  19  20
ENDBRANCH   8  14
ENDBRANCH   4   7
BRANCH   5  22
ATOM     22  O   UNL     1       0.053  -1.319   8.295  0.00  0.00    -0.506 OA
ATOM     23  H   UNL     1       0.933  -1.066   8.605  0.00  0.00    +0.292 HD
ENDBRANCH   5  22
BRANCH   1  24
ATOM     24  O   UNL     1       0.047  -1.922   3.580  0.00  0.00    -0.487 OA
BRANCH  24  25
ATOM     25  C   UNL     1       0.054  -2.845   2.489  0.00  0.00    +0.264 C 
BRANCH  25  31
ATOM     26  C   UNL     1      -0.018   1.503   0.010  0.00  0.00    +0.044 C 
ATOM     27  C   UNL     1       0.002  -0.004   0.002  0.00  0.00    -0.050 A 
ATOM     28  C   UNL     1       0.006  -0.689  -1.199  0.00  0.00    +0.003 A 
ATOM     29  C   UNL     1       0.025  -2.071  -1.207  0.00  0.00    +0.004 A 
ATOM     30  C   UNL     1       0.040  -2.768  -0.013  0.00  0.00    -0.044 A 
ATOM     31  C   UNL     1       0.037  -2.084   1.188  0.00  0.00    -0.007 A 
ATOM     32  C   UNL     1       0.023  -0.702   1.195  0.00  0.00    +0.010 A 
ATOM     33  C   UNL     1       0.059  -4.275  -0.021  0.00  0.00    +0.044 C 
ENDBRANCH  25  31
ENDBRANCH  24  25
ENDBRANCH   1  24
TORSDOF 7
