REMARK  Name = ZINC43485925
REMARK  7 active torsions:
REMARK  status: ('A' for Active; 'I' for Inactive)
REMARK    1  A    between atoms: C_1  and  C_2
REMARK    2  A    between atoms: C_2  and  C_4
REMARK    3  A    between atoms: C_2  and  N_14
REMARK    4  A    between atoms: C_7  and  S_10
REMARK    5  A    between atoms: S_10  and  N_13
REMARK    6  A    between atoms: N_17  and  C_18
REMARK    7  A    between atoms: C_23  and  N_24
REMARK                            x       y       z     vdW  Elec       q    Type
REMARK                         _______ _______ _______ _____ _____    ______ ____
ROOT
ATOM      1  N   UNL     1      -1.379  -0.495   0.015  0.00  0.00    -0.293 N 
ATOM      2  C   UNL     1      -2.052  -0.638  -1.144  0.00  0.00    +0.304 C 
ATOM      3  O   UNL     1      -1.521  -0.343  -2.197  0.00  0.00    -0.252 OA
ATOM      4  N   UNL     1      -3.315  -1.109  -1.135  0.00  0.00    -0.268 N 
ATOM      5  H   UNL     1      -1.803  -0.731   0.855  0.00  0.00    +0.151 HD
ATOM      6  H   UNL     1      -3.711  -1.421  -0.306  0.00  0.00    +0.156 HD
ENDROOT
BRANCH   4   7
ATOM      7  C   UNL     1      -4.057  -1.148  -2.324  0.00  0.00    +0.056 A 
ATOM      8  C   UNL     1      -3.752  -0.281  -3.363  0.00  0.00    +0.025 A 
ATOM      9  C   UNL     1      -4.485  -0.321  -4.534  0.00  0.00    +0.002 A 
ATOM     10  C   UNL     1      -5.524  -1.222  -4.674  0.00  0.00    +0.002 A 
ATOM     11  C   UNL     1      -5.836  -2.089  -3.644  0.00  0.00    +0.025 A 
ATOM     12  C   UNL     1      -5.101  -2.061  -2.468  0.00  0.00    +0.051 A 
BRANCH  12  13
ATOM     13  N   UNL     1      -5.411  -2.942  -1.426  0.00  0.00    -0.328 N 
ATOM     14  C   UNL     1      -6.368  -2.683  -0.340  0.00  0.00    +0.105 C 
ATOM     15  C   UNL     1      -6.360  -3.920   0.583  0.00  0.00    +0.020 C 
ATOM     16  C   UNL     1      -4.985  -4.571   0.280  0.00  0.00    +0.020 C 
ATOM     17  C   UNL     1      -4.836  -4.287  -1.238  0.00  0.00    +0.105 C 
ENDBRANCH  12  13
ENDBRANCH   4   7
BRANCH   1  19
ATOM     18  C   UNL     1      -0.032   1.547   0.001  0.00  0.00    +0.033 C 
ATOM     19  C   UNL     1      -0.006   0.017   0.005  0.00  0.00    +0.102 C 
BRANCH  19  20
ATOM     20  C   UNL     1       0.720  -0.470   1.233  0.00  0.00    -0.027 A 
ATOM     21  C   UNL     1       0.065  -0.517   2.450  0.00  0.00    +0.007 A 
ATOM     22  C   UNL     1       0.731  -0.963   3.576  0.00  0.00    +0.029 A 
ATOM     23  C   UNL     1       2.052  -1.363   3.485  0.00  0.00    +0.105 A 
ATOM     24  C   UNL     1       2.706  -1.316   2.268  0.00  0.00    +0.029 A 
ATOM     25  C   UNL     1       2.039  -0.874   1.141  0.00  0.00    +0.007 A 
BRANCH  23  26
ATOM     26  S   UNL     1       2.901  -1.931   4.921  0.00  0.00    +0.056 S 
ATOM     27  O   UNL     1       4.287  -1.730   4.679  0.00  0.00    -0.153 OA
ATOM     28  O   UNL     1       2.233  -1.363   6.039  0.00  0.00    -0.153 OA
BRANCH  26  29
ATOM     29  N   UNL     1       2.668  -3.568   5.012  0.00  0.00    -0.204 NA
ATOM     30  H   UNL     1       2.140  -4.021   4.336  0.00  0.00    +0.144 HD
ATOM     31  H   UNL     1       3.060  -4.073   5.741  0.00  0.00    +0.144 HD
ENDBRANCH  26  29
ENDBRANCH  23  26
ENDBRANCH  19  20
ENDBRANCH   1  19
TORSDOF 6
