REMARK  Name = ZINC06885623
REMARK  2 active torsions:
REMARK  status: ('A' for Active; 'I' for Inactive)
REMARK    1  A    between atoms: C_4  and  C_7
REMARK    2  A    between atoms: C_17  and  C_18
REMARK                            x       y       z     vdW  Elec       q    Type
REMARK                         _______ _______ _______ _____ _____    ______ ____
ROOT
ATOM      1  C   UNL     1      -0.411   0.659  -1.087  0.00  0.00    +0.158 A 
ATOM      2  C   UNL     1       0.836   0.057  -1.591  0.00  0.00    +0.300 A 
ATOM      3  O   UNL     1       0.831  -1.039  -2.129  0.00  0.00    -0.263 OA
ATOM      4  N   UNL     1       1.975   0.744  -1.444  0.00  0.00    -0.181 NA
ATOM      5  C   UNL     1       1.978   1.921  -0.867  0.00  0.00    +0.201 A 
ATOM      6  N   UNL     1       0.854   2.534  -0.378  0.00  0.00    -0.170 N 
ATOM      7  N   UNL     1      -0.374   1.832  -0.517  0.00  0.00    -0.156 NA
ATOM      8  C   UNL     1       0.984   3.743   0.193  0.00  0.00    +0.288 A 
ATOM      9  O   UNL     1       0.017   4.329   0.643  0.00  0.00    -0.265 OA
ATOM     10  C   UNL     1       2.324   4.336   0.260  0.00  0.00    +0.082 A 
ATOM     11  C   UNL     1       2.716   5.531   0.781  0.00  0.00    +0.029 C 
ATOM     12  S   UNL     1       3.300   3.065  -0.527  0.00  0.00    -0.044 S 
ENDROOT
BRANCH  11  13
ATOM     13  C   UNL     1       4.087   6.005   0.577  0.00  0.00    -0.016 A 
ATOM     14  C   UNL     1       4.886   5.459  -0.427  0.00  0.00    +0.008 A 
ATOM     15  C   UNL     1       6.183   5.911  -0.617  0.00  0.00    +0.001 A 
ATOM     16  C   UNL     1       6.724   6.893   0.157  0.00  0.00    +0.008 A 
ATOM     17  C   UNL     1       5.977   7.489   1.187  0.00  0.00    -0.017 A 
ATOM     18  C   UNL     1       4.645   7.065   1.417  0.00  0.00    -0.011 A 
ATOM     19  C   UNL     1       3.900   7.652   2.445  0.00  0.00    +0.009 A 
ATOM     20  C   UNL     1       4.460   8.633   3.208  0.00  0.00    +0.001 A 
ATOM     21  C   UNL     1       5.768   9.057   2.982  0.00  0.00    +0.001 A 
ATOM     22  C   UNL     1       6.523   8.503   1.993  0.00  0.00    +0.008 A 
ENDBRANCH  11  13
BRANCH   1  26
ATOM     23  C   UNL     1      -4.102  -1.412  -1.486  0.00  0.00    +0.000 A 
ATOM     24  C   UNL     1      -3.049  -1.711  -2.332  0.00  0.00    +0.001 A 
ATOM     25  C   UNL     1      -1.849  -1.042  -2.207  0.00  0.00    +0.010 A 
ATOM     26  C   UNL     1      -1.698  -0.063  -1.226  0.00  0.00    +0.007 A 
ATOM     27  C   UNL     1      -2.761   0.230  -0.373  0.00  0.00    +0.010 A 
ATOM     28  C   UNL     1      -3.958  -0.442  -0.510  0.00  0.00    +0.001 A 
ENDBRANCH   1  26
TORSDOF 2
