REMARK  Name = ZINC14747628
REMARK  5 active torsions:
REMARK  status: ('A' for Active; 'I' for Inactive)
REMARK    1  A    between atoms: C_2  and  C_3
REMARK    2  A    between atoms: C_3  and  N_4
REMARK    3  A    between atoms: C_7  and  C_9
REMARK    4  A    between atoms: C_19  and  N_63
REMARK    5  A    between atoms: C_23  and  N_63
REMARK                            x       y       z     vdW  Elec       q    Type
REMARK                         _______ _______ _______ _____ _____    ______ ____
ROOT
ATOM      1  N   UNL     1       1.881   3.188  -0.454  0.00  0.00    -0.264 N 
ATOM      2  C   UNL     1       1.400   2.055   0.084  0.00  0.00    +0.043 A 
ATOM      3  C   UNL     1       2.464   1.320   0.490  0.00  0.00    +0.004 A 
ATOM      4  C   UNL     1       3.603   2.074   0.161  0.00  0.00    +0.151 A 
ATOM      5  N   UNL     1       3.169   3.188  -0.405  0.00  0.00    -0.166 NA
ATOM      6  C   UNL     1       2.369  -0.026   1.154  0.00  0.00    +0.023 C 
ATOM      7  C   UNL     1       0.929  -0.218   1.649  0.00  0.00    -0.067 C 
ATOM      8  C   UNL     1      -0.049   0.108   0.518  0.00  0.00    -0.009 C 
ATOM      9  C   UNL     1      -0.034   1.617   0.241  0.00  0.00    +0.054 C 
ENDROOT
BRANCH   4  10
ATOM     10  C   UNL     1       5.011   1.697   0.401  0.00  0.00    +0.267 C 
ATOM     11  O   UNL     1       5.279   0.594   0.837  0.00  0.00    -0.268 OA
ATOM     12  N   UNL     1       5.998   2.575   0.135  0.00  0.00    -0.296 N 
ATOM     13  C   UNL     1       5.642   3.916  -0.271  0.00  0.00    +0.108 C 
ATOM     14  C   UNL     1       5.493   3.978  -1.806  0.00  0.00    +0.019 C 
ATOM     15  C   UNL     1       6.810   3.869  -2.452  0.00  0.00    +0.002 C 
ATOM     16  C   UNL     1       7.529   2.549  -2.194  0.00  0.00    +0.002 C 
ATOM     17  C   UNL     1       8.281   2.635  -0.888  0.00  0.00    +0.019 C 
ATOM     18  C   UNL     1       7.398   2.126   0.265  0.00  0.00    +0.108 C 
ENDBRANCH   4  10
BRANCH   7  19
ATOM     19  N   UNL     1       0.745  -1.620   2.070  0.00  0.00    +0.383 N 
ATOM     20  H   UNL     1       1.617  -1.965   2.488  0.00  0.00    -0.085 HD
ATOM     21  H   UNL     1       0.508  -2.191   1.251  0.00  0.00    -0.085 HD
BRANCH  19  22
ATOM     22  C   UNL     1      -0.342  -1.718   3.063  0.00  0.00    -0.071 C 
ATOM     23  C   UNL     1       0.215  -1.437   4.460  0.00  0.00    -0.016 C 
ATOM     24  C   UNL     1      -0.911  -1.548   5.490  0.00  0.00    -0.002 C 
ATOM     25  C   UNL     1      -1.501  -2.959   5.450  0.00  0.00    -0.000 C 
ATOM     26  C   UNL     1      -2.058  -3.240   4.053  0.00  0.00    -0.002 C 
ATOM     27  C   UNL     1      -0.932  -3.129   3.023  0.00  0.00    -0.016 C 
ENDBRANCH  19  22
ENDBRANCH   7  19
BRANCH   1  28
ATOM     28  C   UNL     1       1.063   4.265  -1.016  0.00  0.00    +0.170 C 
BRANCH  28  30
ATOM     29  C   UNL     1      -0.390   3.965  -2.955  0.00  0.00    +0.006 C 
ATOM     30  C   UNL     1       0.831   4.008  -2.482  0.00  0.00    -0.012 C 
ENDBRANCH  28  30
ENDBRANCH   1  28
TORSDOF 5
