REMARK  Name = ZINC36202593
REMARK  12 active torsions:
REMARK  status: ('A' for Active; 'I' for Inactive)
REMARK    1  A    between atoms: C_1  and  C_2
REMARK    2  A    between atoms: C_5  and  C_7
REMARK    3  A    between atoms: C_7  and  N_8
REMARK    4  A    between atoms: N_8  and  C_9
REMARK    5  A    between atoms: N_8  and  C_31
REMARK    6  A    between atoms: C_9  and  C_10
REMARK    7  A    between atoms: C_13  and  C_15
REMARK    8  A    between atoms: C_15  and  C_16
REMARK    9  A    between atoms: C_15  and  C_23
REMARK   10  A    between atoms: C_15  and  O_30
REMARK   11  A    between atoms: C_31  and  C_32
REMARK   12  A    between atoms: C_31  and  C_33
REMARK                            x       y       z     vdW  Elec       q    Type
REMARK                         _______ _______ _______ _____ _____    ______ ____
ROOT
ATOM      1  C   UNL     1       4.615  -6.105  -5.362  0.00  0.00    +0.089 A 
ATOM      2  C   UNL     1       5.879  -5.893  -5.773  0.00  0.00    +0.043 A 
ATOM      3  C   UNL     1       6.014  -6.533  -7.027  0.00  0.00    +0.048 A 
ATOM      4  C   UNL     1       4.825  -7.097  -7.307  0.00  0.00    +0.146 A 
ATOM      5  O   UNL     1       3.984  -6.839  -6.293  0.00  0.00    -0.463 OA
ENDROOT
BRANCH   1   6
ATOM      6  C   UNL     1       4.013  -5.608  -4.073  0.00  0.00    -0.002 C 
BRANCH   6   7
ATOM      7  N   UNL     1       3.331  -4.329  -4.313  0.00  0.00    +0.391 N 
ATOM      8  H   UNL     1       2.626  -4.451  -5.024  0.00  0.00    -0.080 HD
BRANCH   7   9
ATOM      9  C   UNL     1       4.310  -3.329  -4.761  0.00  0.00    -0.074 C 
ATOM     10  C   UNL     1       3.578  -2.052  -5.181  0.00  0.00    -0.013 C 
ATOM     11  C   UNL     1       5.274  -3.010  -3.616  0.00  0.00    -0.013 C 
ENDBRANCH   7   9
BRANCH   7  12
ATOM     12  C   UNL     1       2.698  -3.871  -3.069  0.00  0.00    -0.002 C 
BRANCH  12  17
ATOM     13  C   UNL     1       1.020   0.881  -3.268  0.00  0.00    +0.086 C 
ATOM     14  C   UNL     1       1.092  -0.613  -3.446  0.00  0.00    +0.102 A 
ATOM     15  C   UNL     1       0.164  -1.380  -4.047  0.00  0.00    +0.044 A 
ATOM     16  C   UNL     1       0.635  -2.712  -3.991  0.00  0.00    +0.043 A 
ATOM     17  C   UNL     1       1.822  -2.680  -3.360  0.00  0.00    +0.089 A 
ATOM     18  O   UNL     1       2.097  -1.405  -3.037  0.00  0.00    -0.467 OA
ENDBRANCH  12  17
ENDBRANCH   7  12
ENDBRANCH   6   7
ENDBRANCH   1   6
BRANCH   4  19
ATOM     19  C   UNL     1       4.496  -7.888  -8.546  0.00  0.00    +0.174 C 
BRANCH  19  20
ATOM     20  C   UNL     1       3.446  -8.918  -8.220  0.00  0.00    -0.002 A 
ATOM     21  C   UNL     1       3.761 -10.264  -8.262  0.00  0.00    +0.007 A 
ATOM     22  C   UNL     1       2.799 -11.210  -7.963  0.00  0.00    +0.003 A 
ATOM     23  C   UNL     1       1.520 -10.812  -7.622  0.00  0.00    +0.038 A 
ATOM     24  C   UNL     1       1.203  -9.465  -7.579  0.00  0.00    +0.124 A 
ATOM     25  C   UNL     1       2.169  -8.518  -7.873  0.00  0.00    +0.045 A 
ATOM     26  F   UNL     1      -0.047  -9.075  -7.246  0.00  0.00    -0.205 F 
ENDBRANCH  19  20
BRANCH  19  27
ATOM     27  C   UNL     1       3.973  -6.958  -9.612  0.00  0.00    -0.002 A 
ATOM     28  C   UNL     1       3.152  -5.901  -9.264  0.00  0.00    +0.007 A 
ATOM     29  C   UNL     1       2.673  -5.048 -10.240  0.00  0.00    +0.003 A 
ATOM     30  C   UNL     1       3.013  -5.251 -11.565  0.00  0.00    +0.038 A 
ATOM     31  C   UNL     1       3.834  -6.309 -11.913  0.00  0.00    +0.124 A 
ATOM     32  C   UNL     1       4.320  -7.160 -10.934  0.00  0.00    +0.045 A 
ATOM     33  F   UNL     1       4.167  -6.508 -13.207  0.00  0.00    -0.205 F 
ENDBRANCH  19  27
BRANCH  19  34
ATOM     34  O   UNL     1       5.674  -8.542  -9.021  0.00  0.00    -0.372 OA
ATOM     35  H   UNL     1       6.394  -7.939  -9.251  0.00  0.00    +0.212 HD
ENDBRANCH  19  34
ENDBRANCH   4  19
TORSDOF 9
