REMARK  Name = ZINC15316219
REMARK  6 active torsions:
REMARK  status: ('A' for Active; 'I' for Inactive)
REMARK    1  A    between atoms: C_1  and  C_2
REMARK    2  A    between atoms: C_8  and  C_12
REMARK    3  A    between atoms: N_14  and  C_15
REMARK    4  A    between atoms: C_17  and  S_26
REMARK    5  A    between atoms: C_20  and  N_21
REMARK    6  A    between atoms: S_26  and  N_29
REMARK                            x       y       z     vdW  Elec       q    Type
REMARK                         _______ _______ _______ _____ _____    ______ ____
ROOT
ATOM      1  C   UNL     1      -6.700   0.211  -1.422  0.00  0.00    +0.057 A 
ATOM      2  C   UNL     1      -6.697  -0.189  -0.094  0.00  0.00    +0.053 A 
ATOM      3  C   UNL     1      -7.808  -0.809   0.444  0.00  0.00    +0.107 A 
ATOM      4  C   UNL     1      -8.927  -1.033  -0.338  0.00  0.00    +0.030 A 
ATOM      5  C   UNL     1      -8.940  -0.637  -1.662  0.00  0.00    +0.027 A 
ATOM      6  C   UNL     1      -7.830  -0.010  -2.209  0.00  0.00    +0.051 A 
ENDROOT
BRANCH   6   7
ATOM      7  N   UNL     1      -7.843   0.396  -3.548  0.00  0.00    -0.328 N 
ATOM      8  C   UNL     1      -9.191   0.220  -4.145  0.00  0.00    +0.105 C 
ATOM      9  C   UNL     1      -9.162   1.166  -5.372  0.00  0.00    +0.020 C 
ATOM     10  C   UNL     1      -8.353   2.378  -4.854  0.00  0.00    +0.020 C 
ATOM     11  C   UNL     1      -7.533   1.837  -3.668  0.00  0.00    +0.105 C 
ENDBRANCH   6   7
BRANCH   1  14
ATOM     12  C   UNL     1      -4.717   1.504  -1.169  0.00  0.00    +0.239 C 
ATOM     13  O   UNL     1      -4.971   1.642   0.009  0.00  0.00    -0.273 OA
ATOM     14  N   UNL     1      -5.574   0.840  -1.970  0.00  0.00    -0.282 N 
ATOM     15  H   UNL     1      -5.412   0.799  -2.925  0.00  0.00    +0.155 HD
BRANCH  12  23
ATOM     16  C   UNL     1      -0.862   4.016  -1.862  0.00  0.00    +0.044 C 
ATOM     17  C   UNL     1      -1.305   2.922  -0.888  0.00  0.00    +0.082 C 
ATOM     18  C   UNL     1      -0.714   3.099   0.520  0.00  0.00    +0.046 C 
ATOM     19  C   UNL     1      -1.847   3.888   1.220  0.00  0.00    +0.099 C 
ATOM     20  C   UNL     1      -3.094   3.496   0.462  0.00  0.00    +0.217 C 
ATOM     21  O   UNL     1      -4.226   3.725   0.832  0.00  0.00    -0.276 OA
ATOM     22  N   UNL     1      -2.774   2.853  -0.689  0.00  0.00    -0.275 N 
ATOM     23  C   UNL     1      -3.442   2.073  -1.738  0.00  0.00    +0.173 C 
ATOM     24  C   UNL     1      -2.590   0.913  -2.294  0.00  0.00    +0.103 C 
ATOM     25  S   UNL     1      -0.957   1.226  -1.503  0.00  0.00    -0.133 S 
ENDBRANCH  12  23
ENDBRANCH   1  14
BRANCH   3  26
ATOM     26  S   UNL     1      -7.800  -1.317   2.131  0.00  0.00    +0.061 S 
ATOM     27  O   UNL     1      -8.755  -2.363   2.245  0.00  0.00    -0.153 OA
ATOM     28  O   UNL     1      -6.438  -1.486   2.498  0.00  0.00    -0.153 OA
BRANCH  26  29
ATOM     29  N   UNL     1      -8.377  -0.049   3.027  0.00  0.00    -0.172 NA
ATOM     30  C   UNL     1      -7.467   0.972   3.570  0.00  0.00    +0.137 C 
ATOM     31  C   UNL     1      -8.014   2.355   3.185  0.00  0.00    +0.177 C 
ATOM     32  O   UNL     1      -9.383   2.447   3.588  0.00  0.00    -0.377 OA
ATOM     33  C   UNL     1     -10.248   1.510   2.941  0.00  0.00    +0.177 C 
ATOM     34  C   UNL     1      -9.815   0.086   3.309  0.00  0.00    +0.137 C 
ENDBRANCH  26  29
ENDBRANCH   3  26
TORSDOF 5
