REMARK  Name = ZINC27573883
REMARK  6 active torsions:
REMARK  status: ('A' for Active; 'I' for Inactive)
REMARK    1  A    between atoms: C_1  and  C_2
REMARK    2  A    between atoms: N_5  and  C_8
REMARK    3  A    between atoms: C_8  and  C_10
REMARK    4  A    between atoms: C_8  and  C_28
REMARK    5  A    between atoms: C_10  and  N_11
REMARK    6  A    between atoms: C_12  and  C_14
REMARK                            x       y       z     vdW  Elec       q    Type
REMARK                         _______ _______ _______ _____ _____    ______ ____
ROOT
ATOM      1  N   UNL     1       1.938  -2.720   1.723  0.00  0.00    -0.316 N 
ATOM      2  C   UNL     1       1.187  -2.115   0.781  0.00  0.00    +0.216 C 
ATOM      3  O   UNL     1       0.469  -2.777   0.061  0.00  0.00    -0.276 OA
ATOM      4  H   UNL     1       2.589  -2.120   2.376  0.00  0.00    +0.149 HD
ENDROOT
BRANCH   2   5
ATOM      5  C   UNL     1       1.239  -0.618   0.623  0.00  0.00    +0.076 C 
ATOM      6  C   UNL     1       0.831   0.043   1.942  0.00  0.00    +0.018 C 
ATOM      7  C   UNL     1       0.801   1.573   1.742  0.00  0.00    +0.016 C 
ATOM      8  C   UNL     1       2.101   1.940   0.977  0.00  0.00    +0.006 C 
ATOM      9  C   UNL     1       1.775   1.793  -0.523  0.00  0.00    +0.006 C 
ATOM     10  C   UNL     1       0.291   1.343  -0.602  0.00  0.00    +0.016 C 
ATOM     11  C   UNL     1       0.298  -0.198  -0.508  0.00  0.00    +0.018 C 
ATOM     12  C   UNL     1      -0.295   1.859   0.714  0.00  0.00    +0.068 C 
ATOM     13  S   UNL     1      -1.869   1.045   1.136  0.00  0.00    -0.142 S 
ATOM     14  C   UNL     1      -2.834   2.420   1.885  0.00  0.00    +0.081 C 
ATOM     15  C   UNL     1      -2.531   3.659   1.003  0.00  0.00    +0.081 C 
ATOM     16  S   UNL     1      -0.736   3.620   0.637  0.00  0.00    -0.142 S 
ENDBRANCH   2   5
BRANCH   1  17
ATOM     17  C   UNL     1       1.888  -4.176   1.877  0.00  0.00    +0.094 C 
BRANCH  17  18
ATOM     18  C   UNL     1       2.827  -4.602   3.007  0.00  0.00    -0.013 C 
BRANCH  18  23
ATOM     19  C   UNL     1       8.328  -3.518   1.893  0.00  0.00    +0.007 C 
ATOM     20  C   UNL     1       6.999  -4.234   2.147  0.00  0.00    -0.018 C 
ATOM     21  C   UNL     1       6.482  -3.872   3.543  0.00  0.00    -0.015 C 
ATOM     22  C   UNL     1       5.125  -4.542   3.767  0.00  0.00    -0.078 C 
ATOM     23  N   UNL     1       4.177  -4.088   2.741  0.00  0.00    +0.386 N 
ATOM     24  C   UNL     1       4.630  -4.465   1.396  0.00  0.00    -0.078 C 
ATOM     25  C   UNL     1       5.972  -3.793   1.101  0.00  0.00    -0.015 C 
ATOM     26  H   UNL     1       4.137  -2.989   2.785  0.00  0.00    -0.081 HD
ENDBRANCH  18  23
BRANCH  18  27
ATOM     27  C   UNL     1       2.869  -6.107   3.084  0.00  0.00    -0.022 A 
ATOM     28  C   UNL     1       2.354  -6.927   4.032  0.00  0.00    +0.009 A 
ATOM     29  C   UNL     1       2.514  -8.293   3.895  0.00  0.00    +0.008 A 
ATOM     30  C   UNL     1       3.183  -8.772   2.817  0.00  0.00    +0.045 A 
ATOM     31  S   UNL     1       3.604  -7.271   1.948  0.00  0.00    -0.103 S 
ENDBRANCH  18  27
ENDBRANCH  17  18
ENDBRANCH   1  17
TORSDOF 5
