REMARK  Name = ZINC07926717
REMARK  9 active torsions:
REMARK  status: ('A' for Active; 'I' for Inactive)
REMARK    1  A    between atoms: C_1  and  N_48
REMARK    2  A    between atoms: C_2  and  C_3
REMARK    3  A    between atoms: C_2  and  N_48
REMARK    4  A    between atoms: C_8  and  O_13
REMARK    5  A    between atoms: O_13  and  C_14
REMARK    6  A    between atoms: C_15  and  C_16
REMARK    7  A    between atoms: C_15  and  N_48
REMARK    8  A    between atoms: N_18  and  C_19
REMARK    9  A    between atoms: C_20  and  C_24
REMARK                            x       y       z     vdW  Elec       q    Type
REMARK                         _______ _______ _______ _____ _____    ______ ____
ROOT
ATOM      1  C   UNL     1      -2.455   0.202   1.268  0.00  0.00    -0.095 C 
ATOM      2  N   UNL     1      -2.429   0.956  -0.003  0.00  0.00    +0.386 N 
ATOM      3  H   UNL     1      -2.272   0.300  -0.777  0.00  0.00    -0.081 HD
ENDROOT
BRANCH   2   4
ATOM      4  C   UNL     1      -3.721   1.643  -0.209  0.00  0.00    -0.043 C 
BRANCH   4   5
ATOM      5  C   UNL     1      -4.789   0.607  -0.447  0.00  0.00    -0.063 A 
ATOM      6  C   UNL     1      -5.050   0.176  -1.747  0.00  0.00    +0.002 A 
ATOM      7  C   UNL     1      -6.004  -0.762  -1.996  0.00  0.00    +0.009 A 
ATOM      8  C   UNL     1      -6.748  -1.298  -0.929  0.00  0.00    -0.014 A 
ATOM      9  C   UNL     1      -7.744  -2.263  -1.149  0.00  0.00    +0.054 A 
ATOM     10  C   UNL     1      -8.447  -2.761  -0.089  0.00  0.00    +0.121 A 
ATOM     11  C   UNL     1      -8.187  -2.322   1.214  0.00  0.00    +0.046 A 
ATOM     12  C   UNL     1      -7.229  -1.389   1.459  0.00  0.00    +0.012 A 
ATOM     13  C   UNL     1      -6.486  -0.855   0.392  0.00  0.00    -0.017 A 
ATOM     14  C   UNL     1      -5.489   0.111   0.609  0.00  0.00    +0.010 A 
BRANCH  10  15
ATOM     15  O   UNL     1      -9.411  -3.695  -0.302  0.00  0.00    -0.495 OA
ATOM     16  C   UNL     1     -10.112  -4.178   0.845  0.00  0.00    +0.277 C 
ENDBRANCH  10  15
ENDBRANCH   4   5
ENDBRANCH   2   4
BRANCH   2  17
ATOM     17  C   UNL     1      -1.330   1.944   0.019  0.00  0.00    +0.019 C 
BRANCH  17  18
ATOM     18  C   UNL     1      -0.014   1.209   0.009  0.00  0.00    +0.201 C 
ATOM     19  O   UNL     1       0.002  -0.004   0.002  0.00  0.00    -0.278 OA
ATOM     20  N   UNL     1       1.143   1.898   0.001  0.00  0.00    -0.281 N 
ATOM     21  H   UNL     1       1.130   2.868   0.007  0.00  0.00    +0.155 HD
BRANCH  20  22
ATOM     22  C   UNL     1       2.354   1.221  -0.014  0.00  0.00    +0.084 A 
ATOM     23  C   UNL     1       3.639   1.750  -0.029  0.00  0.00    +0.065 A 
ATOM     24  C   UNL     1       4.730   0.805  -0.038  0.00  0.00    +0.022 A 
ATOM     25  C   UNL     1       4.410  -0.501  -0.043  0.00  0.00    +0.048 A 
ATOM     26  S   UNL     1       2.630  -0.488  -0.026  0.00  0.00    -0.081 S 
BRANCH  23  27
ATOM     27  C   UNL     1       3.875   3.198  -0.031  0.00  0.00    +0.244 C 
ATOM     28  O   UNL     1       2.932   3.968  -0.019  0.00  0.00    -0.270 OA
ATOM     29  N   UNL     1       5.135   3.675  -0.046  0.00  0.00    -0.325 N 
ATOM     30  H   UNL     1       5.886   3.061  -0.055  0.00  0.00    +0.145 HD
ATOM     31  H   UNL     1       5.291   4.632  -0.047  0.00  0.00    +0.145 HD
ENDBRANCH  23  27
ENDBRANCH  20  22
ENDBRANCH  17  18
ENDBRANCH   2  17
TORSDOF 7
