REMARK  Name = ZINC22423307
REMARK  9 active torsions:
REMARK  status: ('A' for Active; 'I' for Inactive)
REMARK    1  A    between atoms: C_1  and  C_2
REMARK    2  A    between atoms: C_7  and  N_8
REMARK    3  A    between atoms: C_9  and  C_11
REMARK    4  A    between atoms: C_11  and  N_12
REMARK    5  A    between atoms: N_12  and  C_13
REMARK    6  A    between atoms: C_14  and  C_16
REMARK    7  A    between atoms: C_18  and  N_24
REMARK    8  A    between atoms: C_21  and  N_22
REMARK    9  A    between atoms: N_22  and  C_23
REMARK                            x       y       z     vdW  Elec       q    Type
REMARK                         _______ _______ _______ _____ _____    ______ ____
ROOT
ATOM      1  N   UNL     1      -0.703   1.506   0.990  0.00  0.00    -0.292 N 
ATOM      2  C   UNL     1       0.084   1.072  -0.166  0.00  0.00    +0.133 C 
ATOM      3  C   UNL     1      -0.097   1.722   2.175  0.00  0.00    +0.249 C 
ATOM      4  O   UNL     1      -0.761   2.001   3.155  0.00  0.00    -0.270 OA
ENDROOT
BRANCH   3   5
ATOM      5  C   UNL     1       1.369   1.619   2.283  0.00  0.00    +0.060 A 
ATOM      6  C   UNL     1       2.026   0.461   1.858  0.00  0.00    +0.047 A 
ATOM      7  C   UNL     1       3.397   0.374   1.956  0.00  0.00    +0.127 A 
ATOM      8  C   UNL     1       4.130   1.425   2.484  0.00  0.00    +0.034 A 
ATOM      9  C   UNL     1       3.496   2.573   2.913  0.00  0.00    +0.026 A 
ATOM     10  C   UNL     1       2.114   2.682   2.817  0.00  0.00    +0.039 A 
BRANCH  10  11
ATOM     11  N   UNL     1       1.474   3.837   3.247  0.00  0.00    -0.346 N 
ATOM     12  C   UNL     1       2.240   4.897   3.906  0.00  0.00    +0.125 C 
ATOM     13  H   UNL     1       0.391   3.955   3.093  0.00  0.00    +0.146 HD
ENDBRANCH  10  11
BRANCH   7  14
ATOM     14  N   UNL     1       4.091  -0.852   1.501  0.00  0.00    +0.056 N 
ATOM     15  O   UNL     1       5.303  -0.934   1.590  0.00  0.00    -0.126 OA
ATOM     16  O   UNL     1       3.450  -1.778   1.036  0.00  0.00    -0.126 OA
ENDBRANCH   7  14
ENDBRANCH   3   5
BRANCH   1  17
ATOM     17  C   UNL     1      -2.148   1.707   0.859  0.00  0.00    +0.203 C 
BRANCH  17  19
ATOM     18  N   UNL     1      -4.210   0.366   1.117  0.00  0.00    -0.284 N 
ATOM     19  C   UNL     1      -2.865   0.419   1.174  0.00  0.00    +0.235 C 
ATOM     20  O   UNL     1      -2.231  -0.569   1.478  0.00  0.00    -0.274 OA
ATOM     21  H   UNL     1      -4.782   1.244   0.784  0.00  0.00    +0.155 HD
BRANCH  18  28
ATOM     22  C   UNL     1      -6.887   0.584   2.056  0.00  0.00    +0.046 C 
ATOM     23  C   UNL     1      -6.187  -0.746   1.948  0.00  0.00    -0.028 A 
ATOM     24  C   UNL     1      -6.847  -1.906   2.304  0.00  0.00    +0.020 A 
ATOM     25  C   UNL     1      -6.203  -3.127   2.210  0.00  0.00    +0.018 A 
ATOM     26  C   UNL     1      -4.898  -3.190   1.753  0.00  0.00    +0.017 A 
ATOM     27  C   UNL     1      -4.236  -2.034   1.390  0.00  0.00    +0.024 A 
ATOM     28  C   UNL     1      -4.880  -0.807   1.484  0.00  0.00    +0.036 A 
ATOM     29 BR   UNL     1      -7.107  -4.712   2.706  0.00  0.00    -0.050 Br
ENDBRANCH  18  28
ENDBRANCH  17  19
ENDBRANCH   1  17
TORSDOF 6
