REMARK  Name = ZINC58016621
REMARK  5 active torsions:
REMARK  status: ('A' for Active; 'I' for Inactive)
REMARK    1  A    between atoms: C_1  and  C_2
REMARK    2  A    between atoms: N_12  and  C_13
REMARK    3  A    between atoms: C_13  and  C_14
REMARK    4  A    between atoms: C_16  and  C_19
REMARK    5  A    between atoms: C_19  and  C_20
REMARK                            x       y       z     vdW  Elec       q    Type
REMARK                         _______ _______ _______ _____ _____    ______ ____
ROOT
ATOM      1  C   UNL     1       1.002   0.390   2.312  0.00  0.00    +0.204 C 
ENDROOT
BRANCH   1  12
ATOM      2  C   UNL     1      -0.019   1.526   0.010  0.00  0.00    +0.028 C 
ATOM      3  C   UNL     1       0.002  -0.004   0.002  0.00  0.00    +0.071 C 
ATOM      4  C   UNL     1       0.736  -0.507  -1.248  0.00  0.00    +0.027 C 
ATOM      5  C   UNL     1       0.684  -2.034  -1.270  0.00  0.00    +0.039 C 
ATOM      6  C   UNL     1       1.152  -2.597   0.046  0.00  0.00    -0.026 A 
ATOM      7  C   UNL     1       1.588  -3.911   0.096  0.00  0.00    +0.005 A 
ATOM      8  C   UNL     1       2.021  -4.457   1.289  0.00  0.00    +0.000 A 
ATOM      9  C   UNL     1       2.021  -3.694   2.443  0.00  0.00    +0.002 A 
ATOM     10  C   UNL     1       1.589  -2.383   2.401  0.00  0.00    +0.023 A 
ATOM     11  C   UNL     1       1.155  -1.831   1.201  0.00  0.00    +0.034 A 
ATOM     12  N   UNL     1       0.728  -0.498   1.180  0.00  0.00    -0.318 N 
ENDBRANCH   1  12
BRANCH   1  13
ATOM     13  C   UNL     1      -0.135   0.312   3.299  0.00  0.00    +0.245 A 
ATOM     14  N   UNL     1      -0.220  -0.515   4.303  0.00  0.00    -0.194 NA
ATOM     15  C   UNL     1      -1.360  -0.311   4.972  0.00  0.00    +0.176 A 
ATOM     16  N   UNL     1      -2.019   0.654   4.397  0.00  0.00    -0.061 NA
ATOM     17  O   UNL     1      -1.230   1.083   3.297  0.00  0.00    -0.336 OA
BRANCH  15  18
ATOM     18  C   UNL     1      -1.810  -1.073   6.191  0.00  0.00    +0.114 C 
BRANCH  18  19
ATOM     19  C   UNL     1      -1.303  -0.383   7.431  0.00  0.00    -0.040 A 
ATOM     20  C   UNL     1      -0.068  -0.720   7.953  0.00  0.00    +0.004 A 
ATOM     21  C   UNL     1       0.397  -0.087   9.091  0.00  0.00    +0.000 A 
ATOM     22  C   UNL     1      -0.371   0.884   9.705  0.00  0.00    +0.000 A 
ATOM     23  C   UNL     1      -1.606   1.222   9.182  0.00  0.00    +0.000 A 
ATOM     24  C   UNL     1      -2.069   0.591   8.042  0.00  0.00    +0.004 A 
ENDBRANCH  18  19
ENDBRANCH  15  18
ENDBRANCH   1  13
TORSDOF 4
