REMARK  Name = ZINC39771598
REMARK  8 active torsions:
REMARK  status: ('A' for Active; 'I' for Inactive)
REMARK    1  A    between atoms: C_1  and  C_2
REMARK    2  A    between atoms: C_5  and  S_8
REMARK    3  A    between atoms: S_8  and  N_11
REMARK    4  A    between atoms: N_11  and  C_12
REMARK    5  A    between atoms: C_14  and  C_34
REMARK    6  A    between atoms: C_15  and  O_33
REMARK    7  A    between atoms: C_16  and  S_18
REMARK    8  A    between atoms: S_18  and  C_19
REMARK                            x       y       z     vdW  Elec       q    Type
REMARK                         _______ _______ _______ _____ _____    ______ ____
ROOT
ATOM      1  C   UNL     1       2.552  -4.706   1.012  0.00  0.00    +0.050 A 
ATOM      2  C   UNL     1       3.733  -4.028   0.737  0.00  0.00    +0.031 A 
ATOM      3  C   UNL     1       4.525  -3.566   1.772  0.00  0.00    -0.006 A 
ATOM      4  C   UNL     1       4.143  -3.778   3.086  0.00  0.00    +0.134 A 
ATOM      5  C   UNL     1       2.959  -4.457   3.366  0.00  0.00    +0.059 A 
ATOM      6  C   UNL     1       2.162  -4.915   2.327  0.00  0.00    +0.043 A 
ATOM      7  C   UNL     1       5.805  -2.832   1.469  0.00  0.00    +0.047 C 
ENDROOT
BRANCH   1   8
ATOM      8  N   UNL     1       1.752  -5.172  -0.037  0.00  0.00    -0.216 N 
ATOM      9  H   UNL     1       2.156  -5.648  -0.780  0.00  0.00    +0.174 HD
BRANCH   8  10
ATOM     10  S   UNL     1       0.117  -4.910  -0.012  0.00  0.00    +0.072 S 
ATOM     11  O   UNL     1      -0.350  -5.383   1.243  0.00  0.00    -0.150 OA
ATOM     12  O   UNL     1      -0.391  -5.395  -1.247  0.00  0.00    -0.150 OA
BRANCH  10  17
ATOM     13  C   UNL     1      -0.735   1.064  -0.029  0.00  0.00    +0.044 C 
ATOM     14  C   UNL     1      -0.522  -0.428  -0.024  0.00  0.00    -0.050 A 
ATOM     15  C   UNL     1      -0.443  -1.118  -1.220  0.00  0.00    +0.005 A 
ATOM     16  C   UNL     1      -0.247  -2.487  -1.216  0.00  0.00    +0.029 A 
ATOM     17  C   UNL     1      -0.131  -3.165  -0.017  0.00  0.00    +0.109 A 
ATOM     18  C   UNL     1      -0.209  -2.475   1.178  0.00  0.00    +0.029 A 
ATOM     19  C   UNL     1      -0.400  -1.106   1.174  0.00  0.00    +0.005 A 
ENDBRANCH  10  17
ENDBRANCH   8  10
ENDBRANCH   1   8
BRANCH   4  20
ATOM     20  O   UNL     1       4.924  -3.323   4.103  0.00  0.00    -0.505 OA
ATOM     21  H   UNL     1       4.710  -2.426   4.393  0.00  0.00    +0.292 HD
ENDBRANCH   4  20
BRANCH   5  22
ATOM     22  S   UNL     1       2.471  -4.728   5.038  0.00  0.00    -0.045 S 
BRANCH  22  23
ATOM     23  C   UNL     1       3.540  -6.016   5.590  0.00  0.00    +0.212 C 
ATOM     24  N   UNL     1       4.352  -6.562   4.717  0.00  0.00    -0.227 NA
ATOM     25  C   UNL     1       5.289  -7.574   5.200  0.00  0.00    +0.252 C 
ATOM     26  C   UNL     1       4.628  -8.229   6.404  0.00  0.00    +0.117 C 
ATOM     27  C   UNL     1       4.737  -9.570   6.196  0.00  0.00    +0.025 A 
ATOM     28  C   UNL     1       4.412 -10.688   7.003  0.00  0.00    +0.012 A 
ATOM     29  C   UNL     1       4.635 -11.924   6.481  0.00  0.00    +0.001 A 
ATOM     30  C   UNL     1       5.160 -12.155   5.205  0.00  0.00    +0.002 A 
ATOM     31  C   UNL     1       5.513 -11.160   4.349  0.00  0.00    +0.026 A 
ATOM     32  C   UNL     1       5.314  -9.784   4.833  0.00  0.00    +0.046 A 
ATOM     33  N   UNL     1       5.571  -8.648   4.259  0.00  0.00    -0.358 N 
ATOM     34  N   UNL     1       3.981  -7.502   7.320  0.00  0.00    -0.147 NA
ATOM     35  N   UNL     1       3.478  -6.382   6.893  0.00  0.00    -0.122 NA
ATOM     36  H   UNL     1       5.896  -8.534   3.352  0.00  0.00    +0.162 HD
ENDBRANCH  22  23
ENDBRANCH   5  22
TORSDOF 6
