REMARK  Name = ZINC19901364
REMARK  13 active torsions:
REMARK  status: ('A' for Active; 'I' for Inactive)
REMARK    1  A    between atoms: C_1  and  C_2
REMARK    2  A    between atoms: C_5  and  C_37
REMARK    3  A    between atoms: C_6  and  O_8
REMARK    4  A    between atoms: O_8  and  C_9
REMARK    5  A    between atoms: C_9  and  C_10
REMARK    6  A    between atoms: C_10  and  C_12
REMARK    7  A    between atoms: C_10  and  O_36
REMARK    8  A    between atoms: C_12  and  N_13
REMARK    9  A    between atoms: N_16  and  C_19
REMARK   10  A    between atoms: C_19  and  C_20
REMARK   11  A    between atoms: C_20  and  N_21
REMARK   12  A    between atoms: C_37  and  C_38
REMARK   13  A    between atoms: C_37  and  C_39
REMARK                            x       y       z     vdW  Elec       q    Type
REMARK                         _______ _______ _______ _____ _____    ______ ____
ROOT
ATOM      1  N   UNL     1      -6.019  -0.990  -0.069  0.00  0.00    -0.303 NA
ATOM      2  C   UNL     1      -6.033  -1.829  -1.276  0.00  0.00    +0.066 C 
ATOM      3  C   UNL     1      -7.200  -2.817  -1.193  0.00  0.00    -0.063 C 
ATOM      4  N   UNL     1      -8.460  -2.073  -1.057  0.00  0.00    +0.382 N 
ATOM      5  C   UNL     1      -8.445  -1.234   0.149  0.00  0.00    -0.063 C 
ATOM      6  C   UNL     1      -7.279  -0.246   0.067  0.00  0.00    +0.066 C 
ATOM      7  H   UNL     1      -8.559  -1.411  -1.930  0.00  0.00    -0.082 HD
ENDROOT
BRANCH   1   8
ATOM      8  C   UNL     1      -4.867  -0.079  -0.076  0.00  0.00    +0.119 C 
BRANCH   8   9
ATOM      9  C   UNL     1      -3.574  -0.889   0.033  0.00  0.00    +0.166 C 
BRANCH   9  10
ATOM     10  O   UNL     1      -3.582  -1.638   1.250  0.00  0.00    -0.387 OA
ATOM     11  H   UNL     1      -4.375  -2.377   1.436  0.00  0.00    +0.210 HD
ENDBRANCH   9  10
BRANCH   9  12
ATOM     12  C   UNL     1      -2.374   0.060   0.026  0.00  0.00    +0.261 C 
BRANCH  12  13
ATOM     13  O   UNL     1      -1.165  -0.701   0.010  0.00  0.00    -0.489 OA
BRANCH  13  19
ATOM     14  C   UNL     1       1.151   3.596   0.010  0.00  0.00    +0.044 C 
ATOM     15  C   UNL     1       1.171   2.089   0.002  0.00  0.00    -0.047 A 
ATOM     16  C   UNL     1       2.377   1.414  -0.013  0.00  0.00    +0.004 A 
ATOM     17  C   UNL     1       2.399   0.032  -0.021  0.00  0.00    +0.008 A 
ATOM     18  C   UNL     1       1.214  -0.679  -0.013  0.00  0.00    -0.003 A 
ATOM     19  C   UNL     1       0.002  -0.004   0.002  0.00  0.00    +0.124 A 
ATOM     20  C   UNL     1      -0.017   1.383   0.010  0.00  0.00    +0.049 A 
BRANCH  18  21
ATOM     21  C   UNL     1       1.238  -2.186  -0.021  0.00  0.00    +0.016 C 
ATOM     22  C   UNL     1       1.955  -2.678  -1.280  0.00  0.00    +0.012 C 
ATOM     23  C   UNL     1       1.979  -2.690   1.219  0.00  0.00    +0.012 C 
ENDBRANCH  18  21
ENDBRANCH  13  19
ENDBRANCH  12  13
ENDBRANCH   9  12
ENDBRANCH   8   9
ENDBRANCH   1   8
BRANCH   4  24
ATOM     24  C   UNL     1      -9.611  -2.984  -1.051  0.00  0.00    -0.059 C 
BRANCH  24  25
ATOM     25  C   UNL     1      -9.736  -3.658  -2.419  0.00  0.00    +0.098 C 
BRANCH  25  26
ATOM     26  N   UNL     1     -10.885  -4.567  -2.412  0.00  0.00    -0.236 N 
ATOM     27  C   UNL     1     -10.695  -5.849  -2.046  0.00  0.00    +0.254 C 
ATOM     28  O   UNL     1      -9.584  -6.229  -1.729  0.00  0.00    -0.270 OA
ATOM     29  C   UNL     1     -11.825  -6.790  -2.022  0.00  0.00    +0.046 A 
ATOM     30  C   UNL     1     -11.675  -8.117  -1.648  0.00  0.00    +0.014 A 
ATOM     31  C   UNL     1     -12.772  -8.970  -1.646  0.00  0.00    +0.001 A 
ATOM     32  C   UNL     1     -14.016  -8.537  -2.008  0.00  0.00    +0.008 A 
ATOM     33  C   UNL     1     -14.210  -7.200  -2.394  0.00  0.00    -0.016 A 
ATOM     34  C   UNL     1     -13.104  -6.324  -2.400  0.00  0.00    +0.006 A 
ATOM     35  C   UNL     1     -13.267  -4.974  -2.784  0.00  0.00    +0.046 A 
ATOM     36  C   UNL     1     -14.527  -4.526  -3.154  0.00  0.00    +0.014 A 
ATOM     37  C   UNL     1     -15.609  -5.398  -3.143  0.00  0.00    +0.001 A 
ATOM     38  C   UNL     1     -15.470  -6.706  -2.775  0.00  0.00    +0.008 A 
ATOM     39  C   UNL     1     -12.091  -4.092  -2.778  0.00  0.00    +0.254 C 
ATOM     40  O   UNL     1     -12.207  -2.926  -3.105  0.00  0.00    -0.270 OA
ENDBRANCH  25  26
ENDBRANCH  24  25
ENDBRANCH   4  24
TORSDOF 10
