REMARK  Name = ZINC63362592
REMARK  6 active torsions:
REMARK  status: ('A' for Active; 'I' for Inactive)
REMARK    1  A    between atoms: C_1  and  C_2
REMARK    2  A    between atoms: C_5  and  C_8
REMARK    3  A    between atoms: N_26  and  C_29
REMARK    4  A    between atoms: C_32  and  C_35
REMARK    5  A    between atoms: C_35  and  C_36
REMARK    6  A    between atoms: C_35  and  C_37
REMARK                            x       y       z     vdW  Elec       q    Type
REMARK                         _______ _______ _______ _____ _____    ______ ____
ROOT
ATOM      1  C   UNL     1       0.047  -4.300  -0.042  0.00  0.00    +0.135 C 
ATOM      2  C   UNL     1       1.476  -4.790   0.228  0.00  0.00    +0.131 C 
ATOM      3  C   UNL     1       1.751  -4.581   1.711  0.00  0.00    -0.034 C 
ATOM      4  C   UNL     1       2.829  -3.808   1.788  0.00  0.00    -0.001 A 
ATOM      5  C   UNL     1       3.600  -3.317   2.942  0.00  0.00    +0.010 A 
ATOM      6  C   UNL     1       4.662  -2.519   2.656  0.00  0.00    +0.001 A 
ATOM      7  C   UNL     1       5.030  -2.164   1.355  0.00  0.00    +0.002 A 
ATOM      8  C   UNL     1       4.382  -2.574   0.236  0.00  0.00    +0.026 A 
ATOM      9  C   UNL     1       3.249  -3.422   0.407  0.00  0.00    +0.043 A 
ATOM     10  N   UNL     1       2.461  -3.971  -0.485  0.00  0.00    -0.375 N 
ATOM     11  C   UNL     1       0.863  -5.135   2.801  0.00  0.00    +0.065 C 
ATOM     12  C   UNL     1      -0.363  -5.743   2.099  0.00  0.00    +0.169 C 
ATOM     13  N   UNL     1      -0.803  -4.804   1.045  0.00  0.00    -0.264 N 
ATOM     14  C   UNL     1      -2.083  -4.505   1.299  0.00  0.00    +0.317 C 
ATOM     15  O   UNL     1      -2.783  -3.840   0.561  0.00  0.00    -0.252 OA
ATOM     16  N   UNL     1      -2.502  -5.022   2.462  0.00  0.00    -0.193 N 
ATOM     17  C   UNL     1      -1.533  -5.793   3.058  0.00  0.00    +0.248 C 
ATOM     18  O   UNL     1      -1.588  -6.381   4.116  0.00  0.00    -0.273 OA
ATOM     19  H   UNL     1       2.513  -3.856  -1.446  0.00  0.00    +0.160 HD
ENDROOT
BRANCH   1  24
ATOM     20  C   UNL     1      -0.073   1.477  -0.110  0.00  0.00    +0.044 C 
ATOM     21  C   UNL     1      -0.042  -0.029  -0.092  0.00  0.00    -0.050 A 
ATOM     22  C   UNL     1      -0.036  -0.735  -1.281  0.00  0.00    +0.004 A 
ATOM     23  C   UNL     1      -0.008  -2.116  -1.264  0.00  0.00    +0.006 A 
ATOM     24  C   UNL     1       0.017  -2.793  -0.059  0.00  0.00    -0.025 A 
ATOM     25  C   UNL     1       0.012  -2.088   1.130  0.00  0.00    +0.006 A 
ATOM     26  C   UNL     1      -0.013  -0.706   1.113  0.00  0.00    +0.004 A 
ENDBRANCH   1  24
BRANCH  16  27
ATOM     27  C   UNL     1      -3.779  -4.813   3.002  0.00  0.00    +0.045 A 
ATOM     28  C   UNL     1      -4.167  -5.487   4.152  0.00  0.00    +0.024 A 
ATOM     29  C   UNL     1      -5.425  -5.279   4.682  0.00  0.00    +0.006 A 
ATOM     30  C   UNL     1      -6.298  -4.400   4.069  0.00  0.00    -0.045 A 
ATOM     31  C   UNL     1      -5.915  -3.727   2.923  0.00  0.00    +0.006 A 
ATOM     32  C   UNL     1      -4.656  -3.927   2.392  0.00  0.00    +0.024 A 
BRANCH  30  33
ATOM     33  C   UNL     1      -7.671  -4.176   4.649  0.00  0.00    +0.013 C 
ATOM     34  C   UNL     1      -7.835  -2.700   5.015  0.00  0.00    +0.012 C 
ATOM     35  C   UNL     1      -8.731  -4.566   3.617  0.00  0.00    +0.012 C 
ENDBRANCH  30  33
ENDBRANCH  16  27
TORSDOF 3
