REMARK  Name = ZINC66688879
REMARK  8 active torsions:
REMARK  status: ('A' for Active; 'I' for Inactive)
REMARK    1  A    between atoms: C_1  and  C_2
REMARK    2  A    between atoms: C_2  and  C_3
REMARK    3  A    between atoms: C_3  and  N_4
REMARK    4  A    between atoms: N_7  and  C_8
REMARK    5  A    between atoms: C_8  and  C_9
REMARK    6  A    between atoms: C_8  and  C_10
REMARK    7  A    between atoms: C_8  and  C_11
REMARK    8  A    between atoms: C_17  and  C_20
REMARK                            x       y       z     vdW  Elec       q    Type
REMARK                         _______ _______ _______ _____ _____    ______ ____
ROOT
ATOM      1  C   UNL     1       1.934  -6.165  -3.089  0.00  0.00    +0.239 C 
ATOM      2  O   UNL     1       1.875  -6.972  -3.992  0.00  0.00    -0.273 OA
ATOM      3  N   UNL     1       1.971  -6.586  -1.810  0.00  0.00    -0.295 N 
ATOM      4  C   UNL     1       2.154  -5.633  -0.703  0.00  0.00    +0.136 C 
ATOM      5  C   UNL     1       1.062  -5.889   0.341  0.00  0.00    +0.179 C 
ATOM      6  O   UNL     1       1.061  -7.275   0.691  0.00  0.00    -0.369 OA
ATOM      7  C   UNL     1       0.753  -8.153  -0.395  0.00  0.00    +0.168 C 
ATOM      8  C   UNL     1       1.825  -8.012  -1.477  0.00  0.00    +0.144 C 
ENDROOT
BRANCH   7   9
ATOM      9  C   UNL     1       0.719  -9.575   0.101  0.00  0.00    +0.018 A 
ATOM     10  C   UNL     1       1.431  -9.930   1.232  0.00  0.00    +0.009 A 
ATOM     11  C   UNL     1       1.400 -11.235   1.687  0.00  0.00    +0.001 A 
ATOM     12  C   UNL     1       0.657 -12.186   1.013  0.00  0.00    +0.003 A 
ATOM     13  C   UNL     1      -0.056 -11.833  -0.117  0.00  0.00    +0.039 A 
ATOM     14  C   UNL     1      -0.029 -10.525  -0.571  0.00  0.00    +0.129 A 
ATOM     15  F   UNL     1      -0.730 -10.178  -1.673  0.00  0.00    -0.205 F 
ENDBRANCH   7   9
BRANCH   1  16
ATOM     16  C   UNL     1       1.964  -4.690  -3.398  0.00  0.00    +0.107 C 
ATOM     17  C   UNL     1       1.546  -4.465  -4.853  0.00  0.00    +0.041 C 
ATOM     18  C   UNL     1       3.382  -4.154  -3.186  0.00  0.00    +0.041 C 
BRANCH  16  22
ATOM     19  N   UNL     1       0.057  -1.998  -1.775  0.00  0.00    -0.299 N 
ATOM     20  C   UNL     1       0.910  -2.646  -2.593  0.00  0.00    +0.300 C 
ATOM     21  O   UNL     1       1.564  -2.023  -3.407  0.00  0.00    -0.253 OA
ATOM     22  N   UNL     1       1.038  -3.985  -2.509  0.00  0.00    -0.286 N 
ATOM     23  H   UNL     1      -0.465  -2.495  -1.126  0.00  0.00    +0.150 HD
ATOM     24  H   UNL     1       0.516  -4.482  -1.860  0.00  0.00    +0.151 HD
BRANCH  19  25
ATOM     25  C   UNL     1      -0.082  -0.542  -1.867  0.00  0.00    +0.105 C 
BRANCH  25  27
ATOM     26  C   UNL     1      -1.250   1.458  -0.931  0.00  0.00    +0.005 C 
ATOM     27  C   UNL     1      -1.105  -0.062  -0.836  0.00  0.00    +0.015 C 
ENDBRANCH  25  27
ENDBRANCH  19  25
ENDBRANCH  16  22
ENDBRANCH   1  16
TORSDOF 5
