REMARK  Name = ZINC39528227
REMARK  5 active torsions:
REMARK  status: ('A' for Active; 'I' for Inactive)
REMARK    1  A    between atoms: C_1  and  S_2
REMARK    2  A    between atoms: S_2  and  C_3
REMARK    3  A    between atoms: N_6  and  C_10
REMARK    4  A    between atoms: C_15  and  C_16
REMARK    5  A    between atoms: C_16  and  C_17
REMARK                            x       y       z     vdW  Elec       q    Type
REMARK                         _______ _______ _______ _____ _____    ______ ____
ROOT
ATOM      1  C   UNL     1       2.992  -2.891  -3.172  0.00  0.00    +0.033 A 
ATOM      2  C   UNL     1       2.125  -3.331  -4.164  0.00  0.00    +0.025 A 
ATOM      3  C   UNL     1       2.353  -4.540  -4.792  0.00  0.00    +0.022 A 
ATOM      4  C   UNL     1       3.443  -5.313  -4.433  0.00  0.00    +0.041 A 
ATOM      5  C   UNL     1       4.308  -4.877  -3.445  0.00  0.00    +0.025 A 
ATOM      6  C   UNL     1       4.088  -3.667  -2.817  0.00  0.00    -0.021 A 
ATOM      7 CL   UNL     1       3.726  -6.832  -5.224  0.00  0.00    -0.084 Cl
ENDROOT
BRANCH   1  10
ATOM      8  C   UNL     1       0.871  -0.494  -1.546  0.00  0.00    +0.129 C 
ATOM      9  C   UNL     1       1.921  -1.589  -1.332  0.00  0.00    +0.134 C 
ATOM     10  N   UNL     1       2.764  -1.668  -2.535  0.00  0.00    -0.326 N 
ATOM     11  C   UNL     1       3.362  -0.427  -3.050  0.00  0.00    +0.120 C 
ATOM     12  C   UNL     1       2.254   0.622  -3.196  0.00  0.00    +0.101 C 
ATOM     13  N   UNL     1       1.541   0.759  -1.919  0.00  0.00    -0.302 NA
ATOM     14  H   UNL     1       0.885   1.524  -1.950  0.00  0.00    +0.123 HD
BRANCH   8  16
ATOM     15  C   UNL     1      -0.146   1.557   0.166  0.00  0.00    +0.086 C 
ATOM     16  S   UNL     1      -0.066  -0.246  -0.012  0.00  0.00    -0.144 S 
ENDBRANCH   8  16
ENDBRANCH   1  10
BRANCH   6  17
ATOM     17  C   UNL     1       5.034  -3.190  -1.746  0.00  0.00    +0.072 C 
BRANCH  17  18
ATOM     18  C   UNL     1       6.200  -4.140  -1.646  0.00  0.00    -0.043 A 
ATOM     19  C   UNL     1       6.163  -5.186  -0.743  0.00  0.00    +0.004 A 
ATOM     20  C   UNL     1       7.233  -6.058  -0.652  0.00  0.00    +0.000 A 
ATOM     21  C   UNL     1       8.338  -5.883  -1.463  0.00  0.00    +0.000 A 
ATOM     22  C   UNL     1       8.374  -4.837  -2.366  0.00  0.00    +0.000 A 
ATOM     23  C   UNL     1       7.303  -3.968  -2.461  0.00  0.00    +0.004 A 
ENDBRANCH  17  18
ENDBRANCH   6  17
TORSDOF 4
