REMARK  Name = ZINC01875354
REMARK  5 active torsions:
REMARK  status: ('A' for Active; 'I' for Inactive)
REMARK    1  A    between atoms: C_11  and  C_32
REMARK    2  A    between atoms: N_19  and  C_23
REMARK    3  A    between atoms: C_23  and  C_24
REMARK    4  A    between atoms: C_24  and  C_25
REMARK    5  A    between atoms: C_35  and  N_38
REMARK                            x       y       z     vdW  Elec       q    Type
REMARK                         _______ _______ _______ _____ _____    ______ ____
ROOT
ATOM      1  C   UNL     1      -5.899   7.123  -5.071  0.00  0.00    +0.001 A 
ATOM      2  C   UNL     1      -6.152   5.866  -5.595  0.00  0.00    +0.002 A 
ATOM      3  C   UNL     1      -6.093   4.719  -4.824  0.00  0.00    +0.026 A 
ATOM      4  C   UNL     1      -5.765   4.879  -3.479  0.00  0.00    +0.047 A 
ATOM      5  C   UNL     1      -5.508   6.168  -2.948  0.00  0.00    +0.003 A 
ATOM      6  C   UNL     1      -5.574   7.311  -3.751  0.00  0.00    +0.010 A 
ATOM      7  C   UNL     1      -5.205   5.971  -1.544  0.00  0.00    -0.015 A 
ATOM      8  C   UNL     1      -5.286   4.644  -1.307  0.00  0.00    +0.046 A 
ATOM      9  N   UNL     1      -5.621   3.983  -2.459  0.00  0.00    -0.356 N 
ATOM     10  H   UNL     1      -5.739   3.023  -2.538  0.00  0.00    +0.166 HD
ATOM     11  C   UNL     1      -5.034   4.022   0.048  0.00  0.00    +0.154 C 
ATOM     12  N   UNL     1      -4.988   5.120   1.037  0.00  0.00    -0.276 N 
ATOM     13  C   UNL     1      -4.214   6.313   0.697  0.00  0.00    +0.167 C 
ATOM     14  C   UNL     1      -4.863   7.009  -0.507  0.00  0.00    +0.069 C 
ATOM     15  C   UNL     1      -4.125   7.269   1.842  0.00  0.00    +0.237 C 
ATOM     16  O   UNL     1      -3.428   8.253   1.707  0.00  0.00    -0.274 OA
ATOM     17  N   UNL     1      -4.762   7.111   3.001  0.00  0.00    -0.291 N 
ATOM     18  C   UNL     1      -5.623   5.979   3.301  0.00  0.00    +0.203 C 
ATOM     19  C   UNL     1      -5.650   4.983   2.188  0.00  0.00    +0.234 C 
ATOM     20  O   UNL     1      -6.318   3.982   2.340  0.00  0.00    -0.274 OA
ENDROOT
BRANCH  11  21
ATOM     21  C   UNL     1      -3.719   3.286   0.038  0.00  0.00    -0.021 A 
ATOM     22  C   UNL     1      -3.662   1.967   0.449  0.00  0.00    +0.008 A 
ATOM     23  C   UNL     1      -2.455   1.292   0.439  0.00  0.00    +0.033 A 
ATOM     24  C   UNL     1      -1.306   1.936   0.019  0.00  0.00    +0.126 A 
ATOM     25  C   UNL     1      -1.363   3.257  -0.386  0.00  0.00    +0.033 A 
ATOM     26  C   UNL     1      -2.570   3.930  -0.382  0.00  0.00    +0.008 A 
BRANCH  24  27
ATOM     27  N   UNL     1      -0.015   1.214   0.009  0.00  0.00    +0.056 N 
ATOM     28  O   UNL     1       0.036   0.052   0.370  0.00  0.00    -0.126 OA
ATOM     29  O   UNL     1       0.997   1.780  -0.366  0.00  0.00    -0.126 OA
ENDBRANCH  24  27
ENDBRANCH  11  21
BRANCH  17  30
ATOM     30  C   UNL     1      -4.584   8.135   4.032  0.00  0.00    +0.113 C 
BRANCH  30  31
ATOM     31  C   UNL     1      -3.389   7.768   4.915  0.00  0.00    +0.054 C 
BRANCH  31  32
ATOM     32  C   UNL     1      -3.206   8.822   5.976  0.00  0.00    -0.046 A 
ATOM     33  C   UNL     1      -2.390   9.912   5.734  0.00  0.00    +0.005 A 
ATOM     34  C   UNL     1      -2.226  10.882   6.705  0.00  0.00    +0.020 A 
ATOM     35  C   UNL     1      -2.869  10.757   7.923  0.00  0.00    +0.041 A 
ATOM     36  C   UNL     1      -3.681   9.663   8.167  0.00  0.00    +0.020 A 
ATOM     37  C   UNL     1      -3.849   8.696   7.193  0.00  0.00    +0.005 A 
ATOM     38 CL   UNL     1      -2.659  11.971   9.146  0.00  0.00    -0.084 Cl
ENDBRANCH  31  32
ENDBRANCH  30  31
ENDBRANCH  17  30
TORSDOF 5
