REMARK  Name = ZINC39947800
REMARK  6 active torsions:
REMARK  status: ('A' for Active; 'I' for Inactive)
REMARK    1  A    between atoms: C_1  and  C_2
REMARK    2  A    between atoms: C_2  and  O_3
REMARK    3  A    between atoms: O_3  and  C_4
REMARK    4  A    between atoms: C_4  and  C_6
REMARK    5  A    between atoms: C_8  and  C_14
REMARK    6  A    between atoms: C_9  and  C_13
REMARK                            x       y       z     vdW  Elec       q    Type
REMARK                         _______ _______ _______ _____ _____    ______ ____
ROOT
ATOM      1  C   UNL     1       1.468  -2.353  -2.550  0.00  0.00    +0.241 C 
ATOM      2  C   UNL     1       2.968  -2.335  -2.353  0.00  0.00    -0.032 C 
ATOM      3  C   UNL     1       3.362  -3.605  -2.422  0.00  0.00    -0.018 C 
ATOM      4  C   UNL     1       2.200  -4.465  -2.655  0.00  0.00    +0.100 C 
ATOM      5  N   UNL     1       1.113  -3.767  -2.731  0.00  0.00    -0.258 NA
ATOM      6  I   UNL     1       2.286  -6.550  -2.841  0.00  0.00    -0.022 I 
ATOM      7  C   UNL     1       4.785  -4.083  -2.284  0.00  0.00    +0.046 C 
ATOM      8  C   UNL     1       3.838  -1.125  -2.126  0.00  0.00    +0.042 C 
ENDROOT
BRANCH   1   9
ATOM      9  C   UNL     1       0.775  -1.794  -1.334  0.00  0.00    +0.336 C 
ATOM     10  O   UNL     1       0.314  -2.540  -0.504  0.00  0.00    -0.248 OA
BRANCH   9  11
ATOM     11  O   UNL     1       0.671  -0.465  -1.174  0.00  0.00    -0.463 OA
BRANCH  11  13
ATOM     12  C   UNL     1      -0.019   1.526   0.010  0.00  0.00    +0.048 C 
ATOM     13  C   UNL     1       0.002  -0.004   0.002  0.00  0.00    +0.229 C 
ENDBRANCH  11  13
ENDBRANCH   9  11
ENDBRANCH   1   9
TORSDOF 3
