REMARK  Name = ZINC58846122
REMARK  10 active torsions:
REMARK  status: ('A' for Active; 'I' for Inactive)
REMARK    1  A    between atoms: C_1  and  C_2
REMARK    2  A    between atoms: C_2  and  C_3
REMARK    3  A    between atoms: C_8  and  N_9
REMARK    4  A    between atoms: N_9  and  S_10
REMARK    5  A    between atoms: S_10  and  C_13
REMARK    6  A    between atoms: C_26  and  C_29
REMARK    7  A    between atoms: C_31  and  O_37
REMARK    8  A    between atoms: C_34  and  O_35
REMARK    9  A    between atoms: O_35  and  C_36
REMARK   10  A    between atoms: O_37  and  C_38
REMARK                            x       y       z     vdW  Elec       q    Type
REMARK                         _______ _______ _______ _____ _____    ______ ____
ROOT
ATOM      1  C   UNL     1      -3.050   1.837  -3.183  0.00  0.00    +0.109 A 
ATOM      2  C   UNL     1      -4.243   1.989  -2.500  0.00  0.00    +0.030 A 
ATOM      3  C   UNL     1      -4.683   3.253  -2.162  0.00  0.00    +0.025 A 
ATOM      4  C   UNL     1      -3.928   4.370  -2.503  0.00  0.00    +0.031 A 
ATOM      5  C   UNL     1      -2.725   4.219  -3.176  0.00  0.00    -0.018 A 
ATOM      6  C   UNL     1      -2.294   2.943  -3.514  0.00  0.00    +0.034 A 
ATOM      7  C   UNL     1      -1.868   5.389  -3.524  0.00  0.00    +0.049 C 
ATOM      8  C   UNL     1      -1.963   5.747  -4.985  0.00  0.00    -0.023 C 
ATOM      9  C   UNL     1      -1.900   7.046  -5.139  0.00  0.00    -0.030 C 
ATOM     10  C   UNL     1      -1.761   7.741  -3.802  0.00  0.00    +0.033 C 
ATOM     11  C   UNL     1      -2.221   6.676  -2.781  0.00  0.00    +0.029 C 
ATOM     12  C   UNL     1      -3.707   6.857  -2.546  0.00  0.00    +0.109 C 
ATOM     13  N   UNL     1      -4.392   5.637  -2.172  0.00  0.00    -0.336 N 
ATOM     14  H   UNL     1      -5.229   5.708  -1.687  0.00  0.00    +0.147 HD
ENDROOT
BRANCH  12  15
ATOM     15  C   UNL     1      -4.324   7.421  -3.800  0.00  0.00    +0.018 A 
ATOM     16  C   UNL     1      -4.514   8.784  -3.923  0.00  0.00    +0.054 A 
ATOM     17  C   UNL     1      -5.082   9.304  -5.077  0.00  0.00    +0.121 A 
ATOM     18  C   UNL     1      -5.459   8.455  -6.107  0.00  0.00    +0.049 A 
ATOM     19  C   UNL     1      -5.270   7.093  -5.984  0.00  0.00    +0.049 A 
ATOM     20  C   UNL     1      -4.697   6.573  -4.832  0.00  0.00    +0.125 A 
BRANCH  20  21
ATOM     21  O   UNL     1      -4.505   5.232  -4.713  0.00  0.00    -0.495 OA
ATOM     22  C   UNL     1      -4.913   4.418  -5.814  0.00  0.00    +0.277 C 
ENDBRANCH  20  21
BRANCH  17  23
ATOM     23  O   UNL     1      -5.269  10.645  -5.198  0.00  0.00    -0.495 OA
ATOM     24  C   UNL     1      -5.859  11.111  -6.413  0.00  0.00    +0.277 C 
ENDBRANCH  17  23
ENDBRANCH  12  15
BRANCH   1  25
ATOM     25  S   UNL     1      -2.489   0.226  -3.624  0.00  0.00    +0.072 S 
ATOM     26  O   UNL     1      -1.613   0.390  -4.731  0.00  0.00    -0.150 OA
ATOM     27  O   UNL     1      -3.642  -0.603  -3.682  0.00  0.00    -0.150 OA
BRANCH  25  28
ATOM     28  N   UNL     1      -1.566  -0.333  -2.368  0.00  0.00    -0.216 N 
ATOM     29  H   UNL     1      -0.636  -0.563  -2.515  0.00  0.00    +0.174 HD
BRANCH  28  35
ATOM     30  C   UNL     1      -1.363  -0.216   0.034  0.00  0.00    -0.025 A 
ATOM     31  C   UNL     1      -1.923  -0.349   1.289  0.00  0.00    +0.005 A 
ATOM     32  C   UNL     1      -3.242  -0.742   1.421  0.00  0.00    +0.000 A 
ATOM     33  C   UNL     1      -4.005  -1.004   0.298  0.00  0.00    +0.002 A 
ATOM     34  C   UNL     1      -3.451  -0.872  -0.960  0.00  0.00    +0.025 A 
ATOM     35  C   UNL     1      -2.128  -0.472  -1.097  0.00  0.00    +0.051 A 
BRANCH  30  37
ATOM     36  C   UNL     1       0.138   1.727  -0.315  0.00  0.00    +0.009 C 
ATOM     37  C   UNL     1       0.075   0.213  -0.109  0.00  0.00    +0.033 C 
ENDBRANCH  30  37
ENDBRANCH  28  35
ENDBRANCH  25  28
ENDBRANCH   1  25
TORSDOF 7
