REMARK  Name = ZINC36552869
REMARK  14 active torsions:
REMARK  status: ('A' for Active; 'I' for Inactive)
REMARK    1  A    between atoms: C_1  and  C_2
REMARK    2  A    between atoms: C_7  and  C_8
REMARK    3  A    between atoms: C_8  and  C_10
REMARK    4  A    between atoms: C_8  and  N_21
REMARK    5  A    between atoms: N_12  and  C_13
REMARK    6  A    between atoms: C_13  and  C_14
REMARK    7  A    between atoms: C_13  and  C_15
REMARK    8  A    between atoms: C_13  and  C_16
REMARK    9  A    between atoms: C_16  and  C_17
REMARK   10  A    between atoms: C_17  and  C_18
REMARK   11  A    between atoms: C_17  and  C_19
REMARK   12  A    between atoms: C_17  and  C_20
REMARK   13  A    between atoms: N_21  and  C_22
REMARK   14  A    between atoms: C_29  and  C_31
REMARK                            x       y       z     vdW  Elec       q    Type
REMARK                         _______ _______ _______ _____ _____    ______ ____
ROOT
ATOM      1  C   UNL     1      -0.856   0.600   2.693  0.00  0.00    +0.197 C 
ENDROOT
BRANCH   1   8
ATOM      2  C   UNL     1       1.557   2.162   2.404  0.00  0.00    +0.044 C 
ATOM      3  C   UNL     1       0.986   1.431   1.216  0.00  0.00    -0.045 A 
ATOM      4  C   UNL     1       1.619   1.503  -0.011  0.00  0.00    +0.004 A 
ATOM      5  C   UNL     1       1.096   0.833  -1.100  0.00  0.00    +0.000 A 
ATOM      6  C   UNL     1      -0.062   0.089  -0.962  0.00  0.00    +0.000 A 
ATOM      7  C   UNL     1      -0.695   0.016   0.264  0.00  0.00    +0.006 A 
ATOM      8  C   UNL     1      -0.168   0.683   1.355  0.00  0.00    -0.015 A 
ENDBRANCH   1   8
BRANCH   1   9
ATOM      9  C   UNL     1      -2.273   0.124   2.501  0.00  0.00    +0.239 C 
ATOM     10  O   UNL     1      -2.644  -0.904   3.027  0.00  0.00    -0.273 OA
ATOM     11  N   UNL     1      -3.128   0.841   1.746  0.00  0.00    -0.308 N 
ATOM     12  H   UNL     1      -2.813   1.624   1.267  0.00  0.00    +0.149 HD
BRANCH  11  13
ATOM     13  C   UNL     1      -4.533   0.438   1.647  0.00  0.00    +0.030 C 
ATOM     14  C   UNL     1      -4.628  -0.907   0.924  0.00  0.00    +0.031 C 
ATOM     15  C   UNL     1      -5.125   0.305   3.051  0.00  0.00    +0.031 C 
BRANCH  13  16
ATOM     16  C   UNL     1      -5.312   1.495   0.862  0.00  0.00    +0.031 C 
BRANCH  16  17
ATOM     17  C   UNL     1      -4.683   2.870   1.095  0.00  0.00    -0.036 C 
ATOM     18  C   UNL     1      -3.470   3.037   0.177  0.00  0.00    +0.010 C 
ATOM     19  C   UNL     1      -5.711   3.961   0.785  0.00  0.00    +0.010 C 
ATOM     20  C   UNL     1      -4.239   2.988   2.554  0.00  0.00    +0.010 C 
ENDBRANCH  16  17
ENDBRANCH  13  16
ENDBRANCH  11  13
ENDBRANCH   1   9
BRANCH   1  21
ATOM     21  N   UNL     1      -0.136  -0.343   3.553  0.00  0.00    -0.254 N 
ATOM     22  C   UNL     1       0.400   0.079   4.715  0.00  0.00    +0.241 C 
ATOM     23  O   UNL     1       0.365   1.256   5.007  0.00  0.00    -0.273 OA
BRANCH  21  24
ATOM     24  C   UNL     1      -0.006  -1.682   3.168  0.00  0.00    +0.039 A 
ATOM     25  C   UNL     1      -0.705  -2.672   3.846  0.00  0.00    +0.023 A 
ATOM     26  C   UNL     1      -0.575  -3.993   3.465  0.00  0.00    +0.003 A 
ATOM     27  C   UNL     1       0.251  -4.331   2.408  0.00  0.00    +0.020 A 
ATOM     28  C   UNL     1       0.949  -3.348   1.730  0.00  0.00    +0.043 A 
ATOM     29  C   UNL     1       0.818  -2.023   2.104  0.00  0.00    +0.043 A 
ATOM     30 CL   UNL     1       1.986  -3.776   0.405  0.00  0.00    -0.083 Cl
ENDBRANCH  21  24
BRANCH  22  31
ATOM     31  C   UNL     1       1.043  -0.911   5.652  0.00  0.00    +0.160 C 
ATOM     32  C   UNL     1       0.006  -1.435   6.670  0.00  0.00    +0.041 C 
ATOM     33  C   UNL     1       0.218  -0.472   7.861  0.00  0.00    +0.098 C 
ATOM     34  C   UNL     1       1.642   0.012   7.697  0.00  0.00    +0.214 C 
ATOM     35  O   UNL     1       2.294   0.557   8.562  0.00  0.00    -0.276 OA
ATOM     36  N   UNL     1       2.082  -0.252   6.452  0.00  0.00    -0.304 N 
ATOM     37  H   UNL     1       2.969  -0.035   6.126  0.00  0.00    +0.149 HD
ENDBRANCH  22  31
ENDBRANCH   1  21
TORSDOF 8
