REMARK  Name = ZINC14478047
REMARK  5 active torsions:
REMARK  status: ('A' for Active; 'I' for Inactive)
REMARK    1  A    between atoms: C_1  and  C_2
REMARK    2  A    between atoms: N_5  and  S_8
REMARK    3  A    between atoms: S_8  and  C_11
REMARK    4  A    between atoms: C_24  and  C_27
REMARK    5  A    between atoms: C_32  and  N_33
REMARK                            x       y       z     vdW  Elec       q    Type
REMARK                         _______ _______ _______ _____ _____    ______ ____
ROOT
ATOM      1  C   UNL     1       0.096  -2.936   2.142  0.00  0.00    +0.106 A 
ATOM      2  C   UNL     1       0.209  -3.230   0.795  0.00  0.00    +0.030 A 
ATOM      3  C   UNL     1       0.917  -2.382  -0.033  0.00  0.00    +0.025 A 
ATOM      4  C   UNL     1       1.512  -1.239   0.487  0.00  0.00    +0.031 A 
ATOM      5  C   UNL     1       1.400  -0.940   1.836  0.00  0.00    -0.018 A 
ATOM      6  C   UNL     1       0.686  -1.801   2.659  0.00  0.00    +0.034 A 
ATOM      7  C   UNL     1       2.022   0.279   2.440  0.00  0.00    +0.049 C 
ATOM      8  C   UNL     1       0.985   1.336   2.737  0.00  0.00    -0.023 C 
ATOM      9  C   UNL     1       1.477   2.530   2.515  0.00  0.00    -0.030 C 
ATOM     10  C   UNL     1       2.915   2.432   2.044  0.00  0.00    +0.033 C 
ATOM     11  C   UNL     1       3.016   0.980   1.493  0.00  0.00    +0.029 C 
ATOM     12  C   UNL     1       2.459   0.993   0.067  0.00  0.00    +0.107 C 
ATOM     13  N   UNL     1       2.224  -0.389  -0.365  0.00  0.00    -0.336 N 
ATOM     14  H   UNL     1       2.555  -0.705  -1.221  0.00  0.00    +0.147 HD
ENDROOT
BRANCH  12  15
ATOM     15  C   UNL     1       1.160   1.757   0.040  0.00  0.00    +0.003 A 
ATOM     16  C   UNL     1      -0.032   1.104   0.295  0.00  0.00    +0.008 A 
ATOM     17  C   UNL     1      -1.223   1.804   0.265  0.00  0.00    +0.000 A 
ATOM     18  C   UNL     1      -1.222   3.159  -0.011  0.00  0.00    +0.002 A 
ATOM     19  C   UNL     1      -0.031   3.812  -0.264  0.00  0.00    +0.033 A 
ATOM     20  C   UNL     1       1.160   3.111  -0.239  0.00  0.00    +0.131 A 
BRANCH  20  21
ATOM     21  N   UNL     1       2.436   3.810  -0.511  0.00  0.00    +0.057 N 
ATOM     22  O   UNL     1       2.453   5.022  -0.634  0.00  0.00    -0.126 OA
ATOM     23  O   UNL     1       3.470   3.174  -0.613  0.00  0.00    -0.126 OA
ENDBRANCH  20  21
ENDBRANCH  12  15
BRANCH   1  24
ATOM     24  S   UNL     1      -0.807  -4.015   3.203  0.00  0.00    +0.061 S 
ATOM     25  O   UNL     1      -1.227  -3.235   4.314  0.00  0.00    -0.153 OA
ATOM     26  O   UNL     1      -1.724  -4.721   2.378  0.00  0.00    -0.153 OA
BRANCH  24  31
ATOM     27  C   UNL     1       4.242  -6.636   3.917  0.00  0.00    +0.007 C 
ATOM     28  C   UNL     1       2.743  -6.444   4.155  0.00  0.00    -0.012 C 
ATOM     29  C   UNL     1       2.497  -5.062   4.766  0.00  0.00    +0.020 C 
ATOM     30  C   UNL     1       0.999  -4.887   5.035  0.00  0.00    +0.110 C 
ATOM     31  N   UNL     1       0.263  -5.135   3.788  0.00  0.00    -0.177 NA
ATOM     32  C   UNL     1       0.490  -6.398   3.073  0.00  0.00    +0.110 C 
ATOM     33  C   UNL     1       1.997  -6.555   2.823  0.00  0.00    +0.020 C 
ENDBRANCH  24  31
ENDBRANCH   1  24
TORSDOF 4
