REMARK  Name = ZINC22704613
REMARK  6 active torsions:
REMARK  status: ('A' for Active; 'I' for Inactive)
REMARK    1  A    between atoms: C_1  and  O_2
REMARK    2  A    between atoms: O_2  and  C_3
REMARK    3  A    between atoms: C_7  and  C_9
REMARK    4  A    between atoms: C_22  and  S_24
REMARK    5  A    between atoms: S_24  and  C_25
REMARK    6  A    between atoms: C_25  and  C_26
REMARK                            x       y       z     vdW  Elec       q    Type
REMARK                         _______ _______ _______ _____ _____    ______ ____
ROOT
ATOM      1  C   UNL     1       1.389  -4.130   2.211  0.00  0.00    +0.176 C 
ATOM      2  C   UNL     1       2.837  -4.568   2.215  0.00  0.00    +0.041 C 
ATOM      3  C   UNL     1       3.442  -5.034   3.327  0.00  0.00    +0.020 C 
ATOM      4  C   UNL     1       4.895  -5.448   3.304  0.00  0.00    +0.052 C 
ATOM      5  C   UNL     1       5.253  -5.992   1.920  0.00  0.00    +0.014 C 
ATOM      6  C   UNL     1       4.974  -4.896   0.885  0.00  0.00    +0.080 C 
ATOM      7  C   UNL     1       3.537  -4.472   0.999  0.00  0.00    +0.163 C 
ATOM      8  O   UNL     1       2.967  -4.035   0.018  0.00  0.00    -0.292 OA
ATOM      9  N   UNL     1       2.771  -5.158   4.520  0.00  0.00    -0.287 N 
ATOM     10  C   UNL     1       1.388  -5.074   4.501  0.00  0.00    +0.219 A 
ATOM     11  N   UNL     1       0.725  -4.597   3.422  0.00  0.00    -0.220 N 
ATOM     12  N   UNL     1      -0.632  -4.657   3.733  0.00  0.00    -0.141 NA
ATOM     13  C   UNL     1      -0.720  -5.147   4.951  0.00  0.00    +0.211 A 
ATOM     14  N   UNL     1       0.509  -5.397   5.410  0.00  0.00    -0.187 NA
ATOM     15  H   UNL     1       3.251  -5.300   5.351  0.00  0.00    +0.155 HD
ENDROOT
BRANCH   1  20
ATOM     16  C   UNL     1       0.626  -0.618   1.042  0.00  0.00    +0.120 A 
ATOM     17  C   UNL     1       1.202   0.139   2.051  0.00  0.00    +0.045 A 
ATOM     18  C   UNL     1       1.835  -0.488   3.107  0.00  0.00    +0.004 A 
ATOM     19  C   UNL     1       1.895  -1.869   3.158  0.00  0.00    +0.006 A 
ATOM     20  C   UNL     1       1.321  -2.625   2.153  0.00  0.00    -0.015 A 
ATOM     21  C   UNL     1       0.682  -2.003   1.097  0.00  0.00    +0.051 A 
BRANCH  16  23
ATOM     22  C   UNL     1      -0.017   1.425   0.010  0.00  0.00    +0.277 C 
ATOM     23  O   UNL     1       0.002  -0.004   0.002  0.00  0.00    -0.495 OA
ENDBRANCH  16  23
ENDBRANCH   1  20
BRANCH  13  24
ATOM     24  S   UNL     1      -2.218  -5.430   5.835  0.00  0.00    -0.080 S 
BRANCH  24  25
ATOM     25  C   UNL     1      -1.668  -6.105   7.426  0.00  0.00    +0.113 C 
BRANCH  25  26
ATOM     26  C   UNL     1      -2.868  -6.395   8.291  0.00  0.00    -0.029 A 
ATOM     27  C   UNL     1      -3.361  -5.436   9.121  0.00  0.00    +0.005 A 
ATOM     28  C   UNL     1      -4.469  -5.686   9.928  0.00  0.00    +0.001 A 
ATOM     29  C   UNL     1      -5.091  -6.897   9.909  0.00  0.00    +0.008 A 
ATOM     30  C   UNL     1      -4.611  -7.912   9.064  0.00  0.00    -0.018 A 
ATOM     31  C   UNL     1      -3.487  -7.655   8.239  0.00  0.00    -0.014 A 
ATOM     32  C   UNL     1      -3.011  -8.669   7.389  0.00  0.00    +0.009 A 
ATOM     33  C   UNL     1      -3.636  -9.877   7.366  0.00  0.00    +0.001 A 
ATOM     34  C   UNL     1      -4.745 -10.127   8.172  0.00  0.00    +0.001 A 
ATOM     35  C   UNL     1      -5.227  -9.174   9.017  0.00  0.00    +0.008 A 
ENDBRANCH  25  26
ENDBRANCH  24  25
ENDBRANCH  13  24
TORSDOF 5
