REMARK  Name = ZINC40110899
REMARK  17 active torsions:
REMARK  status: ('A' for Active; 'I' for Inactive)
REMARK    1  A    between atoms: C_1  and  C_2
REMARK    2  A    between atoms: C_2  and  C_3
REMARK    3  A    between atoms: C_3  and  C_4
REMARK    4  A    between atoms: C_4  and  N_5
REMARK    5  A    between atoms: C_6  and  C_27
REMARK    6  A    between atoms: C_8  and  C_13
REMARK    7  A    between atoms: C_13  and  C_15
REMARK    8  A    between atoms: C_18  and  S_21
REMARK    9  A    between atoms: S_21  and  N_24
REMARK   10  A    between atoms: N_24  and  C_25
REMARK   11  A    between atoms: N_24  and  C_26
REMARK   12  A    between atoms: C_31  and  O_33
REMARK   13  A    between atoms: O_33  and  C_34
REMARK   14  A    between atoms: C_34  and  C_35
REMARK   15  A    between atoms: C_35  and  C_36
REMARK   16  A    between atoms: C_36  and  C_37
REMARK   17  A    between atoms: C_36  and  C_38
REMARK                            x       y       z     vdW  Elec       q    Type
REMARK                         _______ _______ _______ _____ _____    ______ ____
ROOT
ATOM      1  N   UNL     1       1.473  -2.439  -2.508  0.00  0.00    -0.284 N 
ATOM      2  C   UNL     1       0.787  -2.828  -3.746  0.00  0.00    +0.145 C 
ATOM      3  C   UNL     1       1.866  -3.283  -4.701  0.00  0.00    +0.076 C 
ATOM      4  C   UNL     1       3.045  -3.156  -4.047  0.00  0.00    +0.249 C 
ATOM      5  C   UNL     1       2.792  -2.627  -2.690  0.00  0.00    +0.288 C 
ATOM      6  O   UNL     1       3.650  -2.398  -1.860  0.00  0.00    -0.266 OA
ATOM      7  O   UNL     1       4.261  -3.461  -4.556  0.00  0.00    -0.282 OA
ENDROOT
BRANCH   2   8
ATOM      8  C   UNL     1      -0.174  -3.956  -3.474  0.00  0.00    -0.019 A 
ATOM      9  C   UNL     1       0.221  -5.028  -2.695  0.00  0.00    +0.006 A 
ATOM     10  C   UNL     1      -0.659  -6.064  -2.443  0.00  0.00    +0.004 A 
ATOM     11  C   UNL     1      -1.936  -6.031  -2.970  0.00  0.00    +0.045 A 
ATOM     12  C   UNL     1      -2.335  -4.957  -3.752  0.00  0.00    +0.121 A 
ATOM     13  C   UNL     1      -1.452  -3.915  -3.998  0.00  0.00    +0.051 A 
BRANCH  12  14
ATOM     14  O   UNL     1      -3.590  -4.922  -4.271  0.00  0.00    -0.492 OA
BRANCH  14  15
ATOM     15  C   UNL     1      -4.447  -6.026  -3.971  0.00  0.00    +0.229 C 
BRANCH  15  16
ATOM     16  C   UNL     1      -5.808  -5.811  -4.637  0.00  0.00    +0.044 C 
BRANCH  16  17
ATOM     17  C   UNL     1      -6.725  -6.992  -4.316  0.00  0.00    -0.014 C 
ATOM     18  C   UNL     1      -7.010  -7.023  -2.813  0.00  0.00    +0.007 C 
ATOM     19  C   UNL     1      -8.041  -6.839  -5.082  0.00  0.00    +0.007 C 
ENDBRANCH  16  17
ENDBRANCH  15  16
ENDBRANCH  14  15
ENDBRANCH  12  14
ENDBRANCH   2   8
BRANCH   3  20
ATOM     20  C   UNL     1       1.674  -3.768  -6.071  0.00  0.00    +0.195 C 
ATOM     21  O   UNL     1       1.934  -4.923  -6.349  0.00  0.00    -0.287 OA
BRANCH  20  22
ATOM     22  C   UNL     1       1.166  -2.852  -7.114  0.00  0.00    +0.022 A 
ATOM     23  C   UNL     1       0.985  -1.497  -6.831  0.00  0.00    +0.013 A 
ATOM     24  C   UNL     1       0.511  -0.648  -7.810  0.00  0.00    +0.029 A 
ATOM     25  C   UNL     1       0.213  -1.137  -9.070  0.00  0.00    +0.105 A 
ATOM     26  C   UNL     1       0.389  -2.480  -9.357  0.00  0.00    +0.029 A 
ATOM     27  C   UNL     1       0.869  -3.338  -8.390  0.00  0.00    +0.013 A 
BRANCH  25  28
ATOM     28  S   UNL     1      -0.393  -0.047 -10.313  0.00  0.00    +0.060 S 
ATOM     29  O   UNL     1      -1.112  -0.848 -11.241  0.00  0.00    -0.153 OA
ATOM     30  O   UNL     1      -0.986   1.052  -9.636  0.00  0.00    -0.153 OA
BRANCH  28  31
ATOM     31  N   UNL     1       0.922   0.551 -11.124  0.00  0.00    -0.183 NA
ATOM     32  C   UNL     1       1.440  -0.152 -12.300  0.00  0.00    +0.131 C 
ATOM     33  C   UNL     1       1.567   1.784 -10.664  0.00  0.00    +0.131 C 
ENDBRANCH  28  31
ENDBRANCH  25  28
ENDBRANCH  20  22
ENDBRANCH   3  20
BRANCH   1  34
ATOM     34  C   UNL     1       0.834  -1.930  -1.292  0.00  0.00    +0.109 C 
BRANCH  34  35
ATOM     35  C   UNL     1       0.735  -0.405  -1.367  0.00  0.00    +0.019 C 
BRANCH  35  37
ATOM     36  C   UNL     1      -0.031   1.651  -0.173  0.00  0.00    +0.004 C 
ATOM     37  C   UNL     1       0.067   0.126  -0.097  0.00  0.00    -0.002 C 
ENDBRANCH  35  37
ENDBRANCH  34  35
ENDBRANCH   1  34
TORSDOF 12
