REMARK  Name = ZINC04014100
REMARK  5 active torsions:
REMARK  status: ('A' for Active; 'I' for Inactive)
REMARK    1  A    between atoms: C_4  and  S_7
REMARK    2  A    between atoms: S_7  and  C_8
REMARK    3  A    between atoms: C_8  and  C_9
REMARK    4  A    between atoms: C_16  and  N_30
REMARK    5  A    between atoms: C_17  and  C_28
REMARK                            x       y       z     vdW  Elec       q    Type
REMARK                         _______ _______ _______ _____ _____    ______ ____
ROOT
ATOM      1  C   UNL     1       4.705  -3.433  -0.063  0.00  0.00    +0.081 A 
ATOM      2  C   UNL     1       5.367  -3.886  -1.196  0.00  0.00    +0.062 A 
ATOM      3  C   UNL     1       6.442  -4.630  -0.790  0.00  0.00    +0.223 A 
ATOM      4  N   UNL     1       6.446  -4.637   0.552  0.00  0.00    -0.246 N 
ATOM      5  H   UNL     1       7.093  -5.085   1.119  0.00  0.00    +0.192 HD
ATOM      6  N   UNL     1       5.350  -3.876   0.990  0.00  0.00    -0.175 NA
ATOM      7  O   UNL     1       7.296  -5.217  -1.665  0.00  0.00    -0.423 OA
ATOM      8  C   UNL     1       6.927  -5.284  -2.960  0.00  0.00    +0.201 C 
ATOM      9  C   UNL     1       5.891  -4.586  -3.483  0.00  0.00    +0.110 C 
ATOM     10  C   UNL     1       5.051  -3.660  -2.648  0.00  0.00    +0.145 C 
ATOM     11  C   UNL     1       5.266  -2.232  -3.035  0.00  0.00    -0.002 A 
ATOM     12  C   UNL     1       6.394  -1.440  -3.022  0.00  0.00    +0.007 A 
ATOM     13  C   UNL     1       6.249  -0.127  -3.456  0.00  0.00    +0.000 A 
ATOM     14  C   UNL     1       5.028   0.359  -3.879  0.00  0.00    +0.002 A 
ATOM     15  C   UNL     1       3.890  -0.431  -3.896  0.00  0.00    +0.023 A 
ATOM     16  C   UNL     1       4.022  -1.752  -3.463  0.00  0.00    +0.038 A 
ATOM     17  N   UNL     1       3.066  -2.748  -3.378  0.00  0.00    -0.284 N 
ATOM     18  C   UNL     1       3.581  -3.905  -2.910  0.00  0.00    +0.238 C 
ATOM     19  O   UNL     1       2.980  -4.944  -2.733  0.00  0.00    -0.274 OA
ATOM     20  H   UNL     1       2.136  -2.630  -3.625  0.00  0.00    +0.155 HD
ENDROOT
BRANCH   8  21
ATOM     21  N   UNL     1       7.643  -6.105  -3.796  0.00  0.00    -0.328 N 
ATOM     22  H   UNL     1       8.390  -6.616  -3.450  0.00  0.00    +0.145 HD
ATOM     23  H   UNL     1       7.400  -6.173  -4.732  0.00  0.00    +0.145 HD
ENDBRANCH   8  21
BRANCH   9  24
ATOM     24  C   UNL     1       5.586  -4.735  -4.874  0.00  0.00    +0.102 C 
ATOM     25  N   UNL     1       5.344  -4.853  -5.978  0.00  0.00    -0.191 NA
ENDBRANCH   9  24
BRANCH   1  26
ATOM     26  C   UNL     1       3.465  -2.578  -0.046  0.00  0.00    +0.132 C 
BRANCH  26  27
ATOM     27  S   UNL     1       3.939  -0.827  -0.042  0.00  0.00    -0.119 S 
BRANCH  27  31
ATOM     28  C   UNL     1      -0.017   1.379   0.010  0.00  0.00    +0.000 A 
ATOM     29  C   UNL     1       1.169   2.090   0.002  0.00  0.00    +0.001 A 
ATOM     30  C   UNL     1       2.377   1.421  -0.013  0.00  0.00    +0.015 A 
ATOM     31  C   UNL     1       2.400   0.031  -0.021  0.00  0.00    +0.008 A 
ATOM     32  C   UNL     1       1.206  -0.680  -0.013  0.00  0.00    +0.015 A 
ATOM     33  C   UNL     1       0.002  -0.004   0.002  0.00  0.00    +0.001 A 
ENDBRANCH  27  31
ENDBRANCH  26  27
ENDBRANCH   1  26
TORSDOF 5
