REMARK  Name = ZINC50362561
REMARK  8 active torsions:
REMARK  status: ('A' for Active; 'I' for Inactive)
REMARK    1  A    between atoms: C_1  and  C_2
REMARK    2  A    between atoms: C_2  and  C_3
REMARK    3  A    between atoms: C_2  and  C_4
REMARK    4  A    between atoms: C_2  and  C_5
REMARK    5  A    between atoms: N_8  and  C_11
REMARK    6  A    between atoms: C_11  and  C_13
REMARK    7  A    between atoms: C_11  and  C_15
REMARK    8  A    between atoms: C_13  and  N_14
REMARK                            x       y       z     vdW  Elec       q    Type
REMARK                         _______ _______ _______ _____ _____    ______ ____
ROOT
ATOM      1  C   UNL     1       3.665  -2.529  -3.561  0.00  0.00    -0.019 C 
ENDROOT
BRANCH   1   5
ATOM      2  C   UNL     1       0.521  -0.566  -1.458  0.00  0.00    -0.009 C 
ATOM      3  C   UNL     1       0.596  -2.096  -1.446  0.00  0.00    -0.015 C 
ATOM      4  C   UNL     1       1.464  -2.569  -2.614  0.00  0.00    -0.078 C 
ATOM      5  N   UNL     1       2.815  -2.011  -2.482  0.00  0.00    +0.385 N 
ATOM      6  C   UNL     1       2.759  -0.546  -2.565  0.00  0.00    -0.078 C 
ATOM      7  C   UNL     1       1.941   0.004  -1.395  0.00  0.00    -0.015 C 
ATOM      8  H   UNL     1       3.204  -2.281  -1.591  0.00  0.00    -0.081 HD
BRANCH   2  10
ATOM      9  C   UNL     1      -0.344   1.446  -0.256  0.00  0.00    +0.011 C 
ATOM     10  C   UNL     1      -0.279  -0.083  -0.247  0.00  0.00    -0.035 C 
ATOM     11  C   UNL     1       0.403  -0.557   1.037  0.00  0.00    +0.011 C 
ATOM     12  C   UNL     1      -1.697  -0.653  -0.312  0.00  0.00    +0.011 C 
ENDBRANCH   2  10
ENDBRANCH   1   5
BRANCH   1  13
ATOM     13  C   UNL     1       5.024  -1.883  -3.485  0.00  0.00    +0.092 A 
ATOM     14  C   UNL     1       5.756  -1.466  -4.533  0.00  0.00    +0.059 A 
ATOM     15  C   UNL     1       6.953  -0.924  -4.008  0.00  0.00    +0.070 A 
ATOM     16  C   UNL     1       6.880  -1.044  -2.669  0.00  0.00    +0.184 A 
ATOM     17  O   UNL     1       5.707  -1.621  -2.358  0.00  0.00    -0.454 OA
ATOM     18 BR   UNL     1       8.201  -0.488  -1.435  0.00  0.00    -0.007 Br
ATOM     19 BR   UNL     1       8.381  -0.177  -4.997  0.00  0.00    -0.046 Br
ENDBRANCH   1  13
BRANCH   1  20
ATOM     20  C   UNL     1       3.812  -4.045  -3.411  0.00  0.00    -0.094 C 
BRANCH  20  21
ATOM     21  N   UNL     1       4.584  -4.576  -4.542  0.00  0.00    +0.377 N 
ATOM     22  H   UNL     1       4.602  -5.584  -4.494  0.00  0.00    -0.090 HD
ATOM     23  H   UNL     1       4.153  -4.289  -5.408  0.00  0.00    -0.090 HD
ATOM     24  H   UNL     1       5.528  -4.221  -4.502  0.00  0.00    -0.090 HD
ENDBRANCH  20  21
ENDBRANCH   1  20
TORSDOF 5
