REMARK  Name = ZINC12480340
REMARK  10 active torsions:
REMARK  status: ('A' for Active; 'I' for Inactive)
REMARK    1  A    between atoms: C_1  and  N_2
REMARK    2  A    between atoms: C_6  and  C_7
REMARK    3  A    between atoms: C_7  and  C_9
REMARK    4  A    between atoms: C_7  and  N_19
REMARK    5  A    between atoms: N_11  and  C_12
REMARK    6  A    between atoms: C_12  and  C_13
REMARK    7  A    between atoms: N_19  and  C_20
REMARK    8  A    between atoms: C_20  and  C_21
REMARK    9  A    between atoms: C_28  and  C_30
REMARK   10  A    between atoms: C_30  and  N_31
REMARK                            x       y       z     vdW  Elec       q    Type
REMARK                         _______ _______ _______ _____ _____    ______ ____
ROOT
ATOM      1  N   UNL     1      -0.370   5.860  -1.643  0.00  0.00    -0.279 N 
ATOM      2  C   UNL     1       0.449   5.355  -0.700  0.00  0.00    +0.238 C 
ATOM      3  O   UNL     1       1.009   4.295  -0.887  0.00  0.00    -0.274 OA
ENDROOT
BRANCH   1   4
ATOM      4  C   UNL     1      -0.610   5.115  -2.881  0.00  0.00    +0.209 C 
BRANCH   4  10
ATOM      5  C   UNL     1       1.185   3.947  -5.124  0.00  0.00    +0.148 C 
ATOM      6  N   UNL     1       0.763   5.347  -5.026  0.00  0.00    -0.352 N 
ATOM      7  C   UNL     1       1.092   6.339  -5.902  0.00  0.00    +0.085 A 
ATOM      8  C   UNL     1       0.524   7.484  -5.474  0.00  0.00    +0.019 A 
ATOM      9  C   UNL     1      -0.186   7.188  -4.293  0.00  0.00    +0.025 A 
ATOM     10  C   UNL     1      -0.025   5.872  -4.045  0.00  0.00    +0.048 A 
ENDBRANCH   4  10
BRANCH   4  11
ATOM     11  C   UNL     1      -2.093   4.946  -3.086  0.00  0.00    +0.240 C 
ATOM     12  O   UNL     1      -2.846   4.990  -2.136  0.00  0.00    -0.273 OA
ATOM     13  N   UNL     1      -2.584   4.745  -4.325  0.00  0.00    -0.311 N 
ATOM     14  H   UNL     1      -1.978   4.651  -5.077  0.00  0.00    +0.149 HD
BRANCH  13  15
ATOM     15  C   UNL     1      -4.031   4.670  -4.537  0.00  0.00    +0.135 C 
BRANCH  15  16
ATOM     16  C   UNL     1      -4.318   4.439  -6.022  0.00  0.00    +0.135 C 
ATOM     17  C   UNL     1      -5.840   4.357  -6.255  0.00  0.00    +0.035 C 
ATOM     18  C   UNL     1      -6.129   5.492  -7.268  0.00  0.00    +0.031 C 
ATOM     19  C   UNL     1      -4.734   5.726  -7.902  0.00  0.00    +0.160 C 
ATOM     20  O   UNL     1      -3.826   5.547  -6.793  0.00  0.00    -0.375 OA
ENDBRANCH  15  16
ENDBRANCH  13  15
ENDBRANCH   4  11
ENDBRANCH   1   4
BRANCH   1  21
ATOM     21  C   UNL     1      -1.020   7.156  -1.431  0.00  0.00    +0.145 C 
BRANCH  21  22
ATOM     22  C   UNL     1      -2.407   6.938  -0.882  0.00  0.00    -0.012 A 
ATOM     23  C   UNL     1      -2.582   6.630   0.454  0.00  0.00    +0.006 A 
ATOM     24  C   UNL     1      -3.853   6.430   0.957  0.00  0.00    +0.000 A 
ATOM     25  C   UNL     1      -4.952   6.539   0.124  0.00  0.00    +0.001 A 
ATOM     26  C   UNL     1      -4.779   6.846  -1.212  0.00  0.00    +0.020 A 
ATOM     27  C   UNL     1      -3.506   7.052  -1.715  0.00  0.00    +0.046 A 
ATOM     28 CL   UNL     1      -3.288   7.447  -3.391  0.00  0.00    -0.083 Cl
ENDBRANCH  21  22
ENDBRANCH   1  21
BRANCH   2  29
ATOM     29  C   UNL     1       0.669   6.106   0.588  0.00  0.00    +0.241 C 
BRANCH  29  30
ATOM     30  N   UNL     1       1.539   5.321   1.468  0.00  0.00    -0.235 N 
ATOM     31  C   UNL     1       1.143   4.390   2.399  0.00  0.00    +0.090 A 
ATOM     32  C   UNL     1      -0.091   3.899   2.810  0.00  0.00    +0.029 A 
ATOM     33  C   UNL     1      -0.152   2.948   3.790  0.00  0.00    +0.002 A 
ATOM     34  C   UNL     1       1.009   2.466   4.380  0.00  0.00    +0.002 A 
ATOM     35  C   UNL     1       2.232   2.932   3.995  0.00  0.00    +0.032 A 
ATOM     36  C   UNL     1       2.322   3.907   2.993  0.00  0.00    +0.113 A 
ATOM     37  N   UNL     1       3.361   4.545   2.417  0.00  0.00    -0.129 NA
ATOM     38  N   UNL     1       2.939   5.372   1.527  0.00  0.00    -0.064 NA
ENDBRANCH  29  30
ENDBRANCH   2  29
TORSDOF 9
