REMARK  Name = ZINC05813870
REMARK  6 active torsions:
REMARK  status: ('A' for Active; 'I' for Inactive)
REMARK    1  A    between atoms: C_5  and  C_7
REMARK    2  A    between atoms: C_7  and  C_9
REMARK    3  A    between atoms: C_7  and  N_20
REMARK    4  A    between atoms: C_18  and  O_19
REMARK    5  A    between atoms: N_20  and  C_21
REMARK    6  A    between atoms: C_22  and  O_26
REMARK                            x       y       z     vdW  Elec       q    Type
REMARK                         _______ _______ _______ _____ _____    ______ ____
ROOT
ATOM      1  C   UNL     1       1.281  -0.719  -0.014  0.00  0.00    +0.137 C 
ENDROOT
BRANCH   1   2
ATOM      2  C   UNL     1       0.894  -2.013   0.656  0.00  0.00    +0.021 A 
ATOM      3  C   UNL     1       0.748  -3.165  -0.112  0.00  0.00    +0.010 A 
ATOM      4  C   UNL     1       0.406  -4.351   0.464  0.00  0.00    +0.010 A 
ATOM      5  C   UNL     1       0.184  -4.414   1.849  0.00  0.00    +0.004 A 
ATOM      6  C   UNL     1      -0.177  -5.621   2.479  0.00  0.00    +0.011 A 
ATOM      7  C   UNL     1      -0.376  -5.607   3.830  0.00  0.00    +0.020 A 
ATOM      8  C   UNL     1      -0.220  -4.421   4.544  0.00  0.00    +0.111 A 
ATOM      9  N   UNL     1       0.116  -3.300   3.954  0.00  0.00    -0.251 NA
ATOM     10  C   UNL     1       0.325  -3.245   2.635  0.00  0.00    +0.113 A 
ATOM     11  C   UNL     1       0.687  -2.035   2.005  0.00  0.00    +0.148 A 
BRANCH  11  12
ATOM     12  O   UNL     1       0.829  -0.900   2.737  0.00  0.00    -0.504 OA
ATOM     13  H   UNL     1       0.017  -0.382   2.822  0.00  0.00    +0.292 HD
ENDBRANCH  11  12
ENDBRANCH   1   2
BRANCH   1  18
ATOM     14  C   UNL     1       1.466  -1.178  -3.757  0.00  0.00    +0.000 A 
ATOM     15  C   UNL     1       2.790  -1.536  -3.927  0.00  0.00    +0.001 A 
ATOM     16  C   UNL     1       3.627  -1.630  -2.831  0.00  0.00    +0.020 A 
ATOM     17  C   UNL     1       3.140  -1.360  -1.564  0.00  0.00    +0.046 A 
ATOM     18  C   UNL     1       1.813  -1.008  -1.394  0.00  0.00    -0.004 A 
ATOM     19  C   UNL     1       0.977  -0.914  -2.491  0.00  0.00    +0.007 A 
ATOM     20 CL   UNL     1       4.192  -1.470  -0.188  0.00  0.00    -0.083 Cl
ENDBRANCH   1  18
BRANCH   1  21
ATOM     21  N   UNL     1       0.104   0.148  -0.116  0.00  0.00    -0.317 N 
ATOM     22  H   UNL     1      -0.783  -0.241  -0.160  0.00  0.00    +0.148 HD
BRANCH  21  23
ATOM     23  C   UNL     1       0.260   1.532  -0.150  0.00  0.00    +0.139 A 
ATOM     24  C   UNL     1      -0.864   2.353  -0.253  0.00  0.00    +0.155 A 
ATOM     25  C   UNL     1      -0.691   3.728  -0.281  0.00  0.00    +0.050 A 
ATOM     26  C   UNL     1       0.601   4.235  -0.216  0.00  0.00    +0.021 A 
ATOM     27  C   UNL     1       1.665   3.363  -0.120  0.00  0.00    +0.084 A 
ATOM     28  N   UNL     1       1.536   2.008  -0.085  0.00  0.00    -0.347 N 
ATOM     29  H   UNL     1       2.348   1.385  -0.013  0.00  0.00    +0.167 HD
BRANCH  24  30
ATOM     30  O   UNL     1      -2.110   1.812  -0.320  0.00  0.00    -0.503 OA
ATOM     31  H   UNL     1      -2.530   1.684   0.542  0.00  0.00    +0.292 HD
ENDBRANCH  24  30
ENDBRANCH  21  23
ENDBRANCH   1  21
TORSDOF 6
