REMARK  Name = ZINC55616218
REMARK  10 active torsions:
REMARK  status: ('A' for Active; 'I' for Inactive)
REMARK    1  A    between atoms: C_1  and  C_2
REMARK    2  A    between atoms: C_5  and  N_10
REMARK    3  A    between atoms: C_6  and  C_9
REMARK    4  A    between atoms: C_7  and  O_8
REMARK    5  A    between atoms: N_10  and  S_11
REMARK    6  A    between atoms: S_11  and  C_14
REMARK    7  A    between atoms: C_17  and  C_20
REMARK    8  A    between atoms: C_20  and  C_21
REMARK    9  A    between atoms: C_21  and  N_22
REMARK   10  A    between atoms: C_23  and  C_25
REMARK                            x       y       z     vdW  Elec       q    Type
REMARK                         _______ _______ _______ _____ _____    ______ ____
ROOT
ATOM      1  S   UNL     1       0.781  -4.979  -1.278  0.00  0.00    +0.072 S 
ATOM      2  O   UNL     1       0.558  -6.363  -1.051  0.00  0.00    -0.150 OA
ATOM      3  O   UNL     1       0.371  -4.327  -2.472  0.00  0.00    -0.150 OA
ENDROOT
BRANCH   1   4
ATOM      4  C   UNL     1       2.518  -4.718  -1.134  0.00  0.00    +0.109 A 
ATOM      5  C   UNL     1       3.108  -3.634  -1.756  0.00  0.00    +0.029 A 
ATOM      6  C   UNL     1       4.471  -3.430  -1.643  0.00  0.00    +0.005 A 
ATOM      7  C   UNL     1       5.243  -4.309  -0.908  0.00  0.00    -0.046 A 
ATOM      8  C   UNL     1       4.652  -5.393  -0.285  0.00  0.00    +0.005 A 
ATOM      9  C   UNL     1       3.289  -5.595  -0.394  0.00  0.00    +0.029 A 
BRANCH   7  10
ATOM     10  C   UNL     1       6.728  -4.087  -0.785  0.00  0.00    +0.054 C 
BRANCH  10  11
ATOM     11  C   UNL     1       7.014  -3.214   0.438  0.00  0.00    +0.109 C 
BRANCH  11  12
ATOM     12  N   UNL     1       8.458  -2.998   0.557  0.00  0.00    -0.315 N 
ATOM     13  C   UNL     1       8.947  -2.253   1.568  0.00  0.00    +0.210 C 
ATOM     14  O   UNL     1       8.192  -1.761   2.380  0.00  0.00    -0.276 OA
ATOM     15  C   UNL     1      10.433  -2.030   1.690  0.00  0.00    +0.109 C 
ATOM     16  H   UNL     1       9.063  -3.391  -0.092  0.00  0.00    +0.149 HD
ENDBRANCH  11  12
ENDBRANCH  10  11
ENDBRANCH   7  10
ENDBRANCH   1   4
BRANCH   1  17
ATOM     17  N   UNL     1       0.059  -4.171  -0.026  0.00  0.00    -0.216 N 
ATOM     18  H   UNL     1      -0.468  -4.658   0.626  0.00  0.00    +0.174 HD
BRANCH  17  23
ATOM     19  C   UNL     1       0.672   1.451   0.443  0.00  0.00    +0.047 C 
ATOM     20  C   UNL     1       0.509  -0.042   0.320  0.00  0.00    -0.009 A 
ATOM     21  C   UNL     1       0.417  -0.626  -0.930  0.00  0.00    +0.009 A 
ATOM     22  C   UNL     1       0.268  -1.994  -1.047  0.00  0.00    +0.025 A 
ATOM     23  C   UNL     1       0.211  -2.787   0.092  0.00  0.00    +0.054 A 
ATOM     24  C   UNL     1       0.303  -2.203   1.348  0.00  0.00    +0.014 A 
ATOM     25  C   UNL     1       0.458  -0.830   1.461  0.00  0.00    +0.124 A 
ATOM     26  C   UNL     1       0.241  -3.060   2.586  0.00  0.00    +0.049 C 
BRANCH  25  27
ATOM     27  O   UNL     1       0.554  -0.256   2.688  0.00  0.00    -0.506 OA
ATOM     28  H   UNL     1      -0.296   0.004   3.069  0.00  0.00    +0.292 HD
ENDBRANCH  25  27
ENDBRANCH  17  23
ENDBRANCH   1  17
TORSDOF 7
