REMARK  Name = ZINC20347878
REMARK  11 active torsions:
REMARK  status: ('A' for Active; 'I' for Inactive)
REMARK    1  A    between atoms: C_1  and  C_2
REMARK    2  A    between atoms: C_6  and  N_8
REMARK    3  A    between atoms: C_9  and  C_11
REMARK    4  A    between atoms: C_11  and  S_12
REMARK    5  A    between atoms: S_12  and  C_13
REMARK    6  A    between atoms: C_14  and  C_36
REMARK    7  A    between atoms: C_15  and  C_31
REMARK    8  A    between atoms: C_17  and  C_21
REMARK    9  A    between atoms: C_18  and  C_20
REMARK   10  A    between atoms: N_23  and  C_24
REMARK   11  A    between atoms: C_29  and  C_30
REMARK                            x       y       z     vdW  Elec       q    Type
REMARK                         _______ _______ _______ _____ _____    ______ ____
ROOT
ATOM      1  C   UNL     1       2.128  -3.687  -0.328  0.00  0.00    +0.080 C 
ATOM      2  C   UNL     1       2.286  -5.038  -0.317  0.00  0.00    +0.069 C 
ATOM      3  C   UNL     1       3.646  -5.664  -0.442  0.00  0.00    +0.105 C 
ATOM      4  C   UNL     1       4.725  -4.655  -0.170  0.00  0.00    +0.044 C 
ATOM      5  C   UNL     1       4.477  -3.335  -0.183  0.00  0.00    +0.014 C 
ATOM      6  N   UNL     1       3.220  -2.856  -0.437  0.00  0.00    -0.312 N 
ATOM      7  C   UNL     1       5.599  -2.367   0.087  0.00  0.00    +0.061 C 
ATOM      8  H   UNL     1       3.085  -1.805  -0.730  0.00  0.00    +0.152 HD
ENDROOT
BRANCH   3   9
ATOM      9  C   UNL     1       3.819  -6.211  -1.835  0.00  0.00    +0.002 A 
ATOM     10  C   UNL     1       4.037  -7.489  -2.230  0.00  0.00    +0.012 A 
ATOM     11  C   UNL     1       4.162  -7.763  -3.579  0.00  0.00    +0.008 A 
ATOM     12  C   UNL     1       4.073  -6.743  -4.467  0.00  0.00    +0.045 A 
ATOM     13  S   UNL     1       3.797  -5.343  -3.395  0.00  0.00    -0.101 S 
ENDBRANCH   3   9
BRANCH   4  14
ATOM     14  C   UNL     1       6.037  -5.107   0.106  0.00  0.00    +0.247 C 
ATOM     15  O   UNL     1       6.924  -4.302   0.329  0.00  0.00    -0.270 OA
ATOM     16  N   UNL     1       6.306  -6.428   0.124  0.00  0.00    -0.281 N 
ATOM     17  H   UNL     1       5.524  -7.151  -0.151  0.00  0.00    +0.155 HD
BRANCH  16  18
ATOM     18  C   UNL     1       7.577  -6.878   0.492  0.00  0.00    +0.037 A 
ATOM     19  C   UNL     1       8.703  -6.136   0.155  0.00  0.00    +0.023 A 
ATOM     20  C   UNL     1       9.957  -6.584   0.520  0.00  0.00    +0.002 A 
ATOM     21  C   UNL     1      10.094  -7.769   1.220  0.00  0.00    +0.000 A 
ATOM     22  C   UNL     1       8.976  -8.509   1.557  0.00  0.00    +0.005 A 
ATOM     23  C   UNL     1       7.718  -8.064   1.200  0.00  0.00    -0.029 A 
ATOM     24  C   UNL     1       6.499  -8.868   1.573  0.00  0.00    +0.045 C 
ENDBRANCH  16  18
ENDBRANCH   4  14
BRANCH   2  25
ATOM     25  C   UNL     1       1.135  -5.879  -0.187  0.00  0.00    +0.098 C 
ATOM     26  N   UNL     1       0.221  -6.547  -0.085  0.00  0.00    -0.191 NA
ENDBRANCH   2  25
BRANCH   1  27
ATOM     27  S   UNL     1       0.513  -2.995  -0.195  0.00  0.00    -0.100 S 
BRANCH  27  28
ATOM     28  C   UNL     1       0.920  -1.232  -0.257  0.00  0.00    +0.171 C 
BRANCH  28  30
ATOM     29  N   UNL     1      -0.286   0.926  -0.181  0.00  0.00    -0.285 N 
ATOM     30  C   UNL     1      -0.345  -0.420  -0.156  0.00  0.00    +0.227 C 
ATOM     31  O   UNL     1      -1.417  -0.979  -0.053  0.00  0.00    -0.275 OA
ATOM     32  H   UNL     1       0.690   1.433  -0.176  0.00  0.00    +0.155 HD
BRANCH  29  38
ATOM     33  C   UNL     1      -2.661   5.118   0.796  0.00  0.00    +0.044 C 
ATOM     34  C   UNL     1      -2.645   3.712   0.254  0.00  0.00    -0.049 A 
ATOM     35  C   UNL     1      -3.798   3.164  -0.278  0.00  0.00    +0.003 A 
ATOM     36  C   UNL     1      -3.788   1.875  -0.777  0.00  0.00    +0.002 A 
ATOM     37  C   UNL     1      -2.624   1.132  -0.751  0.00  0.00    +0.023 A 
ATOM     38  C   UNL     1      -1.466   1.677  -0.213  0.00  0.00    +0.034 A 
ATOM     39  C   UNL     1      -1.479   2.973   0.287  0.00  0.00    +0.026 A 
ENDBRANCH  29  38
ENDBRANCH  28  30
ENDBRANCH  27  28
ENDBRANCH   1  27
TORSDOF 8
