REMARK  Name = ZINC40804531
REMARK  6 active torsions:
REMARK  status: ('A' for Active; 'I' for Inactive)
REMARK    1  A    between atoms: C_1  and  C_2
REMARK    2  A    between atoms: C_5  and  C_8
REMARK    3  A    between atoms: N_10  and  N_11
REMARK    4  A    between atoms: C_18  and  C_36
REMARK    5  A    between atoms: C_19  and  C_21
REMARK    6  A    between atoms: C_32  and  C_34
REMARK                            x       y       z     vdW  Elec       q    Type
REMARK                         _______ _______ _______ _____ _____    ______ ____
ROOT
ATOM      1  N   UNL     1       0.617  -6.535   2.382  0.00  0.00    -0.184 NA
ATOM      2  C   UNL     1      -0.281  -7.205   3.037  0.00  0.00    +0.070 C 
ATOM      3  C   UNL     1      -1.190  -6.556   4.071  0.00  0.00    +0.058 C 
ATOM      4  C   UNL     1      -1.295  -7.497   5.276  0.00  0.00    +0.014 C 
ATOM      5  C   UNL     1      -1.982  -8.806   4.880  0.00  0.00    +0.075 C 
ATOM      6  C   UNL     1      -1.282  -9.397   3.682  0.00  0.00    +0.115 A 
ATOM      7  C   UNL     1      -0.499  -8.653   2.830  0.00  0.00    +0.042 A 
ATOM      8  C   UNL     1      -0.017  -9.517   1.839  0.00  0.00    +0.009 A 
ATOM      9  C   UNL     1      -0.532 -10.751   2.123  0.00  0.00    +0.193 A 
ATOM     10  O   UNL     1      -1.287 -10.654   3.244  0.00  0.00    -0.454 OA
ATOM     11  C   UNL     1       0.889  -9.157   0.689  0.00  0.00    +0.048 C 
ENDROOT
BRANCH   9  12
ATOM     12  C   UNL     1      -0.296 -11.976   1.351  0.00  0.00    +0.287 C 
ATOM     13  O   UNL     1      -0.415 -11.964   0.140  0.00  0.00    -0.266 OA
ATOM     14  N   UNL     1       0.051 -13.114   1.983  0.00  0.00    -0.262 N 
ATOM     15  C   UNL     1       0.309 -13.114   3.361  0.00  0.00    +0.040 A 
ATOM     16  C   UNL     1       0.481 -11.900   4.017  0.00  0.00    +0.026 A 
ATOM     17  C   UNL     1       0.732 -11.877   5.374  0.00  0.00    +0.040 A 
ATOM     18  C   UNL     1       0.811 -13.065   6.082  0.00  0.00    +0.124 A 
ATOM     19  C   UNL     1       0.641 -14.273   5.430  0.00  0.00    +0.043 A 
ATOM     20  C   UNL     1       0.392 -14.303   4.068  0.00  0.00    -0.023 A 
ATOM     21  C   UNL     1       0.222 -15.636   3.388  0.00  0.00    +0.039 C 
ATOM     22  C   UNL     1      -0.524 -15.471   2.064  0.00  0.00    +0.027 C 
ATOM     23  C   UNL     1       0.160 -14.377   1.241  0.00  0.00    +0.079 C 
ATOM     24  C   UNL     1      -0.532 -14.242  -0.117  0.00  0.00    +0.028 C 
ATOM     25  F   UNL     1       1.056 -13.044   7.410  0.00  0.00    -0.205 F 
ENDBRANCH   9  12
BRANCH   1  28
ATOM     26  C   UNL     1       1.713  -4.468   1.939  0.00  0.00    +0.263 C 
ATOM     27  O   UNL     1       2.413  -5.031   1.119  0.00  0.00    -0.268 OA
ATOM     28  N   UNL     1       0.780  -5.164   2.620  0.00  0.00    -0.203 N 
ATOM     29  H   UNL     1       0.223  -4.715   3.274  0.00  0.00    +0.178 HD
BRANCH  26  34
ATOM     30  C   UNL     1       2.384   1.163   2.915  0.00  0.00    +0.044 C 
ATOM     31  C   UNL     1       2.208  -0.312   2.659  0.00  0.00    -0.050 A 
ATOM     32  C   UNL     1       3.006  -0.949   1.725  0.00  0.00    +0.004 A 
ATOM     33  C   UNL     1       2.850  -2.299   1.487  0.00  0.00    +0.013 A 
ATOM     34  C   UNL     1       1.885  -3.022   2.190  0.00  0.00    +0.038 A 
ATOM     35  C   UNL     1       1.084  -2.373   3.131  0.00  0.00    +0.013 A 
ATOM     36  C   UNL     1       1.253  -1.024   3.363  0.00  0.00    +0.004 A 
ENDBRANCH  26  34
ENDBRANCH   1  28
TORSDOF 3
