REMARK  Name = ZINC00802975
REMARK  7 active torsions:
REMARK  status: ('A' for Active; 'I' for Inactive)
REMARK    1  A    between atoms: C_1  and  C_2
REMARK    2  A    between atoms: C_2  and  C_3
REMARK    3  A    between atoms: C_2  and  N_4
REMARK    4  A    between atoms: C_5  and  C_7
REMARK    5  A    between atoms: C_12  and  N_13
REMARK    6  A    between atoms: C_14  and  C_16
REMARK    7  A    between atoms: C_16  and  N_17
REMARK                            x       y       z     vdW  Elec       q    Type
REMARK                         _______ _______ _______ _____ _____    ______ ____
ROOT
ATOM      1  N   UNL     1       0.186  -0.168  -0.060  0.00  0.00    -0.284 N 
ATOM      2  C   UNL     1      -0.892  -0.974   0.007  0.00  0.00    +0.235 C 
ATOM      3  O   UNL     1      -2.007  -0.497   0.015  0.00  0.00    -0.274 OA
ATOM      4  H   UNL     1       1.073  -0.550  -0.148  0.00  0.00    +0.155 HD
ENDROOT
BRANCH   1  10
ATOM      5  C   UNL     1       0.984   2.059  -0.583  0.00  0.00    +0.058 A 
ATOM      6  C   UNL     1       0.812   3.444  -0.520  0.00  0.00    +0.015 A 
ATOM      7  C   UNL     1      -0.294   3.971   0.110  0.00  0.00    +0.001 A 
ATOM      8  C   UNL     1      -1.239   3.134   0.682  0.00  0.00    +0.002 A 
ATOM      9  C   UNL     1      -1.085   1.764   0.623  0.00  0.00    +0.024 A 
ATOM     10  C   UNL     1       0.026   1.215  -0.003  0.00  0.00    +0.046 A 
BRANCH   5  12
ATOM     11  N   UNL     1       3.137   2.302  -1.718  0.00  0.00    -0.309 N 
ATOM     12  C   UNL     1       2.166   1.489  -1.256  0.00  0.00    +0.246 C 
ATOM     13  O   UNL     1       2.265   0.285  -1.395  0.00  0.00    -0.270 OA
ATOM     14  H   UNL     1       3.058   3.262  -1.608  0.00  0.00    +0.149 HD
BRANCH  11  16
ATOM     15  C   UNL     1       4.914   2.779  -3.329  0.00  0.00    +0.027 C 
ATOM     16  C   UNL     1       4.311   1.735  -2.387  0.00  0.00    +0.067 C 
ATOM     17  C   UNL     1       5.350   1.332  -1.339  0.00  0.00    +0.027 C 
ENDBRANCH  11  16
ENDBRANCH   5  12
ENDBRANCH   1  10
BRANCH   2  18
ATOM     18  C   UNL     1      -0.712  -2.469   0.073  0.00  0.00    +0.210 C 
BRANCH  18  19
ATOM     19  N   UNL     1      -2.025  -3.116   0.139  0.00  0.00    -0.258 N 
ATOM     20  C   UNL     1      -2.767  -3.521  -0.963  0.00  0.00    +0.046 A 
ATOM     21  C   UNL     1      -2.629  -3.498  -2.339  0.00  0.00    +0.024 A 
ATOM     22  C   UNL     1      -3.635  -4.022  -3.149  0.00  0.00    +0.002 A 
ATOM     23  C   UNL     1      -4.785  -4.575  -2.654  0.00  0.00    +0.008 A 
ATOM     24  C   UNL     1      -4.963  -4.618  -1.262  0.00  0.00    -0.015 A 
ATOM     25  C   UNL     1      -3.940  -4.086  -0.475  0.00  0.00    +0.016 A 
ATOM     26  C   UNL     1      -3.960  -4.048   0.927  0.00  0.00    +0.047 A 
ATOM     27  C   UNL     1      -5.075  -4.581   1.548  0.00  0.00    +0.014 A 
ATOM     28  C   UNL     1      -6.106  -5.118   0.777  0.00  0.00    +0.001 A 
ATOM     29  C   UNL     1      -6.078  -5.149  -0.592  0.00  0.00    +0.008 A 
ATOM     30  C   UNL     1      -2.687  -3.412   1.288  0.00  0.00    +0.252 C 
ATOM     31  O   UNL     1      -2.296  -3.187   2.418  0.00  0.00    -0.270 OA
ENDBRANCH  18  19
ENDBRANCH   2  18
TORSDOF 5
