REMARK  Name = ZINC09345959
REMARK  6 active torsions:
REMARK  status: ('A' for Active; 'I' for Inactive)
REMARK    1  A    between atoms: C_1  and  O_2
REMARK    2  A    between atoms: O_2  and  C_3
REMARK    3  A    between atoms: C_6  and  C_9
REMARK    4  A    between atoms: C_20  and  C_22
REMARK    5  A    between atoms: C_27  and  O_28
REMARK    6  A    between atoms: O_28  and  C_29
REMARK                            x       y       z     vdW  Elec       q    Type
REMARK                         _______ _______ _______ _____ _____    ______ ____
ROOT
ATOM      1  C   UNL     1      -5.056  -2.190   0.036  0.00  0.00    +0.163 C 
ATOM      2  C   UNL     1      -5.236  -2.925   1.346  0.00  0.00    +0.028 C 
ATOM      3  C   UNL     1      -5.330  -4.271   1.309  0.00  0.00    +0.083 C 
ATOM      4  C   UNL     1      -5.517  -4.981   2.599  0.00  0.00    +0.044 A 
ATOM      5  C   UNL     1      -5.307  -6.349   2.711  0.00  0.00    +0.033 A 
ATOM      6  C   UNL     1      -5.491  -6.969   3.933  0.00  0.00    +0.042 A 
ATOM      7  C   UNL     1      -5.881  -6.231   5.038  0.00  0.00    +0.023 A 
ATOM      8  C   UNL     1      -6.092  -4.868   4.933  0.00  0.00    +0.048 A 
ATOM      9  C   UNL     1      -5.913  -4.234   3.716  0.00  0.00    +0.131 A 
ATOM     10  O   UNL     1      -6.121  -2.900   3.583  0.00  0.00    -0.479 OA
ATOM     11  C   UNL     1      -5.301  -2.190   2.652  0.00  0.00    +0.238 C 
ATOM     12 CL   UNL     1      -5.232  -8.679   4.083  0.00  0.00    -0.084 Cl
ATOM     13  N   UNL     1      -5.256  -4.950   0.138  0.00  0.00    -0.216 NA
ATOM     14  C   UNL     1      -5.100  -4.381  -1.037  0.00  0.00    +0.209 C 
ATOM     15  N   UNL     1      -4.992  -3.030  -1.169  0.00  0.00    -0.182 N 
ATOM     16  N   UNL     1      -4.837  -2.750  -2.527  0.00  0.00    -0.169 NA
ATOM     17  C   UNL     1      -4.846  -3.868  -3.178  0.00  0.00    +0.208 C 
ATOM     18  N   UNL     1      -5.008  -4.901  -2.301  0.00  0.00    -0.275 N 
ATOM     19  H   UNL     1      -5.047  -5.842  -2.534  0.00  0.00    +0.156 HD
ENDROOT
BRANCH   1  23
ATOM     20  C   UNL     1      -1.441   0.078   0.270  0.00  0.00    +0.120 A 
ATOM     21  C   UNL     1      -2.659   0.681   0.550  0.00  0.00    +0.046 A 
ATOM     22  C   UNL     1      -3.826  -0.054   0.473  0.00  0.00    +0.009 A 
ATOM     23  C   UNL     1      -3.781  -1.390   0.119  0.00  0.00    -0.021 A 
ATOM     24  C   UNL     1      -2.568  -1.993  -0.160  0.00  0.00    +0.009 A 
ATOM     25  C   UNL     1      -1.399  -1.261  -0.091  0.00  0.00    +0.046 A 
BRANCH  20  27
ATOM     26  C   UNL     1      -0.410   2.172   0.722  0.00  0.00    +0.277 C 
ATOM     27  O   UNL     1      -0.292   0.799   0.344  0.00  0.00    -0.495 OA
ENDBRANCH  20  27
ENDBRANCH   1  23
BRANCH  11  28
ATOM     28  C   UNL     1      -3.910  -2.053   3.216  0.00  0.00    +0.039 A 
ATOM     29  C   UNL     1      -2.967  -3.034   2.976  0.00  0.00    +0.011 A 
ATOM     30  C   UNL     1      -1.691  -2.909   3.494  0.00  0.00    +0.001 A 
ATOM     31  C   UNL     1      -1.356  -1.802   4.253  0.00  0.00    +0.004 A 
ATOM     32  C   UNL     1      -2.295  -0.819   4.496  0.00  0.00    +0.046 A 
ATOM     33  C   UNL     1      -3.575  -0.940   3.973  0.00  0.00    +0.127 A 
BRANCH  33  34
ATOM     34  O   UNL     1      -4.499   0.029   4.206  0.00  0.00    -0.495 OA
ATOM     35  C   UNL     1      -4.062   1.184   4.925  0.00  0.00    +0.277 C 
ENDBRANCH  33  34
ENDBRANCH  11  28
TORSDOF 4
