REMARK  Name = ZINC20134642
REMARK  5 active torsions:
REMARK  status: ('A' for Active; 'I' for Inactive)
REMARK    1  A    between atoms: C_4  and  C_7
REMARK    2  A    between atoms: C_10  and  C_32
REMARK    3  A    between atoms: C_17  and  C_20
REMARK    4  A    between atoms: C_20  and  C_21
REMARK    5  A    between atoms: N_23  and  C_24
REMARK                            x       y       z     vdW  Elec       q    Type
REMARK                         _______ _______ _______ _____ _____    ______ ____
ROOT
ATOM      1  C   UNL     1       5.808   9.586  -3.001  0.00  0.00    +0.136 C 
ATOM      2  C   UNL     1       6.595   9.590  -4.326  0.00  0.00    +0.087 C 
ATOM      3  C   UNL     1       6.746   8.124  -4.665  0.00  0.00    +0.069 C 
ATOM      4  N   UNL     1       6.184   7.411  -3.750  0.00  0.00    -0.182 NA
ATOM      5  N   UNL     1       5.598   8.155  -2.729  0.00  0.00    -0.195 N 
ATOM      6  C   UNL     1       4.939   7.641  -1.649  0.00  0.00    +0.170 C 
ATOM      7  N   UNL     1       4.369   8.298  -0.648  0.00  0.00    -0.157 NA
ATOM      8  C   UNL     1       3.756   7.727   0.353  0.00  0.00    +0.252 C 
ATOM      9  O   UNL     1       3.245   8.366   1.253  0.00  0.00    -0.272 OA
ATOM     10  C   UNL     1       3.725   6.204   0.316  0.00  0.00    +0.150 C 
ATOM     11  S   UNL     1       4.644   5.923  -1.252  0.00  0.00    -0.078 S 
ENDROOT
BRANCH   1  15
ATOM     12  C   UNL     1       8.098  11.388   0.123  0.00  0.00    +0.000 A 
ATOM     13  C   UNL     1       7.053  12.083  -0.458  0.00  0.00    +0.000 A 
ATOM     14  C   UNL     1       6.313  11.500  -1.469  0.00  0.00    +0.005 A 
ATOM     15  C   UNL     1       6.616  10.222  -1.899  0.00  0.00    -0.025 A 
ATOM     16  C   UNL     1       7.657   9.525  -1.315  0.00  0.00    +0.005 A 
ATOM     17  C   UNL     1       8.401  10.110  -0.307  0.00  0.00    +0.000 A 
ENDBRANCH   1  15
BRANCH   3  18
ATOM     18  C   UNL     1       7.434   7.592  -5.856  0.00  0.00    -0.002 A 
ATOM     19  C   UNL     1       8.009   8.465  -6.783  0.00  0.00    +0.010 A 
ATOM     20  C   UNL     1       8.657   7.960  -7.891  0.00  0.00    +0.001 A 
ATOM     21  C   UNL     1       8.728   6.593  -8.091  0.00  0.00    +0.000 A 
ATOM     22  C   UNL     1       8.156   5.722  -7.180  0.00  0.00    +0.001 A 
ATOM     23  C   UNL     1       7.511   6.213  -6.064  0.00  0.00    +0.010 A 
ENDBRANCH   3  18
BRANCH  10  24
ATOM     24  C   UNL     1       2.292   5.676   0.225  0.00  0.00    +0.120 C 
BRANCH  24  25
ATOM     25  C   UNL     1       2.316   4.175   0.104  0.00  0.00    +0.219 C 
ATOM     26  O   UNL     1       3.375   3.584   0.091  0.00  0.00    -0.275 OA
ATOM     27  N   UNL     1       1.160   3.487   0.009  0.00  0.00    -0.285 N 
ATOM     28  H   UNL     1       0.204   4.027  -0.067  0.00  0.00    +0.155 HD
BRANCH  27  29
ATOM     29  C   UNL     1       1.176   2.087   0.008  0.00  0.00    +0.035 A 
ATOM     30  C   UNL     1       0.235   1.382  -0.730  0.00  0.00    +0.026 A 
ATOM     31  C   UNL     1       0.252   0.001  -0.731  0.00  0.00    +0.041 A 
ATOM     32  C   UNL     1       1.206  -0.681   0.005  0.00  0.00    +0.142 A 
ATOM     33  C   UNL     1       2.147   0.020   0.742  0.00  0.00    +0.078 A 
ATOM     34  C   UNL     1       2.133   1.403   0.745  0.00  0.00    +0.046 A 
ATOM     35 CL   UNL     1       3.343  -0.837   1.663  0.00  0.00    -0.081 Cl
ATOM     36  F   UNL     1       1.221  -2.032   0.004  0.00  0.00    -0.204 F 
ENDBRANCH  27  29
ENDBRANCH  24  25
ENDBRANCH  10  24
TORSDOF 5
