REMARK  Name = ZINC64713770
REMARK  7 active torsions:
REMARK  status: ('A' for Active; 'I' for Inactive)
REMARK    1  A    between atoms: C_1  and  C_2
REMARK    2  A    between atoms: C_2  and  C_3
REMARK    3  A    between atoms: C_6  and  C_9
REMARK    4  A    between atoms: C_17  and  S_21
REMARK    5  A    between atoms: S_21  and  C_22
REMARK    6  A    between atoms: C_22  and  C_23
REMARK    7  A    between atoms: C_26  and  C_29
REMARK                            x       y       z     vdW  Elec       q    Type
REMARK                         _______ _______ _______ _____ _____    ______ ____
ROOT
ATOM      1  C   UNL     1      -5.241  -1.768   0.472  0.00  0.00    +0.047 C 
ATOM      2  C   UNL     1      -5.832  -2.131  -0.691  0.00  0.00    +0.027 C 
ATOM      3  C   UNL     1      -7.170  -2.678  -0.273  0.00  0.00    +0.193 C 
ATOM      4  C   UNL     1      -7.644  -3.906  -0.989  0.00  0.00    +0.276 C 
ATOM      5  O   UNL     1      -7.353  -4.124  -2.141  0.00  0.00    -0.270 OA
ATOM      6  N   UNL     1      -8.417  -4.759  -0.270  0.00  0.00    -0.081 NA
ATOM      7  N   UNL     1      -8.643  -4.628   0.935  0.00  0.00    -0.163 NA
ATOM      8  C   UNL     1      -8.068  -3.548   1.756  0.00  0.00    +0.272 C 
ATOM      9  N   UNL     1      -6.843  -3.118   1.123  0.00  0.00    -0.178 NA
ATOM     10  N   UNL     1      -6.104  -2.073   1.552  0.00  0.00    -0.274 N 
ATOM     11  H   UNL     1      -6.155  -1.628   2.413  0.00  0.00    +0.167 HD
ENDROOT
BRANCH   1  15
ATOM     12  C   UNL     1      -1.389  -0.009   0.826  0.00  0.00    -0.048 A 
ATOM     13  C   UNL     1      -2.139  -0.258   1.961  0.00  0.00    +0.004 A 
ATOM     14  C   UNL     1      -3.391  -0.829   1.852  0.00  0.00    +0.010 A 
ATOM     15  C   UNL     1      -3.899  -1.155   0.595  0.00  0.00    -0.003 A 
ATOM     16  C   UNL     1      -3.137  -0.902  -0.545  0.00  0.00    +0.010 A 
ATOM     17  C   UNL     1      -1.889  -0.325  -0.424  0.00  0.00    +0.004 A 
BRANCH  12  19
ATOM     18  C   UNL     1      -0.152   2.139   0.898  0.00  0.00    +0.009 C 
ATOM     19  C   UNL     1      -0.023   0.615   0.951  0.00  0.00    +0.032 C 
ENDBRANCH  12  19
ENDBRANCH   1  15
BRANCH   8  20
ATOM     20  S   UNL     1      -9.221  -2.150   1.837  0.00  0.00    -0.111 S 
BRANCH  20  21
ATOM     21  C   UNL     1     -10.507  -2.709   2.988  0.00  0.00    +0.107 C 
BRANCH  21  22
ATOM     22  C   UNL     1     -11.514  -1.606   3.191  0.00  0.00    -0.037 A 
ATOM     23  C   UNL     1     -11.330  -0.680   4.201  0.00  0.00    +0.005 A 
ATOM     24  C   UNL     1     -12.252   0.332   4.388  0.00  0.00    +0.003 A 
ATOM     25  C   UNL     1     -13.359   0.419   3.563  0.00  0.00    -0.050 A 
ATOM     26  C   UNL     1     -13.543  -0.506   2.553  0.00  0.00    +0.003 A 
ATOM     27  C   UNL     1     -12.617  -1.516   2.364  0.00  0.00    +0.005 A 
ATOM     28  C   UNL     1     -14.366   1.522   3.767  0.00  0.00    +0.044 C 
ENDBRANCH  21  22
ENDBRANCH  20  21
ENDBRANCH   8  20
TORSDOF 5
