REMARK  Name = ZINC66974042
REMARK  6 active torsions:
REMARK  status: ('A' for Active; 'I' for Inactive)
REMARK    1  A    between atoms: C_3  and  C_13
REMARK    2  A    between atoms: C_5  and  N_7
REMARK    3  A    between atoms: C_13  and  N_14
REMARK    4  A    between atoms: N_14  and  C_15
REMARK    5  A    between atoms: C_15  and  C_16
REMARK    6  A    between atoms: C_21  and  O_22
REMARK                            x       y       z     vdW  Elec       q    Type
REMARK                         _______ _______ _______ _____ _____    ______ ____
ROOT
ATOM      1  N   UNL     1       4.104   2.438   1.360  0.00  0.00    +0.384 N 
ATOM      2  H   UNL     1       3.396   2.968   1.846  0.00  0.00    -0.085 HD
ATOM      3  H   UNL     1       4.245   1.556   1.830  0.00  0.00    -0.085 HD
ENDROOT
BRANCH   1   4
ATOM      4  C   UNL     1       3.671   2.192  -0.022  0.00  0.00    -0.046 C 
BRANCH   4   7
ATOM      5  C   UNL     1      -0.017   1.377   0.010  0.00  0.00    +0.002 A 
ATOM      6  C   UNL     1       1.171   2.086   0.002  0.00  0.00    +0.002 A 
ATOM      7  C   UNL     1       2.380   1.415  -0.013  0.00  0.00    -0.063 A 
ATOM      8  C   UNL     1       2.405   0.034  -0.021  0.00  0.00    +0.025 A 
ATOM      9  C   UNL     1       1.215  -0.681  -0.013  0.00  0.00    +0.040 A 
ATOM     10  C   UNL     1       0.002  -0.004   0.002  0.00  0.00    +0.023 A 
BRANCH   9  11
ATOM     11  N   UNL     1       1.237  -2.080  -0.021  0.00  0.00    -0.234 N 
ATOM     12  C   UNL     1       0.059  -2.969  -0.021  0.00  0.00    +0.158 C 
ATOM     13  C   UNL     1       0.677  -4.332  -0.414  0.00  0.00    +0.253 C 
ATOM     14  O   UNL     1       2.049  -4.168  -0.004  0.00  0.00    -0.448 OA
ATOM     15  C   UNL     1       2.337  -2.856  -0.037  0.00  0.00    +0.407 C 
ATOM     16  O   UNL     1       3.470  -2.417  -0.073  0.00  0.00    -0.226 OA
ENDBRANCH   9  11
ENDBRANCH   4   7
ENDBRANCH   1   4
BRANCH   1  17
ATOM     17  C   UNL     1       5.363   3.195   1.352  0.00  0.00    -0.043 C 
BRANCH  17  18
ATOM     18  C   UNL     1       5.807   3.446   2.770  0.00  0.00    -0.020 A 
ATOM     19  C   UNL     1       5.566   4.671   3.363  0.00  0.00    +0.025 A 
ATOM     20  C   UNL     1       5.974   4.904   4.664  0.00  0.00    +0.043 A 
ATOM     21  C   UNL     1       6.624   3.910   5.375  0.00  0.00    +0.043 A 
ATOM     22  C   UNL     1       6.868   2.684   4.786  0.00  0.00    +0.084 A 
ATOM     23  C   UNL     1       6.453   2.447   3.482  0.00  0.00    +0.136 A 
ATOM     24 CL   UNL     1       7.684   1.438   5.678  0.00  0.00    -0.080 Cl
ATOM     25 CL   UNL     1       5.670   6.443   5.406  0.00  0.00    -0.083 Cl
BRANCH  23  26
ATOM     26  O   UNL     1       6.687   1.240   2.902  0.00  0.00    -0.505 OA
ATOM     27  H   UNL     1       7.533   1.184   2.438  0.00  0.00    +0.292 HD
ENDBRANCH  23  26
ENDBRANCH  17  18
ENDBRANCH   1  17
TORSDOF 6
