REMARK  Name = ZINC36659914
REMARK  8 active torsions:
REMARK  status: ('A' for Active; 'I' for Inactive)
REMARK    1  A    between atoms: C_4  and  C_7
REMARK    2  A    between atoms: C_7  and  C_9
REMARK    3  A    between atoms: C_7  and  N_30
REMARK    4  A    between atoms: C_9  and  N_10
REMARK    5  A    between atoms: C_11  and  C_13
REMARK    6  A    between atoms: C_13  and  S_14
REMARK    7  A    between atoms: S_14  and  C_15
REMARK    8  A    between atoms: C_15  and  C_16
REMARK                            x       y       z     vdW  Elec       q    Type
REMARK                         _______ _______ _______ _____ _____    ______ ____
ROOT
ATOM      1  N   UNL     1       5.320  -1.941   1.316  0.00  0.00    -0.316 N 
ATOM      2  C   UNL     1       5.837  -2.443   2.455  0.00  0.00    +0.223 C 
ATOM      3  O   UNL     1       5.353  -2.140   3.525  0.00  0.00    -0.275 OA
ATOM      4  H   UNL     1       5.707  -2.183   0.460  0.00  0.00    +0.149 HD
ENDROOT
BRANCH   1   5
ATOM      5  C   UNL     1       4.174  -1.030   1.370  0.00  0.00    +0.093 C 
BRANCH   5   6
ATOM      6  C   UNL     1       3.870  -0.508  -0.035  0.00  0.00    -0.020 C 
BRANCH   6  10
ATOM      7  C   UNL     1       7.127   1.896  -1.399  0.00  0.00    +0.000 A 
ATOM      8  C   UNL     1       7.011   0.585  -1.822  0.00  0.00    +0.000 A 
ATOM      9  C   UNL     1       5.957  -0.193  -1.381  0.00  0.00    +0.002 A 
ATOM     10  C   UNL     1       5.019   0.340  -0.516  0.00  0.00    -0.059 A 
ATOM     11  C   UNL     1       5.136   1.651  -0.092  0.00  0.00    +0.002 A 
ATOM     12  C   UNL     1       6.189   2.429  -0.535  0.00  0.00    +0.000 A 
ENDBRANCH   6  10
BRANCH   6  13
ATOM     13  N   UNL     1       2.645   0.302  -0.003  0.00  0.00    +0.385 N 
ATOM     14  C   UNL     1       2.327   0.805  -1.363  0.00  0.00    -0.078 C 
ATOM     15  C   UNL     1       0.811   1.116  -1.282  0.00  0.00    -0.020 C 
ATOM     16  C   UNL     1       0.271  -0.028  -0.394  0.00  0.00    -0.020 C 
ATOM     17  C   UNL     1       1.492  -0.534   0.397  0.00  0.00    -0.078 C 
ATOM     18  H   UNL     1       2.754   1.073   0.638  0.00  0.00    -0.081 HD
ENDBRANCH   6  13
ENDBRANCH   5   6
ENDBRANCH   1   5
BRANCH   2  19
ATOM     19  C   UNL     1       7.016  -3.380   2.398  0.00  0.00    +0.165 C 
BRANCH  19  20
ATOM     20  S   UNL     1       7.473  -3.877   4.082  0.00  0.00    -0.144 S 
BRANCH  20  21
ATOM     21  C   UNL     1       8.887  -4.988   3.842  0.00  0.00    +0.143 C 
BRANCH  21  22
ATOM     22  C   UNL     1       9.373  -5.480   5.181  0.00  0.00    +0.121 A 
ATOM     23  N   UNL     1      10.434  -6.325   5.236  0.00  0.00    -0.310 N 
ATOM     24  H   UNL     1      10.866  -6.600   4.412  0.00  0.00    +0.170 HD
ATOM     25  C   UNL     1      10.900  -6.789   6.411  0.00  0.00    +0.260 A 
ATOM     26  O   UNL     1      11.854  -7.547   6.445  0.00  0.00    -0.267 OA
ATOM     27  C   UNL     1      10.253  -6.375   7.621  0.00  0.00    +0.075 A 
ATOM     28  C   UNL     1      10.588  -6.751   9.002  0.00  0.00    -0.023 A 
ATOM     29  C   UNL     1       9.824  -6.227   9.976  0.00  0.00    -0.004 A 
ATOM     30  S   UNL     1       8.633  -5.213   9.131  0.00  0.00    -0.073 S 
ATOM     31  C   UNL     1       9.168  -5.503   7.465  0.00  0.00    +0.116 A 
ATOM     32  N   UNL     1       8.767  -5.082   6.268  0.00  0.00    -0.226 NA
ATOM     33  C   UNL     1      10.255  -6.685  11.344  0.00  0.00    +0.043 C 
ATOM     34  C   UNL     1      11.140  -7.922  11.078  0.00  0.00    +0.010 C 
ATOM     35  C   UNL     1      11.652  -7.641   9.652  0.00  0.00    +0.037 C 
ENDBRANCH  21  22
ENDBRANCH  20  21
ENDBRANCH  19  20
ENDBRANCH   2  19
TORSDOF 8
