REMARK  Name = ZINC59020860
REMARK  7 active torsions:
REMARK  status: ('A' for Active; 'I' for Inactive)
REMARK    1  A    between atoms: C_1  and  C_2
REMARK    2  A    between atoms: C_8  and  C_10
REMARK    3  A    between atoms: C_10  and  S_11
REMARK    4  A    between atoms: S_11  and  C_12
REMARK    5  A    between atoms: N_17  and  N_18
REMARK    6  A    between atoms: C_19  and  C_20
REMARK    7  A    between atoms: C_19  and  C_21
REMARK                            x       y       z     vdW  Elec       q    Type
REMARK                         _______ _______ _______ _____ _____    ______ ____
ROOT
ATOM      1  C   UNL     1      -2.723  -8.850   3.876  0.00  0.00    +0.211 A 
ATOM      2  N   UNL     1      -1.952  -9.940   3.951  0.00  0.00    -0.186 NA
ATOM      3  C   UNL     1      -1.631 -10.171   5.207  0.00  0.00    +0.232 A 
ATOM      4  N   UNL     1      -2.204  -9.213   5.966  0.00  0.00    -0.245 N 
ATOM      5  N   UNL     1      -2.899  -8.370   5.084  0.00  0.00    -0.144 NA
ATOM      6  N   UNL     1      -0.846 -11.212   5.667  0.00  0.00    -0.205 N 
ATOM      7  H   UNL     1      -0.664 -11.300   6.616  0.00  0.00    +0.177 HD
ATOM      8  H   UNL     1      -2.144  -9.124   6.930  0.00  0.00    +0.192 HD
ENDROOT
BRANCH   6   9
ATOM      9  N   UNL     1      -0.311 -12.140   4.763  0.00  0.00    -0.184 NA
ATOM     10  C   UNL     1       0.328 -13.180   5.202  0.00  0.00    +0.063 C 
ATOM     11  C   UNL     1       1.062 -14.076   4.238  0.00  0.00    +0.068 C 
BRANCH  10  12
ATOM     12  C   UNL     1       0.337 -13.485   6.645  0.00  0.00    -0.002 A 
ATOM     13  C   UNL     1      -0.803 -13.252   7.418  0.00  0.00    +0.011 A 
ATOM     14  C   UNL     1      -0.788 -13.540   8.767  0.00  0.00    +0.016 A 
ATOM     15  C   UNL     1       0.353 -14.059   9.355  0.00  0.00    +0.018 A 
ATOM     16  C   UNL     1       1.486 -14.293   8.594  0.00  0.00    +0.016 A 
ATOM     17  C   UNL     1       1.483 -14.014   7.244  0.00  0.00    +0.011 A 
ATOM     18 BR   UNL     1       0.364 -14.450  11.205  0.00  0.00    -0.050 Br
ENDBRANCH  10  12
ENDBRANCH   6   9
BRANCH   1  19
ATOM     19  S   UNL     1      -3.388  -8.166   2.395  0.00  0.00    -0.075 S 
BRANCH  19  20
ATOM     20  C   UNL     1      -4.319  -6.716   2.961  0.00  0.00    +0.173 C 
BRANCH  20  28
ATOM     21  C   UNL     1      -8.362  -1.486  -0.308  0.00  0.00    +0.066 C 
ATOM     22  C   UNL     1      -7.502  -2.724  -0.281  0.00  0.00    +0.047 A 
ATOM     23  C   UNL     1      -7.187  -3.392  -1.418  0.00  0.00    +0.071 A 
ATOM     24  S   UNL     1      -6.186  -4.715  -0.760  0.00  0.00    -0.060 S 
ATOM     25  C   UNL     1      -6.272  -4.286   0.865  0.00  0.00    +0.165 A 
ATOM     26  N   UNL     1      -7.018  -3.203   0.850  0.00  0.00    -0.230 NA
ATOM     27  N   UNL     1      -5.692  -4.920   1.958  0.00  0.00    -0.264 N 
ATOM     28  C   UNL     1      -4.948  -6.029   1.777  0.00  0.00    +0.229 C 
ATOM     29  O   UNL     1      -4.784  -6.473   0.660  0.00  0.00    -0.275 OA
ATOM     30  H   UNL     1      -5.823  -4.564   2.851  0.00  0.00    +0.157 HD
ENDBRANCH  20  28
ENDBRANCH  19  20
ENDBRANCH   1  19
TORSDOF 5
