REMARK  Name = ZINC12128859
REMARK  6 active torsions:
REMARK  status: ('A' for Active; 'I' for Inactive)
REMARK    1  A    between atoms: C_1  and  C_2
REMARK    2  A    between atoms: C_5  and  C_11
REMARK    3  A    between atoms: N_13  and  C_14
REMARK    4  A    between atoms: C_14  and  C_15
REMARK    5  A    between atoms: C_22  and  C_25
REMARK    6  A    between atoms: C_30  and  C_31
REMARK                            x       y       z     vdW  Elec       q    Type
REMARK                         _______ _______ _______ _____ _____    ______ ____
ROOT
ATOM      1  C   UNL     1       5.651   1.270  -2.935  0.00  0.00    +0.195 C 
ATOM      2  C   UNL     1       6.418   2.509  -2.418  0.00  0.00    +0.085 C 
ATOM      3  C   UNL     1       5.705   2.797  -1.111  0.00  0.00    -0.002 A 
ATOM      4  C   UNL     1       6.043   3.576  -0.025  0.00  0.00    +0.007 A 
ATOM      5  C   UNL     1       5.196   3.656   1.067  0.00  0.00    +0.001 A 
ATOM      6  C   UNL     1       4.009   2.950   1.070  0.00  0.00    +0.012 A 
ATOM      7  C   UNL     1       3.660   2.164  -0.022  0.00  0.00    +0.025 A 
ATOM      8  C   UNL     1       4.517   2.081  -1.130  0.00  0.00    +0.132 A 
ATOM      9  O   UNL     1       4.368   1.403  -2.300  0.00  0.00    -0.486 OA
ENDROOT
BRANCH   7  10
ATOM     10  C   UNL     1       2.384   1.407  -0.013  0.00  0.00    -0.003 A 
ATOM     11  C   UNL     1       1.167   2.088   0.002  0.00  0.00    +0.009 A 
ATOM     12  C   UNL     1      -0.017   1.379   0.010  0.00  0.00    +0.001 A 
ATOM     13  C   UNL     1       0.002  -0.004   0.002  0.00  0.00    +0.001 A 
ATOM     14  C   UNL     1       1.206  -0.684  -0.013  0.00  0.00    +0.013 A 
ATOM     15  C   UNL     1       2.397   0.014  -0.021  0.00  0.00    +0.063 A 
BRANCH  15  16
ATOM     16  C   UNL     1       3.708  -0.729  -0.038  0.00  0.00    +0.418 C 
ATOM     17  F   UNL     1       3.463  -2.106  -0.043  0.00  0.00    -0.166 F 
ATOM     18  F   UNL     1       4.427  -0.378  -1.185  0.00  0.00    -0.166 F 
ATOM     19  F   UNL     1       4.450  -0.391   1.099  0.00  0.00    -0.166 F 
ENDBRANCH  15  16
ENDBRANCH   7  10
BRANCH   1  20
ATOM     20  C   UNL     1       5.514   1.313  -4.458  0.00  0.00    +0.149 C 
BRANCH  20  23
ATOM     21  C   UNL     1       4.544  -0.048  -6.231  0.00  0.00    +0.234 C 
ATOM     22  O   UNL     1       4.932   0.774  -7.034  0.00  0.00    -0.274 OA
ATOM     23  N   UNL     1       4.785   0.128  -4.917  0.00  0.00    -0.310 N 
ATOM     24  H   UNL     1       4.475  -0.529  -4.274  0.00  0.00    +0.149 HD
BRANCH  21  28
ATOM     25  C   UNL     1       6.714  -3.412  -7.986  0.00  0.00    +0.028 C 
ATOM     26  C   UNL     1       5.817  -2.183  -7.825  0.00  0.00    +0.071 C 
ATOM     27  C   UNL     1       4.748  -2.464  -6.764  0.00  0.00    +0.053 C 
ATOM     28  C   UNL     1       3.794  -1.267  -6.703  0.00  0.00    +0.160 C 
ATOM     29  N   UNL     1       3.248  -1.019  -8.039  0.00  0.00    -0.315 N 
ATOM     30  C   UNL     1       3.943  -1.327  -9.144  0.00  0.00    +0.131 C 
ATOM     31  S   UNL     1       3.246  -0.995 -10.672  0.00  0.00    -0.019 S 
ATOM     32  N   UNL     1       5.162  -1.886  -9.100  0.00  0.00    -0.324 N 
ATOM     33  H   UNL     1       2.367  -0.624  -8.126  0.00  0.00    +0.148 HD
ATOM     34  H   UNL     1       5.618  -2.097  -9.929  0.00  0.00    +0.148 HD
ENDBRANCH  21  28
ENDBRANCH  20  23
ENDBRANCH   1  20
TORSDOF 5
