REMARK  Name = ZINC09490014
REMARK  8 active torsions:
REMARK  status: ('A' for Active; 'I' for Inactive)
REMARK    1  A    between atoms: C_1  and  C_2
REMARK    2  A    between atoms: C_5  and  C_8
REMARK    3  A    between atoms: C_14  and  C_22
REMARK    4  A    between atoms: C_16  and  C_20
REMARK    5  A    between atoms: C_17  and  N_19
REMARK    6  A    between atoms: C_25  and  O_28
REMARK    7  A    between atoms: O_28  and  C_29
REMARK    8  A    between atoms: C_29  and  C_31
REMARK                            x       y       z     vdW  Elec       q    Type
REMARK                         _______ _______ _______ _____ _____    ______ ____
ROOT
ATOM      1  C   UNL     1       0.077  -4.495  -0.093  0.00  0.00    +0.084 C 
ATOM      2  N   UNL     1       0.156  -5.327  -1.096  0.00  0.00    -0.150 NA
ATOM      3  N   UNL     1       0.280  -6.652  -0.675  0.00  0.00    -0.115 NA
ATOM      4  C   UNL     1       0.346  -6.747   0.605  0.00  0.00    +0.227 C 
ATOM      5  C   UNL     1       0.122  -5.342   1.158  0.00  0.00    +0.140 C 
ATOM      6  C   UNL     1       1.365  -5.017   1.994  0.00  0.00    +0.082 C 
ATOM      7  C   UNL     1       1.750  -6.233   2.795  0.00  0.00    +0.095 C 
ATOM      8  C   UNL     1       1.376  -7.493   2.492  0.00  0.00    +0.200 C 
ATOM      9  O   UNL     1       0.582  -7.791   1.427  0.00  0.00    -0.425 OA
ENDROOT
BRANCH   1  14
ATOM     10  C   UNL     1      -0.332   1.232  -0.377  0.00  0.00    +0.044 C 
ATOM     11  C   UNL     1      -0.225  -0.269  -0.303  0.00  0.00    -0.050 A 
ATOM     12  C   UNL     1      -0.155  -1.013  -1.468  0.00  0.00    +0.004 A 
ATOM     13  C   UNL     1      -0.057  -2.387  -1.408  0.00  0.00    +0.010 A 
ATOM     14  C   UNL     1      -0.027  -3.029  -0.166  0.00  0.00    -0.001 A 
ATOM     15  C   UNL     1      -0.097  -2.270   1.007  0.00  0.00    +0.010 A 
ATOM     16  C   UNL     1      -0.191  -0.896   0.930  0.00  0.00    +0.004 A 
ENDBRANCH   1  14
BRANCH   6  17
ATOM     17  C   UNL     1       2.501  -4.633   1.081  0.00  0.00    -0.038 A 
ATOM     18  C   UNL     1       2.956  -5.529   0.132  0.00  0.00    +0.008 A 
ATOM     19  C   UNL     1       3.998  -5.179  -0.706  0.00  0.00    +0.046 A 
ATOM     20  C   UNL     1       4.586  -3.927  -0.595  0.00  0.00    +0.132 A 
ATOM     21  C   UNL     1       4.127  -3.030   0.359  0.00  0.00    +0.046 A 
ATOM     22  C   UNL     1       3.082  -3.383   1.191  0.00  0.00    +0.008 A 
BRANCH  20  23
ATOM     23  O   UNL     1       5.611  -3.581  -1.417  0.00  0.00    -0.420 OA
BRANCH  23  24
ATOM     24  C   UNL     1       5.336  -3.388  -2.724  0.00  0.00    +0.380 C 
ATOM     25  O   UNL     1       4.185  -3.421  -3.115  0.00  0.00    -0.241 OA
BRANCH  24  26
ATOM     26  C   UNL     1       6.424  -3.137  -3.672  0.00  0.00    +0.212 A 
ATOM     27  C   UNL     1       6.286  -2.920  -5.014  0.00  0.00    +0.056 A 
ATOM     28  C   UNL     1       7.578  -2.728  -5.526  0.00  0.00    +0.042 A 
ATOM     29  C   UNL     1       8.438  -2.833  -4.488  0.00  0.00    +0.196 A 
ATOM     30  O   UNL     1       7.738  -3.075  -3.372  0.00  0.00    -0.456 OA
ENDBRANCH  24  26
ENDBRANCH  23  24
ENDBRANCH  20  23
ENDBRANCH   6  17
BRANCH   8  31
ATOM     31  N   UNL     1       1.810  -8.518   3.295  0.00  0.00    -0.328 N 
ATOM     32  H   UNL     1       2.373  -8.329   4.061  0.00  0.00    +0.145 HD
ATOM     33  H   UNL     1       1.553  -9.432   3.096  0.00  0.00    +0.145 HD
ENDBRANCH   8  31
BRANCH   7  34
ATOM     34  C   UNL     1       2.567  -6.039   3.954  0.00  0.00    +0.100 C 
ATOM     35  N   UNL     1       3.216  -5.885   4.874  0.00  0.00    -0.191 NA
ENDBRANCH   7  34
TORSDOF 7
