REMARK  Name = ZINC37799985
REMARK  5 active torsions:
REMARK  status: ('A' for Active; 'I' for Inactive)
REMARK    1  A    between atoms: C_1  and  C_2
REMARK    2  A    between atoms: C_2  and  N_3
REMARK    3  A    between atoms: N_3  and  C_4
REMARK    4  A    between atoms: C_4  and  C_5
REMARK    5  A    between atoms: C_11  and  C_13
REMARK                            x       y       z     vdW  Elec       q    Type
REMARK                         _______ _______ _______ _____ _____    ______ ____
ROOT
ATOM      1  N   UNL     1      -1.372  -0.511   0.012  0.00  0.00    -0.298 N 
ATOM      2  C   UNL     1      -1.993  -0.751   1.184  0.00  0.00    +0.202 C 
ATOM      3  O   UNL     1      -3.131  -1.171   1.193  0.00  0.00    -0.277 OA
ENDROOT
BRANCH   2   4
ATOM      4  C   UNL     1      -1.274  -0.497   2.484  0.00  0.00    +0.017 C 
ATOM      5  C   UNL     1      -0.023  -1.407   2.584  0.00  0.00    -0.005 C 
ATOM      6  C   UNL     1      -0.309  -2.296   3.795  0.00  0.00    -0.026 C 
ATOM      7  C   UNL     1       0.889  -2.656   4.654  0.00  0.00    +0.002 C 
ATOM      8  C   UNL     1       0.369  -3.487   5.838  0.00  0.00    +0.000 C 
ATOM      9  C   UNL     1      -0.681  -2.722   6.639  0.00  0.00    -0.002 C 
ATOM     10  C   UNL     1      -1.832  -2.240   5.741  0.00  0.00    -0.015 C 
ATOM     11  C   UNL     1      -1.240  -1.385   4.643  0.00  0.00    -0.068 C 
ATOM     12  N   UNL     1      -2.158  -0.848   3.632  0.00  0.00    +0.389 N 
ATOM     13  H   UNL     1      -2.626  -0.025   3.982  0.00  0.00    -0.084 HD
ATOM     14  H   UNL     1      -2.830  -1.549   3.359  0.00  0.00    -0.084 HD
ENDBRANCH   2   4
BRANCH   1  16
ATOM     15  C   UNL     1      -0.019   1.526   0.010  0.00  0.00    +0.024 C 
ATOM     16  C   UNL     1       0.002  -0.004   0.002  0.00  0.00    +0.105 C 
ENDBRANCH   1  16
BRANCH   1  17
ATOM     17  C   UNL     1      -2.072  -0.758  -1.251  0.00  0.00    +0.150 C 
BRANCH  17  18
ATOM     18  C   UNL     1      -1.820  -2.175  -1.696  0.00  0.00    +0.008 A 
ATOM     19  C   UNL     1      -2.531  -3.296  -1.420  0.00  0.00    +0.014 A 
ATOM     20  C   UNL     1      -2.108  -4.504  -1.942  0.00  0.00    +0.028 A 
ATOM     21  C   UNL     1      -0.995  -4.532  -2.716  0.00  0.00    +0.078 A 
ATOM     22  S   UNL     1      -0.512  -2.813  -2.731  0.00  0.00    -0.080 S 
ATOM     23 CL   UNL     1      -0.239  -5.886  -3.497  0.00  0.00    -0.076 Cl
ENDBRANCH  17  18
ENDBRANCH   1  17
TORSDOF 4
