REMARK  Name = ZINC40985819
REMARK  9 active torsions:
REMARK  status: ('A' for Active; 'I' for Inactive)
REMARK    1  A    between atoms: C_1  and  C_2
REMARK    2  A    between atoms: C_5  and  C_8
REMARK    3  A    between atoms: C_8  and  S_9
REMARK    4  A    between atoms: S_9  and  C_10
REMARK    5  A    between atoms: C_13  and  C_17
REMARK    6  A    between atoms: N_19  and  C_20
REMARK    7  A    between atoms: C_20  and  C_21
REMARK    8  A    between atoms: C_21  and  C_23
REMARK    9  A    between atoms: C_21  and  N_30
REMARK                            x       y       z     vdW  Elec       q    Type
REMARK                         _______ _______ _______ _____ _____    ______ ____
ROOT
ATOM      1  C   UNL     1       1.248 -10.711   0.048  0.00  0.00    +0.248 C 
ATOM      2  O   UNL     1       2.251 -11.381   0.202  0.00  0.00    -0.270 OA
ATOM      3  N   UNL     1       0.043 -11.310  -0.032  0.00  0.00    -0.312 N 
ATOM      4  H   UNL     1      -0.757 -10.776  -0.155  0.00  0.00    +0.149 HD
ENDROOT
BRANCH   1   8
ATOM      5  C   UNL     1       1.534  -6.573  -0.233  0.00  0.00    +0.190 A 
ATOM      6  N   UNL     1       0.339  -7.144  -0.314  0.00  0.00    -0.229 NA
ATOM      7  C   UNL     1       0.206  -8.454  -0.230  0.00  0.00    +0.129 A 
ATOM      8  C   UNL     1       1.350  -9.244  -0.052  0.00  0.00    +0.092 A 
ATOM      9  C   UNL     1       2.594  -8.601   0.029  0.00  0.00    +0.146 A 
ATOM     10  N   UNL     1       2.643  -7.284  -0.070  0.00  0.00    -0.209 NA
ATOM     11 CL   UNL     1       4.049  -9.522   0.250  0.00  0.00    -0.061 Cl
BRANCH   5  12
ATOM     12  S   UNL     1       1.654  -4.819  -0.351  0.00  0.00    -0.081 S 
BRANCH  12  13
ATOM     13  C   UNL     1      -0.064  -4.275  -0.562  0.00  0.00    +0.112 C 
BRANCH  13  18
ATOM     14  C   UNL     1      -0.224   1.484  -1.007  0.00  0.00    +0.044 C 
ATOM     15  C   UNL     1      -0.182  -0.018  -0.891  0.00  0.00    -0.050 A 
ATOM     16  C   UNL     1      -0.044  -0.795  -2.026  0.00  0.00    +0.003 A 
ATOM     17  C   UNL     1      -0.006  -2.173  -1.919  0.00  0.00    +0.005 A 
ATOM     18  C   UNL     1      -0.105  -2.773  -0.678  0.00  0.00    -0.037 A 
ATOM     19  C   UNL     1      -0.241  -1.996   0.457  0.00  0.00    +0.005 A 
ATOM     20  C   UNL     1      -0.276  -0.618   0.351  0.00  0.00    +0.003 A 
ENDBRANCH  13  18
ENDBRANCH  12  13
ENDBRANCH   5  12
ENDBRANCH   1   8
BRANCH   3  21
ATOM     21  C   UNL     1      -0.058 -12.768   0.067  0.00  0.00    +0.094 C 
BRANCH  21  22
ATOM     22  C   UNL     1      -1.531 -13.180   0.054  0.00  0.00    -0.020 C 
BRANCH  22  23
ATOM     23  C   UNL     1      -2.135 -12.841  -1.284  0.00  0.00    -0.059 A 
ATOM     24  C   UNL     1      -1.933 -13.678  -2.365  0.00  0.00    +0.003 A 
ATOM     25  C   UNL     1      -2.487 -13.368  -3.593  0.00  0.00    +0.020 A 
ATOM     26  C   UNL     1      -3.244 -12.219  -3.740  0.00  0.00    +0.041 A 
ATOM     27  C   UNL     1      -3.446 -11.382  -2.657  0.00  0.00    +0.020 A 
ATOM     28  C   UNL     1      -2.897 -11.696  -1.429  0.00  0.00    +0.003 A 
ATOM     29 CL   UNL     1      -3.940 -11.829  -5.282  0.00  0.00    -0.084 Cl
ENDBRANCH  22  23
BRANCH  22  30
ATOM     30  N   UNL     1      -1.638 -14.626   0.288  0.00  0.00    +0.385 N 
ATOM     31  C   UNL     1      -1.113 -14.967   1.635  0.00  0.00    -0.078 C 
ATOM     32  C   UNL     1      -1.788 -16.328   1.944  0.00  0.00    -0.020 C 
ATOM     33  C   UNL     1      -3.200 -16.158   1.340  0.00  0.00    -0.020 C 
ATOM     34  C   UNL     1      -3.058 -15.038   0.292  0.00  0.00    -0.078 C 
ATOM     35  H   UNL     1      -1.131 -15.132  -0.423  0.00  0.00    -0.081 HD
ENDBRANCH  22  30
ENDBRANCH  21  22
ENDBRANCH   3  21
TORSDOF 8
