REMARK  Name = ZINC27550595
REMARK  11 active torsions:
REMARK  status: ('A' for Active; 'I' for Inactive)
REMARK    1  A    between atoms: C_1  and  C_2
REMARK    2  A    between atoms: C_5  and  N_33
REMARK    3  A    between atoms: C_7  and  N_8
REMARK    4  A    between atoms: C_11  and  C_18
REMARK    5  A    between atoms: C_13  and  C_16
REMARK    6  A    between atoms: C_14  and  N_15
REMARK    7  A    between atoms: C_20  and  C_25
REMARK    8  A    between atoms: C_22  and  S_23
REMARK    9  A    between atoms: S_23  and  C_24
REMARK   10  A    between atoms: C_29  and  C_31
REMARK   11  A    between atoms: C_29  and  C_32
REMARK                            x       y       z     vdW  Elec       q    Type
REMARK                         _______ _______ _______ _____ _____    ______ ____
ROOT
ATOM      1  N   UNL     1      -2.510   0.965  -0.315  0.00  0.00    -0.260 N 
ATOM      2  C   UNL     1      -2.896   0.830   0.993  0.00  0.00    +0.025 C 
ATOM      3  C   UNL     1      -4.173   0.521   1.305  0.00  0.00    +0.025 C 
ATOM      4  C   UNL     1      -5.212   0.340   0.227  0.00  0.00    +0.099 C 
ATOM      5  C   UNL     1      -4.571   0.106  -1.109  0.00  0.00    +0.077 C 
ATOM      6  C   UNL     1      -3.272   0.429  -1.329  0.00  0.00    +0.107 C 
ATOM      7  C   UNL     1      -4.574   0.363   2.643  0.00  0.00    +0.162 C 
ATOM      8  O   UNL     1      -5.732   0.093   2.890  0.00  0.00    -0.292 OA
ATOM      9  C   UNL     1      -3.596   0.521   3.775  0.00  0.00    +0.086 C 
ATOM     10  C   UNL     1      -2.193   0.156   3.277  0.00  0.00    -0.023 C 
ATOM     11  C   UNL     1      -1.861   1.037   2.071  0.00  0.00    +0.058 C 
ATOM     12  C   UNL     1      -2.162  -1.317   2.862  0.00  0.00    +0.011 C 
ATOM     13  C   UNL     1      -1.170   0.398   4.388  0.00  0.00    +0.011 C 
ENDROOT
BRANCH   1  20
ATOM     14  C   UNL     1      -0.101  -0.524  -0.592  0.00  0.00    +0.045 C 
ATOM     15  C   UNL     1      -0.137   0.973  -0.767  0.00  0.00    -0.029 A 
ATOM     16  C   UNL     1       1.022   1.662  -1.066  0.00  0.00    +0.007 A 
ATOM     17  C   UNL     1       0.990   3.035  -1.226  0.00  0.00    +0.033 A 
ATOM     18  C   UNL     1      -0.203   3.722  -1.090  0.00  0.00    +0.128 A 
ATOM     19  C   UNL     1      -1.365   3.039  -0.791  0.00  0.00    +0.056 A 
ATOM     20  C   UNL     1      -1.335   1.660  -0.623  0.00  0.00    +0.045 A 
BRANCH  18  21
ATOM     21  N   UNL     1      -0.233   5.192  -1.263  0.00  0.00    +0.056 N 
ATOM     22  O   UNL     1      -1.283   5.798  -1.142  0.00  0.00    -0.126 OA
ATOM     23  O   UNL     1       0.792   5.795  -1.527  0.00  0.00    -0.126 OA
ENDBRANCH  18  21
ENDBRANCH   1  20
BRANCH   4  24
ATOM     24  C   UNL     1      -6.069   1.578   0.154  0.00  0.00    -0.014 A 
ATOM     25  C   UNL     1      -5.494   2.823  -0.024  0.00  0.00    +0.016 A 
ATOM     26  C   UNL     1      -6.293   3.914  -0.090  0.00  0.00    -0.012 A 
ATOM     27  S   UNL     1      -7.917   3.200   0.113  0.00  0.00    -0.087 S 
ATOM     28  C   UNL     1      -7.424   1.491   0.267  0.00  0.00    +0.049 A 
ATOM     29  C   UNL     1      -5.911   5.359  -0.281  0.00  0.00    +0.051 C 
BRANCH  28  30
ATOM     30  S   UNL     1      -8.430   0.063   0.503  0.00  0.00    -0.121 S 
ATOM     31  C   UNL     1     -10.119   0.720   0.558  0.00  0.00    +0.090 C 
ENDBRANCH  28  30
ENDBRANCH   4  24
BRANCH   6  32
ATOM     32  N   UNL     1      -2.713   0.215  -2.566  0.00  0.00    -0.345 N 
ATOM     33  H   UNL     1      -3.321  -0.213  -3.377  0.00  0.00    +0.144 HD
ATOM     34  H   UNL     1      -1.659   0.473  -2.746  0.00  0.00    +0.144 HD
ENDBRANCH   6  32
BRANCH   5  35
ATOM     35  C   UNL     1      -5.345  -0.462  -2.171  0.00  0.00    +0.099 C 
ATOM     36  N   UNL     1      -5.959  -0.913  -3.014  0.00  0.00    -0.191 NA
ENDBRANCH   5  35
TORSDOF 6
