REMARK  Name = ZINC01783831
REMARK  6 active torsions:
REMARK  status: ('A' for Active; 'I' for Inactive)
REMARK    1  A    between atoms: C_1  and  C_2
REMARK    2  A    between atoms: N_13  and  C_16
REMARK    3  A    between atoms: C_16  and  C_18
REMARK    4  A    between atoms: C_16  and  C_19
REMARK    5  A    between atoms: N_21  and  N_22
REMARK    6  A    between atoms: C_23  and  C_24
REMARK                            x       y       z     vdW  Elec       q    Type
REMARK                         _______ _______ _______ _____ _____    ______ ____
ROOT
ATOM      1  C   UNL     1       1.397   3.572   0.259  0.00  0.00    +0.008 C 
ATOM      2  C   UNL     1       1.414   2.064  -0.000  0.00  0.00    -0.009 C 
ATOM      3  C   UNL     1      -0.019   1.524   0.010  0.00  0.00    +0.008 C 
ATOM      4  C   UNL     1       0.002  -0.004   0.002  0.00  0.00    +0.037 C 
ATOM      5  C   UNL     1       0.873  -0.481  -1.157  0.00  0.00    -0.023 A 
ATOM      6  C   UNL     1       1.763   0.357  -1.738  0.00  0.00    -0.004 A 
ATOM      7  S   UNL     1       2.538  -0.601  -3.016  0.00  0.00    -0.073 S 
ATOM      8  C   UNL     1       1.671  -2.118  -2.769  0.00  0.00    +0.116 A 
ATOM      9  C   UNL     1       0.801  -1.828  -1.695  0.00  0.00    +0.076 A 
ATOM     10  C   UNL     1      -0.058  -2.888  -1.248  0.00  0.00    +0.263 A 
ATOM     11  O   UNL     1      -0.846  -2.741  -0.330  0.00  0.00    -0.267 OA
ATOM     12  N   UNL     1       0.061  -4.061  -1.914  0.00  0.00    -0.287 N 
ATOM     13  C   UNL     1       0.930  -4.245  -2.938  0.00  0.00    +0.204 A 
ATOM     14  N   UNL     1       1.732  -3.299  -3.375  0.00  0.00    -0.230 NA
ATOM     15  C   UNL     1       2.034   1.785  -1.377  0.00  0.00    +0.046 C 
ENDROOT
BRANCH  12  16
ATOM     16  C   UNL     1      -0.787  -5.184  -1.508  0.00  0.00    +0.176 C 
ATOM     17  C   UNL     1      -1.660  -5.616  -2.688  0.00  0.00    +0.041 C 
BRANCH  16  18
ATOM     18  C   UNL     1       0.080  -6.338  -1.075  0.00  0.00    +0.255 C 
ATOM     19  O   UNL     1       1.288  -6.233  -1.103  0.00  0.00    -0.272 OA
ATOM     20  N   UNL     1      -0.487  -7.487  -0.657  0.00  0.00    -0.205 N 
ATOM     21  H   UNL     1      -1.453  -7.571  -0.635  0.00  0.00    +0.177 HD
BRANCH  20  22
ATOM     22  N   UNL     1       0.319  -8.560  -0.255  0.00  0.00    -0.187 NA
ATOM     23  C   UNL     1      -0.228  -9.669   0.149  0.00  0.00    +0.145 C 
BRANCH  23  24
ATOM     24  C   UNL     1       0.616 -10.792   0.570  0.00  0.00    +0.032 A 
ATOM     25  C   UNL     1       0.239 -12.043   1.028  0.00  0.00    +0.017 A 
ATOM     26  C   UNL     1       1.226 -12.939   1.367  0.00  0.00    +0.008 A 
ATOM     27  C   UNL     1       2.528 -12.572   1.243  0.00  0.00    +0.046 A 
ATOM     28  S   UNL     1       2.397 -10.905   0.620  0.00  0.00    -0.096 S 
ENDBRANCH  23  24
ENDBRANCH  20  22
ENDBRANCH  16  18
ENDBRANCH  12  16
TORSDOF 4
