REMARK  Name = ZINC38705227
REMARK  10 active torsions:
REMARK  status: ('A' for Active; 'I' for Inactive)
REMARK    1  A    between atoms: C_1  and  C_2
REMARK    2  A    between atoms: C_4  and  C_38
REMARK    3  A    between atoms: C_5  and  C_9
REMARK    4  A    between atoms: C_6  and  O_8
REMARK    5  A    between atoms: N_17  and  C_30
REMARK    6  A    between atoms: C_18  and  C_20
REMARK    7  A    between atoms: C_23  and  O_26
REMARK    8  A    between atoms: O_26  and  C_27
REMARK    9  A    between atoms: C_27  and  C_28
REMARK   10  A    between atoms: C_30  and  C_31
REMARK                            x       y       z     vdW  Elec       q    Type
REMARK                         _______ _______ _______ _____ _____    ______ ____
ROOT
ATOM      1  C   UNL     1      -0.193  -4.652  -0.108  0.00  0.00    +0.102 A 
ATOM      2  C   UNL     1       0.059  -5.315   1.098  0.00  0.00    +0.035 A 
ATOM      3  C   UNL     1       0.107  -6.660   0.784  0.00  0.00    +0.126 A 
ATOM      4  N   UNL     1      -0.113  -6.745  -0.561  0.00  0.00    -0.272 N 
ATOM      5  H   UNL     1      -0.138  -7.569  -1.071  0.00  0.00    +0.189 HD
ATOM      6  N   UNL     1      -0.289  -5.569  -1.050  0.00  0.00    -0.173 NA
ATOM      7  C   UNL     1       0.370  -7.417   2.014  0.00  0.00    +0.266 C 
ATOM      8  O   UNL     1       0.471  -8.627   2.076  0.00  0.00    -0.268 OA
ATOM      9  N   UNL     1       0.484  -6.582   3.062  0.00  0.00    -0.281 N 
ATOM     10  C   UNL     1       0.301  -5.207   2.579  0.00  0.00    +0.142 C 
ENDROOT
BRANCH   1  15
ATOM     11  C   UNL     1      -0.744   1.040  -0.821  0.00  0.00    +0.044 C 
ATOM     12  C   UNL     1      -0.598  -0.448  -0.633  0.00  0.00    -0.047 A 
ATOM     13  C   UNL     1      -1.538  -1.306  -1.175  0.00  0.00    +0.007 A 
ATOM     14  C   UNL     1      -1.411  -2.671  -1.008  0.00  0.00    -0.037 A 
ATOM     15  C   UNL     1      -0.334  -3.186  -0.291  0.00  0.00    +0.047 A 
ATOM     16  C   UNL     1       0.614  -2.316   0.256  0.00  0.00    +0.127 A 
ATOM     17  C   UNL     1       0.478  -0.949   0.076  0.00  0.00    +0.049 A 
ATOM     18  C   UNL     1      -2.437  -3.602  -1.600  0.00  0.00    +0.044 C 
BRANCH  16  19
ATOM     19  O   UNL     1       1.668  -2.810   0.957  0.00  0.00    -0.506 OA
ATOM     20  H   UNL     1       2.470  -2.929   0.430  0.00  0.00    +0.292 HD
ENDBRANCH  16  19
ENDBRANCH   1  15
BRANCH  10  21
ATOM     21  C   UNL     1      -0.889  -4.575   3.253  0.00  0.00    -0.022 A 
ATOM     22  C   UNL     1      -2.044  -5.311   3.448  0.00  0.00    +0.009 A 
ATOM     23  C   UNL     1      -3.136  -4.733   4.065  0.00  0.00    +0.046 A 
ATOM     24  C   UNL     1      -3.074  -3.414   4.491  0.00  0.00    +0.121 A 
ATOM     25  C   UNL     1      -1.914  -2.679   4.296  0.00  0.00    +0.046 A 
ATOM     26  C   UNL     1      -0.823  -3.262   3.682  0.00  0.00    +0.009 A 
BRANCH  24  27
ATOM     27  O   UNL     1      -4.147  -2.844   5.099  0.00  0.00    -0.488 OA
BRANCH  27  28
ATOM     28  C   UNL     1      -4.012  -1.483   5.511  0.00  0.00    +0.256 C 
BRANCH  28  29
ATOM     29  C   UNL     1      -5.293  -1.025   6.160  0.00  0.00    +0.006 C 
ATOM     30  C   UNL     1      -5.253  -0.344   7.279  0.00  0.00    +0.007 C 
ENDBRANCH  28  29
ENDBRANCH  27  28
ENDBRANCH  24  27
ENDBRANCH  10  21
BRANCH   9  31
ATOM     31  C   UNL     1       0.746  -6.976   4.449  0.00  0.00    +0.145 C 
BRANCH  31  32
ATOM     32  C   UNL     1       2.233  -7.007   4.691  0.00  0.00    -0.012 A 
ATOM     33  C   UNL     1       2.912  -8.210   4.665  0.00  0.00    +0.006 A 
ATOM     34  C   UNL     1       4.276  -8.239   4.887  0.00  0.00    +0.000 A 
ATOM     35  C   UNL     1       4.962  -7.064   5.134  0.00  0.00    +0.001 A 
ATOM     36  C   UNL     1       4.284  -5.860   5.159  0.00  0.00    +0.020 A 
ATOM     37  C   UNL     1       2.919  -5.830   4.932  0.00  0.00    +0.046 A 
ATOM     38 CL   UNL     1       2.068  -4.318   4.957  0.00  0.00    -0.083 Cl
ENDBRANCH  31  32
ENDBRANCH   9  31
TORSDOF 8
