REMARK  Name = ZINC40732157
REMARK  6 active torsions:
REMARK  status: ('A' for Active; 'I' for Inactive)
REMARK    1  A    between atoms: C_1  and  C_2
REMARK    2  A    between atoms: C_5  and  C_8
REMARK    3  A    between atoms: C_8  and  N_9
REMARK    4  A    between atoms: C_11  and  N_24
REMARK    5  A    between atoms: C_12  and  N_16
REMARK    6  A    between atoms: C_21  and  C_23
REMARK                            x       y       z     vdW  Elec       q    Type
REMARK                         _______ _______ _______ _____ _____    ______ ____
ROOT
ATOM      1  N   UNL     1       1.188  -5.056  -0.046  0.00  0.00    -0.323 N 
ATOM      2  C   UNL     1       1.544  -6.399  -0.084  0.00  0.00    +0.145 A 
ATOM      3  C   UNL     1       2.889  -6.775  -0.100  0.00  0.00    +0.105 A 
ATOM      4  C   UNL     1       3.192  -8.137  -0.138  0.00  0.00    +0.147 A 
ATOM      5  N   UNL     1       2.195  -9.019  -0.157  0.00  0.00    -0.219 NA
ATOM      6  C   UNL     1       0.939  -8.622  -0.140  0.00  0.00    +0.225 A 
ATOM      7  N   UNL     1       0.610  -7.346  -0.100  0.00  0.00    -0.219 NA
ATOM      8  H   UNL     1       1.875  -4.372  -0.035  0.00  0.00    +0.148 HD
ENDROOT
BRANCH   4   9
ATOM      9  N   UNL     1       4.513  -8.566  -0.156  0.00  0.00    -0.311 N 
ATOM     10  C   UNL     1       5.236  -8.711  -1.427  0.00  0.00    +0.107 C 
ATOM     11  C   UNL     1       5.819 -10.125  -1.504  0.00  0.00    +0.019 C 
ATOM     12  C   UNL     1       6.673 -10.389  -0.261  0.00  0.00    +0.003 C 
ATOM     13  C   UNL     1       5.798 -10.295   0.991  0.00  0.00    +0.022 C 
ATOM     14  C   UNL     1       5.217  -8.877   1.096  0.00  0.00    +0.072 C 
ATOM     15  C   UNL     1       4.234  -8.809   2.267  0.00  0.00    +0.028 C 
ENDBRANCH   4   9
BRANCH   3  16
ATOM     16  N   UNL     1       3.909  -5.810  -0.080  0.00  0.00    -0.353 N 
ATOM     17  H   UNL     1       3.687  -4.868  -0.153  0.00  0.00    +0.143 HD
ATOM     18  H   UNL     1       4.835  -6.084   0.008  0.00  0.00    +0.143 HD
ENDBRANCH   3  16
BRANCH   1  19
ATOM     19  C   UNL     1      -0.226  -4.674  -0.023  0.00  0.00    +0.138 C 
BRANCH  19  24
ATOM     20  C   UNL     1      -0.667   1.086   0.129  0.00  0.00    +0.044 C 
ATOM     21  C   UNL     1      -0.552  -0.416   0.090  0.00  0.00    -0.050 A 
ATOM     22  C   UNL     1      -0.509  -1.075  -1.125  0.00  0.00    +0.003 A 
ATOM     23  C   UNL     1      -0.404  -2.452  -1.162  0.00  0.00    +0.005 A 
ATOM     24  C   UNL     1      -0.340  -3.172   0.017  0.00  0.00    -0.030 A 
ATOM     25  C   UNL     1      -0.382  -2.514   1.232  0.00  0.00    +0.005 A 
ATOM     26  C   UNL     1      -0.483  -1.136   1.268  0.00  0.00    +0.003 A 
ENDBRANCH  19  24
ENDBRANCH   1  19
TORSDOF 4
