REMARK  Name = ZINC36570969
REMARK  13 active torsions:
REMARK  status: ('A' for Active; 'I' for Inactive)
REMARK    1  A    between atoms: C_1  and  C_2
REMARK    2  A    between atoms: C_2  and  C_3
REMARK    3  A    between atoms: C_3  and  N_4
REMARK    4  A    between atoms: N_4  and  C_5
REMARK    5  A    between atoms: C_5  and  C_7
REMARK    6  A    between atoms: C_5  and  C_21
REMARK    7  A    between atoms: N_23  and  C_24
REMARK    8  A    between atoms: C_24  and  C_25
REMARK    9  A    between atoms: C_24  and  C_26
REMARK   10  A    between atoms: C_24  and  C_27
REMARK   11  A    between atoms: C_28  and  C_30
REMARK   12  A    between atoms: C_31  and  O_37
REMARK   13  A    between atoms: C_35  and  O_36
REMARK                            x       y       z     vdW  Elec       q    Type
REMARK                         _______ _______ _______ _____ _____    ______ ____
ROOT
ATOM      1  C   UNL     1       1.651  -2.782   0.588  0.00  0.00    +0.193 C 
ENDROOT
BRANCH   1   2
ATOM      2  C   UNL     1       2.790  -2.196   1.382  0.00  0.00    -0.010 A 
ATOM      3  C   UNL     1       3.584  -1.268   0.810  0.00  0.00    +0.015 A 
ATOM      4  C   UNL     1       4.666  -0.688   1.513  0.00  0.00    -0.017 A 
ATOM      5  C   UNL     1       5.485   0.277   0.909  0.00  0.00    +0.008 A 
ATOM      6  C   UNL     1       6.521   0.819   1.611  0.00  0.00    +0.001 A 
ATOM      7  C   UNL     1       6.779   0.429   2.920  0.00  0.00    +0.001 A 
ATOM      8  C   UNL     1       6.000  -0.508   3.535  0.00  0.00    +0.009 A 
ATOM      9  C   UNL     1       4.931  -1.081   2.844  0.00  0.00    -0.010 A 
ATOM     10  C   UNL     1       4.069  -2.090   3.465  0.00  0.00    -0.010 A 
ATOM     11  C   UNL     1       3.000  -2.627   2.712  0.00  0.00    -0.012 A 
ATOM     12  C   UNL     1       2.166  -3.589   3.300  0.00  0.00    +0.009 A 
ATOM     13  C   UNL     1       2.392  -3.987   4.584  0.00  0.00    +0.001 A 
ATOM     14  C   UNL     1       3.440  -3.452   5.324  0.00  0.00    +0.001 A 
ATOM     15  C   UNL     1       4.278  -2.522   4.776  0.00  0.00    +0.009 A 
ENDBRANCH   1   2
BRANCH   1  16
ATOM     16  C   UNL     1       1.878  -2.527  -0.880  0.00  0.00    +0.239 C 
ATOM     17  O   UNL     1       1.358  -1.571  -1.417  0.00  0.00    -0.273 OA
ATOM     18  N   UNL     1       2.659  -3.360  -1.596  0.00  0.00    -0.309 N 
ATOM     19  H   UNL     1       3.019  -4.161  -1.183  0.00  0.00    +0.149 HD
BRANCH  18  20
ATOM     20  C   UNL     1       2.962  -3.058  -2.997  0.00  0.00    +0.026 C 
ATOM     21  C   UNL     1       3.683  -1.711  -3.083  0.00  0.00    +0.031 C 
ATOM     22  C   UNL     1       3.859  -4.154  -3.573  0.00  0.00    +0.031 C 
ATOM     23  C   UNL     1       1.660  -2.991  -3.797  0.00  0.00    +0.031 C 
ENDBRANCH  18  20
ENDBRANCH   1  16
BRANCH   1  24
ATOM     24  N   UNL     1       0.394  -2.155   1.004  0.00  0.00    -0.282 N 
ATOM     25  C   UNL     1      -0.779  -2.614   0.522  0.00  0.00    +0.255 C 
ATOM     26  O   UNL     1      -0.793  -3.547  -0.257  0.00  0.00    -0.270 OA
BRANCH  25  27
ATOM     27  C   UNL     1      -2.043  -1.984   0.940  0.00  0.00    +0.119 A 
ATOM     28  C   UNL     1      -2.573  -0.912   0.208  0.00  0.00    +0.133 A 
ATOM     29  C   UNL     1      -3.763  -0.327   0.610  0.00  0.00    +0.046 A 
ATOM     30  C   UNL     1      -4.428  -0.797   1.728  0.00  0.00    +0.007 A 
ATOM     31  C   UNL     1      -3.913  -1.854   2.456  0.00  0.00    +0.046 A 
ATOM     32  C   UNL     1      -2.728  -2.457   2.069  0.00  0.00    +0.133 A 
BRANCH  32  33
ATOM     33  O   UNL     1      -2.228  -3.497   2.782  0.00  0.00    -0.506 OA
ATOM     34  H   UNL     1      -1.634  -3.234   3.498  0.00  0.00    +0.292 HD
ENDBRANCH  32  33
BRANCH  28  35
ATOM     35  O   UNL     1      -1.923  -0.448  -0.888  0.00  0.00    -0.506 OA
ATOM     36  H   UNL     1      -2.184  -0.881  -1.713  0.00  0.00    +0.292 HD
ENDBRANCH  28  35
ENDBRANCH  25  27
BRANCH  24  37
ATOM     37  C   UNL     1       0.410  -1.031   1.943  0.00  0.00    +0.109 C 
BRANCH  37  39
ATOM     38  C   UNL     1       0.509   1.458   2.138  0.00  0.00    +0.005 C 
ATOM     39  C   UNL     1       0.592   0.277   1.169  0.00  0.00    +0.016 C 
ENDBRANCH  37  39
ENDBRANCH  24  37
ENDBRANCH   1  24
TORSDOF 9
