REMARK  Name = ZINC29451500
REMARK  6 active torsions:
REMARK  status: ('A' for Active; 'I' for Inactive)
REMARK    1  A    between atoms: C_3  and  C_6
REMARK    2  A    between atoms: C_8  and  C_11
REMARK    3  A    between atoms: C_11  and  N_12
REMARK    4  A    between atoms: N_17  and  C_20
REMARK    5  A    between atoms: C_20  and  C_21
REMARK    6  A    between atoms: C_21  and  C_22
REMARK                            x       y       z     vdW  Elec       q    Type
REMARK                         _______ _______ _______ _____ _____    ______ ____
ROOT
ATOM      1  N   UNL     1       1.227   1.846   0.000  0.00  0.00    -0.212 N 
ATOM      2  C   UNL     1       2.114   0.827  -0.014  0.00  0.00    +0.310 C 
ATOM      3  O   UNL     1       3.324   0.907  -0.025  0.00  0.00    -0.264 OA
ATOM      4  C   UNL     1       1.286  -0.423  -0.013  0.00  0.00    +0.310 C 
ATOM      5  O   UNL     1       1.685  -1.569  -0.022  0.00  0.00    -0.264 OA
ATOM      6  N   UNL     1       0.002  -0.004   0.002  0.00  0.00    -0.217 N 
ATOM      7  C   UNL     1      -0.016   1.339   0.009  0.00  0.00    +0.318 C 
ATOM      8  O   UNL     1      -1.029   2.009   0.018  0.00  0.00    -0.252 OA
ENDROOT
BRANCH   1   9
ATOM      9  C   UNL     1       1.566   3.271   0.004  0.00  0.00    +0.177 C 
BRANCH   9  12
ATOM     10  C   UNL     1       2.467   4.336   3.390  0.00  0.00    +0.174 A 
ATOM     11  C   UNL     1       2.883   3.846   2.177  0.00  0.00    +0.078 A 
ATOM     12  C   UNL     1       1.696   3.752   1.426  0.00  0.00    +0.102 A 
ATOM     13  N   UNL     1       0.730   4.158   2.202  0.00  0.00    -0.081 NA
ATOM     14  O   UNL     1       1.133   4.486   3.294  0.00  0.00    -0.354 OA
BRANCH  10  17
ATOM     15  C   UNL     1       3.915   5.314   6.745  0.00  0.00    +0.008 A 
ATOM     16  C   UNL     1       2.937   5.123   5.798  0.00  0.00    +0.019 A 
ATOM     17  C   UNL     1       3.308   4.630   4.560  0.00  0.00    +0.057 A 
ATOM     18  S   UNL     1       5.074   4.454   4.750  0.00  0.00    -0.093 S 
ATOM     19  C   UNL     1       5.207   5.027   6.435  0.00  0.00    +0.046 A 
ENDBRANCH  10  17
ENDBRANCH   9  12
ENDBRANCH   1   9
BRANCH   6  20
ATOM     20  C   UNL     1      -1.178  -0.872   0.009  0.00  0.00    +0.123 C 
BRANCH  20  21
ATOM     21  C   UNL     1      -1.602  -1.167  -1.431  0.00  0.00    +0.050 C 
BRANCH  21  22
ATOM     22  C   UNL     1      -2.816  -2.060  -1.425  0.00  0.00    -0.072 C 
ATOM     23  C   UNL     1      -3.981  -1.502  -1.510  0.00  0.00    -0.028 C 
ATOM     24  C   UNL     1      -5.278  -2.257  -1.506  0.00  0.00    +0.027 C 
ATOM     25  C   UNL     1      -5.028  -3.735  -1.815  0.00  0.00    +0.004 C 
ATOM     26  C   UNL     1      -3.898  -4.236  -0.905  0.00  0.00    +0.005 C 
ATOM     27  C   UNL     1      -2.599  -3.542  -1.325  0.00  0.00    +0.030 C 
ENDBRANCH  21  22
ENDBRANCH  20  21
ENDBRANCH   6  20
TORSDOF 6
