REMARK  Name = ZINC12497931
REMARK  9 active torsions:
REMARK  status: ('A' for Active; 'I' for Inactive)
REMARK    1  A    between atoms: C_1  and  C_2
REMARK    2  A    between atoms: C_2  and  C_3
REMARK    3  A    between atoms: C_3  and  C_4
REMARK    4  A    between atoms: C_4  and  C_31
REMARK    5  A    between atoms: C_9  and  C_11
REMARK    6  A    between atoms: N_18  and  C_21
REMARK    7  A    between atoms: C_31  and  O_33
REMARK    8  A    between atoms: O_33  and  C_34
REMARK    9  A    between atoms: C_34  and  C_35
REMARK                            x       y       z     vdW  Elec       q    Type
REMARK                         _______ _______ _______ _____ _____    ______ ____
ROOT
ATOM      1  C   UNL     1      -2.969  10.148  -2.513  0.00  0.00    +0.044 C 
ATOM      2  C   UNL     1      -3.236   8.843  -1.761  0.00  0.00    +0.086 C 
ATOM      3  C   UNL     1      -2.349   9.150  -0.490  0.00  0.00    +0.078 C 
ATOM      4  C   UNL     1      -2.801  10.503  -0.123  0.00  0.00    -0.020 C 
ATOM      5  C   UNL     1      -2.182   7.835   0.075  0.00  0.00    +0.229 C 
ATOM      6  O   UNL     1      -2.120   7.536   1.249  0.00  0.00    -0.275 OA
ATOM      7  N   UNL     1      -2.107   6.995  -1.008  0.00  0.00    -0.210 N 
ATOM      8  C   UNL     1      -2.487   7.600  -2.172  0.00  0.00    +0.229 C 
ATOM      9  O   UNL     1      -2.268   7.217  -3.301  0.00  0.00    -0.275 OA
ATOM     10  N   UNL     1      -2.836  11.184  -1.456  0.00  0.00    +0.396 N 
ATOM     11  H   UNL     1      -3.638  11.824  -1.496  0.00  0.00    -0.083 HD
ATOM     12  H   UNL     1      -1.968  11.713  -1.597  0.00  0.00    -0.083 HD
ENDROOT
BRANCH   7  13
ATOM     13  C   UNL     1      -1.682   5.660  -0.929  0.00  0.00    +0.048 A 
ATOM     14  C   UNL     1      -1.635   4.877  -2.074  0.00  0.00    +0.028 A 
ATOM     15  C   UNL     1      -1.218   3.563  -1.997  0.00  0.00    +0.051 A 
ATOM     16  C   UNL     1      -0.844   3.021  -0.776  0.00  0.00    +0.162 A 
ATOM     17  C   UNL     1      -0.887   3.804   0.372  0.00  0.00    +0.164 A 
ATOM     18  C   UNL     1      -1.307   5.123   0.294  0.00  0.00    +0.073 A 
ATOM     19  O   UNL     1      -0.516   3.293   1.578  0.00  0.00    -0.485 OA
ATOM     20  C   UNL     1      -0.457   1.866   1.682  0.00  0.00    +0.270 C 
ATOM     21  C   UNL     1       0.284   1.325   0.452  0.00  0.00    +0.270 C 
ATOM     22  O   UNL     1      -0.438   1.723  -0.718  0.00  0.00    -0.485 OA
ENDBRANCH   7  13
BRANCH   4  23
ATOM     23  C   UNL     1      -1.814  11.167   0.802  0.00  0.00    -0.023 A 
ATOM     24  C   UNL     1      -1.865  11.302   2.150  0.00  0.00    +0.009 A 
ATOM     25  C   UNL     1      -0.834  11.956   2.797  0.00  0.00    +0.008 A 
ATOM     26  C   UNL     1       0.198  12.443   2.066  0.00  0.00    +0.045 A 
ATOM     27  S   UNL     1      -0.271  11.973   0.408  0.00  0.00    -0.103 S 
ENDBRANCH   4  23
BRANCH   1  28
ATOM     28  C   UNL     1      -1.693  10.040  -3.308  0.00  0.00    +0.297 C 
ATOM     29  O   UNL     1      -1.730   9.695  -4.465  0.00  0.00    -0.252 OA
BRANCH  28  30
ATOM     30  O   UNL     1      -0.516  10.327  -2.730  0.00  0.00    -0.466 OA
BRANCH  30  31
ATOM     31  C   UNL     1       0.671  10.201  -3.556  0.00  0.00    +0.228 C 
ATOM     32  C   UNL     1       1.907  10.566  -2.731  0.00  0.00    +0.048 C 
ENDBRANCH  30  31
ENDBRANCH  28  30
ENDBRANCH   1  28
BRANCH   1  33
ATOM     33  C   UNL     1      -4.143  10.475  -3.439  0.00  0.00    -0.001 C 
BRANCH  33  35
ATOM     34  C   UNL     1      -5.030  12.110  -5.107  0.00  0.00    +0.004 C 
ATOM     35  C   UNL     1      -3.857  11.782  -4.181  0.00  0.00    -0.004 C 
ENDBRANCH  33  35
ENDBRANCH   1  33
TORSDOF 7
