REMARK  Name = ZINC39687167
REMARK  10 active torsions:
REMARK  status: ('A' for Active; 'I' for Inactive)
REMARK    1  A    between atoms: C_1  and  C_2
REMARK    2  A    between atoms: C_2  and  C_4
REMARK    3  A    between atoms: C_2  and  N_12
REMARK    4  A    between atoms: C_4  and  C_5
REMARK    5  A    between atoms: C_13  and  C_15
REMARK    6  A    between atoms: C_26  and  C_28
REMARK    7  A    between atoms: C_28  and  C_29
REMARK    8  A    between atoms: C_29  and  C_30
REMARK    9  A    between atoms: C_33  and  O_36
REMARK   10  A    between atoms: O_36  and  C_37
REMARK                            x       y       z     vdW  Elec       q    Type
REMARK                         _______ _______ _______ _____ _____    ______ ____
ROOT
ATOM      1  C   UNL     1       0.712  -1.094  -3.598  0.00  0.00    +0.100 C 
ATOM      2  C   UNL     1       1.732  -0.041  -4.085  0.00  0.00    +0.121 C 
ATOM      3  N   UNL     1       1.653  -0.098  -5.564  0.00  0.00    -0.300 N 
ATOM      4  C   UNL     1       0.208  -0.272  -5.849  0.00  0.00    +0.115 C 
ATOM      5  C   UNL     1      -0.287  -1.243  -4.759  0.00  0.00    -0.004 C 
ATOM      6  C   UNL     1      -0.277  -2.675  -5.284  0.00  0.00    -0.010 C 
ATOM      7  C   UNL     1      -1.318  -2.812  -6.399  0.00  0.00    -0.082 C 
ATOM      8  N   UNL     1      -2.646  -2.470  -5.875  0.00  0.00    +0.379 N 
ATOM      9  C   UNL     1      -2.673  -1.063  -5.458  0.00  0.00    -0.082 C 
ATOM     10  C   UNL     1      -1.689  -0.852  -4.303  0.00  0.00    -0.010 C 
ATOM     11  C   UNL     1       2.665  -0.011  -6.449  0.00  0.00    +0.216 C 
ATOM     12  O   UNL     1       2.438  -0.076  -7.638  0.00  0.00    -0.276 OA
ATOM     13  H   UNL     1      -3.338  -2.620  -6.594  0.00  0.00    -0.086 HD
ATOM     14  H   UNL     1      -2.856  -3.059  -5.083  0.00  0.00    -0.086 HD
ENDROOT
BRANCH   1  16
ATOM     15  N   UNL     1      -0.378  -1.488  -1.413  0.00  0.00    -0.312 N 
ATOM     16  C   UNL     1       0.006  -0.608  -2.358  0.00  0.00    +0.218 C 
ATOM     17  O   UNL     1      -0.215   0.575  -2.211  0.00  0.00    -0.275 OA
ATOM     18  H   UNL     1      -0.201  -2.435  -1.531  0.00  0.00    +0.149 HD
BRANCH  15  20
ATOM     19  C   UNL     1      -0.028  -0.578   0.830  0.00  0.00    +0.028 C 
ATOM     20  C   UNL     1      -1.064  -1.016  -0.208  0.00  0.00    +0.074 C 
BRANCH  20  21
ATOM     21  C   UNL     1      -1.918  -2.147   0.370  0.00  0.00    +0.060 C 
BRANCH  21  22
ATOM     22  C   UNL     1      -3.015  -2.495  -0.603  0.00  0.00    -0.010 A 
ATOM     23  C   UNL     1      -4.265  -1.920  -0.469  0.00  0.00    +0.006 A 
ATOM     24  C   UNL     1      -5.272  -2.239  -1.361  0.00  0.00    +0.000 A 
ATOM     25  C   UNL     1      -5.030  -3.133  -2.388  0.00  0.00    +0.003 A 
ATOM     26  C   UNL     1      -3.781  -3.708  -2.524  0.00  0.00    +0.038 A 
ATOM     27  C   UNL     1      -2.770  -3.385  -1.634  0.00  0.00    +0.127 A 
ATOM     28  F   UNL     1      -1.547  -3.944  -1.769  0.00  0.00    -0.205 F 
ENDBRANCH  21  22
ENDBRANCH  20  21
ENDBRANCH  15  20
ENDBRANCH   1  16
BRANCH  11  29
ATOM     29  C   UNL     1       4.080   0.166  -5.961  0.00  0.00    +0.100 C 
BRANCH  29  30
ATOM     30  C   UNL     1       5.028   0.235  -7.159  0.00  0.00    +0.044 C 
BRANCH  30  31
ATOM     31  C   UNL     1       6.443   0.411  -6.671  0.00  0.00    -0.047 A 
ATOM     32  C   UNL     1       6.954   1.682  -6.481  0.00  0.00    +0.007 A 
ATOM     33  C   UNL     1       8.250   1.847  -6.034  0.00  0.00    +0.046 A 
ATOM     34  C   UNL     1       9.040   0.736  -5.775  0.00  0.00    +0.120 A 
ATOM     35  C   UNL     1       8.525  -0.538  -5.967  0.00  0.00    +0.046 A 
ATOM     36  C   UNL     1       7.226  -0.697  -6.409  0.00  0.00    +0.007 A 
BRANCH  34  37
ATOM     37  O   UNL     1      10.316   0.895  -5.336  0.00  0.00    -0.495 OA
ATOM     38  C   UNL     1      11.071  -0.293  -5.090  0.00  0.00    +0.277 C 
ENDBRANCH  34  37
ENDBRANCH  30  31
ENDBRANCH  29  30
ENDBRANCH  11  29
TORSDOF 8
