REMARK  Name = ZINC58167075
REMARK  5 active torsions:
REMARK  status: ('A' for Active; 'I' for Inactive)
REMARK    1  A    between atoms: C_1  and  N_2
REMARK    2  A    between atoms: N_2  and  C_3
REMARK    3  A    between atoms: N_2  and  C_11
REMARK    4  A    between atoms: C_3  and  C_4
REMARK    5  A    between atoms: C_11  and  C_12
REMARK                            x       y       z     vdW  Elec       q    Type
REMARK                         _______ _______ _______ _____ _____    ______ ____
ROOT
ATOM      1  C   UNL     1      -1.789  -0.155  -1.359  0.00  0.00    -0.015 A 
ATOM      2  C   UNL     1      -1.818  -1.071  -2.374  0.00  0.00    +0.097 A 
ATOM      3  C   UNL     1      -2.364  -0.715  -3.621  0.00  0.00    +0.338 A 
ATOM      4  O   UNL     1      -2.240  -1.456  -4.577  0.00  0.00    -0.245 OA
ATOM      5  O   UNL     1      -3.048   0.435  -3.746  0.00  0.00    -0.422 OA
ATOM      6  C   UNL     1      -2.945   1.398  -2.806  0.00  0.00    +0.140 A 
ATOM      7  C   UNL     1      -2.230   1.158  -1.618  0.00  0.00    +0.030 A 
ATOM      8  C   UNL     1      -1.946   2.308  -0.763  0.00  0.00    -0.007 A 
ATOM      9  C   UNL     1      -0.903   2.355   0.165  0.00  0.00    +0.009 A 
ATOM     10  C   UNL     1      -0.782   3.416   1.016  0.00  0.00    +0.001 A 
ATOM     11  C   UNL     1      -1.663   4.490   0.951  0.00  0.00    +0.001 A 
ATOM     12  C   UNL     1      -2.628   4.530  -0.010  0.00  0.00    +0.008 A 
ATOM     13  C   UNL     1      -2.721   3.485  -0.942  0.00  0.00    -0.017 A 
ATOM     14  C   UNL     1      -3.536   3.613  -2.084  0.00  0.00    +0.012 A 
ATOM     15  C   UNL     1      -3.612   2.613  -2.994  0.00  0.00    +0.047 A 
ENDROOT
BRANCH   1  16
ATOM     16  C   UNL     1      -1.279  -0.606  -0.015  0.00  0.00    +0.120 C 
BRANCH  16  18
ATOM     17  C   UNL     1      -2.959  -2.287   0.449  0.00  0.00    +0.105 C 
ATOM     18  N   UNL     1      -2.414  -0.979   0.839  0.00  0.00    -0.297 NA
BRANCH  18  19
ATOM     19  C   UNL     1      -2.031  -0.971   2.257  0.00  0.00    +0.119 C 
BRANCH  19  20
ATOM     20  C   UNL     1      -3.264  -1.114   3.111  0.00  0.00    -0.032 A 
ATOM     21  C   UNL     1      -3.954   0.010   3.524  0.00  0.00    +0.005 A 
ATOM     22  C   UNL     1      -5.085  -0.121   4.308  0.00  0.00    +0.002 A 
ATOM     23  C   UNL     1      -5.527  -1.377   4.680  0.00  0.00    +0.020 A 
ATOM     24  C   UNL     1      -4.837  -2.502   4.267  0.00  0.00    +0.041 A 
ATOM     25  C   UNL     1      -3.708  -2.371   3.478  0.00  0.00    +0.025 A 
ATOM     26 CL   UNL     1      -5.391  -4.080   4.734  0.00  0.00    -0.084 Cl
ENDBRANCH  19  20
ENDBRANCH  18  19
ENDBRANCH  16  18
ENDBRANCH   1  16
TORSDOF 4
