REMARK  Name = ZINC32769054
REMARK  10 active torsions:
REMARK  status: ('A' for Active; 'I' for Inactive)
REMARK    1  A    between atoms: C_1  and  C_2
REMARK    2  A    between atoms: C_4  and  C_28
REMARK    3  A    between atoms: C_9  and  C_10
REMARK    4  A    between atoms: C_10  and  N_11
REMARK    5  A    between atoms: C_12  and  C_14
REMARK    6  A    between atoms: C_14  and  C_15
REMARK    7  A    between atoms: C_21  and  C_25
REMARK    8  A    between atoms: C_22  and  C_24
REMARK    9  A    between atoms: C_25  and  C_26
REMARK   10  A    between atoms: C_25  and  C_27
REMARK                            x       y       z     vdW  Elec       q    Type
REMARK                         _______ _______ _______ _____ _____    ______ ____
ROOT
ATOM      1  N   UNL     1      -0.557   0.862   1.268  0.00  0.00    -0.311 N 
ATOM      2  C   UNL     1      -0.151   0.721   2.546  0.00  0.00    +0.218 C 
ATOM      3  O   UNL     1       0.783  -0.007   2.808  0.00  0.00    -0.275 OA
ATOM      4  H   UNL     1      -1.404   1.522   1.030  0.00  0.00    +0.149 HD
ENDROOT
BRANCH   1   5
ATOM      5  C   UNL     1       0.130   0.137   0.197  0.00  0.00    +0.145 C 
BRANCH   5  14
ATOM      6  C   UNL     1       1.206   2.237  -1.466  0.00  0.00    +0.044 C 
ATOM      7  C   UNL     1      -0.005   1.458  -1.911  0.00  0.00    -0.039 A 
ATOM      8  C   UNL     1      -0.619   1.743  -3.139  0.00  0.00    +0.024 A 
ATOM      9  C   UNL     1      -1.710   1.042  -3.527  0.00  0.00    +0.016 A 
ATOM     10  N   UNL     1      -2.217   0.057  -2.742  0.00  0.00    -0.326 N 
ATOM     11  H   UNL     1      -3.103  -0.505  -3.070  0.00  0.00    +0.169 HD
ATOM     12  C   UNL     1      -1.647  -0.242  -1.560  0.00  0.00    +0.254 A 
ATOM     13  O   UNL     1      -2.115  -1.130  -0.865  0.00  0.00    -0.268 OA
ATOM     14  C   UNL     1      -0.513   0.466  -1.125  0.00  0.00    +0.037 A 
ATOM     15  C   UNL     1      -2.368   1.357  -4.846  0.00  0.00    +0.063 C 
ENDBRANCH   5  14
ENDBRANCH   1   5
BRANCH   2  16
ATOM     16  C   UNL     1      -0.857   1.468   3.648  0.00  0.00    +0.134 C 
BRANCH  16  17
ATOM     17  C   UNL     1      -0.214   1.138   4.970  0.00  0.00    +0.007 A 
ATOM     18  C   UNL     1      -0.603   0.199   5.843  0.00  0.00    +0.200 A 
ATOM     19  O   UNL     1       0.211   0.194   6.912  0.00  0.00    -0.463 OA
ATOM     20  C   UNL     1       1.173   1.130   6.789  0.00  0.00    +0.135 A 
ATOM     21  C   UNL     1       0.970   1.777   5.558  0.00  0.00    +0.024 A 
ATOM     22  C   UNL     1       1.818   2.809   5.161  0.00  0.00    +0.016 A 
ATOM     23  C   UNL     1       2.864   3.182   5.976  0.00  0.00    -0.041 A 
ATOM     24  C   UNL     1       3.070   2.539   7.188  0.00  0.00    -0.044 A 
ATOM     25  C   UNL     1       2.234   1.522   7.595  0.00  0.00    +0.050 A 
ATOM     26  C   UNL     1       4.219   2.958   8.069  0.00  0.00    +0.044 C 
BRANCH  23  27
ATOM     27  C   UNL     1       3.789   4.293   5.549  0.00  0.00    +0.013 C 
ATOM     28  C   UNL     1       4.353   3.982   4.161  0.00  0.00    +0.012 C 
ATOM     29  C   UNL     1       3.014   5.612   5.502  0.00  0.00    +0.012 C 
ENDBRANCH  23  27
ENDBRANCH  16  17
ENDBRANCH   2  16
TORSDOF 5
