REMARK  Name = ZINC38984440
REMARK  10 active torsions:
REMARK  status: ('A' for Active; 'I' for Inactive)
REMARK    1  A    between atoms: C_1  and  C_2
REMARK    2  A    between atoms: C_5  and  S_9
REMARK    3  A    between atoms: C_7  and  C_8
REMARK    4  A    between atoms: S_9  and  N_12
REMARK    5  A    between atoms: C_14  and  N_24
REMARK    6  A    between atoms: N_24  and  C_25
REMARK    7  A    between atoms: C_27  and  O_33
REMARK    8  A    between atoms: C_29  and  O_31
REMARK    9  A    between atoms: O_31  and  C_32
REMARK   10  A    between atoms: O_33  and  C_34
REMARK                            x       y       z     vdW  Elec       q    Type
REMARK                         _______ _______ _______ _____ _____    ______ ____
ROOT
ATOM      1  N   UNL     1       1.679  -4.669   0.333  0.00  0.00    -0.110 NA
ATOM      2  C   UNL     1       1.891  -5.928   0.091  0.00  0.00    +0.192 C 
ATOM      3  C   UNL     1       3.300  -6.449  -0.082  0.00  0.00    +0.237 C 
ATOM      4  N   UNL     1       3.473  -7.885  -0.354  0.00  0.00    -0.359 N 
ATOM      5  C   UNL     1       2.410  -8.636  -0.433  0.00  0.00    +0.063 A 
ATOM      6  C   UNL     1       2.529 -10.076  -0.704  0.00  0.00    +0.027 A 
ATOM      7  C   UNL     1       1.405 -10.822  -0.778  0.00  0.00    +0.002 A 
ATOM      8  C   UNL     1       0.131 -10.257  -0.604  0.00  0.00    +0.002 A 
ATOM      9  C   UNL     1      -0.058  -8.943  -0.353  0.00  0.00    +0.030 A 
ATOM     10  C   UNL     1       1.052  -8.066  -0.254  0.00  0.00    +0.089 A 
ATOM     11  N   UNL     1       0.863  -6.787  -0.005  0.00  0.00    -0.226 NA
ATOM     12  H   UNL     1       4.358  -8.264  -0.473  0.00  0.00    +0.162 HD
ENDROOT
BRANCH   1  13
ATOM     13  S   UNL     1       0.131  -4.113   0.527  0.00  0.00    +0.100 S 
ATOM     14  O   UNL     1      -0.369  -4.709   1.716  0.00  0.00    -0.146 OA
ATOM     15  O   UNL     1      -0.515  -4.262  -0.730  0.00  0.00    -0.146 OA
BRANCH  13  20
ATOM     16  C   UNL     1       0.482   1.817   1.589  0.00  0.00    +0.044 C 
ATOM     17  C   UNL     1       0.395   0.336   1.324  0.00  0.00    -0.047 A 
ATOM     18  C   UNL     1       0.285  -0.129   0.026  0.00  0.00    +0.005 A 
ATOM     19  C   UNL     1       0.205  -1.487  -0.217  0.00  0.00    +0.029 A 
ATOM     20  C   UNL     1       0.234  -2.381   0.837  0.00  0.00    +0.113 A 
ATOM     21  C   UNL     1       0.345  -1.917   2.135  0.00  0.00    +0.032 A 
ATOM     22  C   UNL     1       0.430  -0.558   2.377  0.00  0.00    -0.046 A 
ATOM     23  C   UNL     1       0.555  -0.052   3.791  0.00  0.00    +0.044 C 
ENDBRANCH  13  20
ENDBRANCH   1  13
BRANCH   3  24
ATOM     24  N   UNL     1       4.046  -6.133   1.138  0.00  0.00    -0.318 N 
ATOM     25  H   UNL     1       3.638  -6.275   2.007  0.00  0.00    +0.148 HD
BRANCH  24  26
ATOM     26  C   UNL     1       5.345  -5.628   1.051  0.00  0.00    +0.036 A 
ATOM     27  C   UNL     1       5.986  -5.566  -0.179  0.00  0.00    +0.068 A 
ATOM     28  C   UNL     1       7.275  -5.064  -0.265  0.00  0.00    +0.125 A 
ATOM     29  C   UNL     1       7.926  -4.624   0.878  0.00  0.00    +0.091 A 
ATOM     30  C   UNL     1       7.287  -4.686   2.108  0.00  0.00    +0.125 A 
ATOM     31  C   UNL     1       5.995  -5.182   2.194  0.00  0.00    +0.068 A 
BRANCH  30  32
ATOM     32  O   UNL     1       7.926  -4.256   3.228  0.00  0.00    -0.495 OA
ATOM     33  C   UNL     1       9.253  -3.752   3.064  0.00  0.00    +0.277 C 
ENDBRANCH  30  32
BRANCH  28  34
ATOM     34  O   UNL     1       7.902  -5.003  -1.469  0.00  0.00    -0.495 OA
ATOM     35  C   UNL     1       9.229  -4.474  -1.484  0.00  0.00    +0.277 C 
ENDBRANCH  28  34
ENDBRANCH  24  26
ENDBRANCH   3  24
TORSDOF 6
