REMARK  Name = ZINC35023476
REMARK  7 active torsions:
REMARK  status: ('A' for Active; 'I' for Inactive)
REMARK    1  A    between atoms: C_1  and  C_2
REMARK    2  A    between atoms: C_5  and  O_38
REMARK    3  A    between atoms: C_7  and  C_11
REMARK    4  A    between atoms: C_11  and  C_13
REMARK    5  A    between atoms: C_11  and  C_14
REMARK    6  A    between atoms: C_15  and  C_37
REMARK    7  A    between atoms: C_30  and  O_36
REMARK                            x       y       z     vdW  Elec       q    Type
REMARK                         _______ _______ _______ _____ _____    ______ ____
ROOT
ATOM      1  C   UNL     1       2.182  -4.720   1.381  0.00  0.00    -0.068 C 
ATOM      2  C   UNL     1       1.349  -5.526   2.024  0.00  0.00    -0.062 C 
ATOM      3  C   UNL     1       1.968  -6.213   3.209  0.00  0.00    +0.093 C 
ATOM      4  C   UNL     1       3.299  -6.787   2.635  0.00  0.00    +0.030 C 
ATOM      5  C   UNL     1       4.271  -5.642   2.539  0.00  0.00    +0.013 C 
ATOM      6  C   UNL     1       3.594  -4.473   1.807  0.00  0.00    +0.031 C 
ATOM      7  C   UNL     1       3.595  -7.931   3.532  0.00  0.00    -0.055 C 
ATOM      8  C   UNL     1       2.443  -8.329   4.117  0.00  0.00    +0.003 C 
ATOM      9  C   UNL     1       1.307  -7.481   3.675  0.00  0.00    +0.167 C 
ATOM     10  O   UNL     1       0.123  -7.747   3.681  0.00  0.00    -0.292 OA
ATOM     11  C   UNL     1       2.359  -9.479   5.069  0.00  0.00    +0.048 C 
ATOM     12  C   UNL     1       2.074  -9.052   6.505  0.00  0.00    +0.015 C 
ATOM     13  C   UNL     1       1.976 -10.311   7.375  0.00  0.00    +0.032 C 
ATOM     14  C   UNL     1       3.287 -11.094   7.351  0.00  0.00    +0.119 C 
ATOM     15  C   UNL     1       3.615 -11.544   5.919  0.00  0.00    +0.062 C 
ATOM     16  C   UNL     1       3.638 -10.277   5.075  0.00  0.00    -0.063 C 
ATOM     17  C   UNL     1       4.727  -9.907   4.484  0.00  0.00    -0.023 C 
ATOM     18  C   UNL     1       4.925  -8.581   3.812  0.00  0.00    +0.058 C 
ATOM     19  C   UNL     1      -0.083  -5.734   1.605  0.00  0.00    +0.040 C 
ENDROOT
BRANCH   1  20
ATOM     20  C   UNL     1       1.679  -4.016   0.147  0.00  0.00    +0.000 C 
ATOM     21  C   UNL     1       2.434  -4.534  -1.079  0.00  0.00    +0.010 C 
BRANCH  20  26
ATOM     22  C   UNL     1       1.233   1.678   0.792  0.00  0.00    +0.005 C 
ATOM     23  C   UNL     1       0.936   0.190   0.601  0.00  0.00    -0.029 C 
ATOM     24  C   UNL     1       1.499  -0.276  -0.745  0.00  0.00    +0.031 C 
ATOM     25  C   UNL     1       1.265  -1.782  -0.892  0.00  0.00    +0.101 C 
ATOM     26  C   UNL     1       1.911  -2.510   0.289  0.00  0.00    -0.036 C 
ATOM     27  N   UNL     1       1.312  -2.040   1.544  0.00  0.00    +0.383 N 
ATOM     28  C   UNL     1       1.592  -0.611   1.728  0.00  0.00    -0.079 C 
ATOM     29  H   UNL     1       0.313  -2.184   1.514  0.00  0.00    -0.085 HD
ATOM     30  H   UNL     1       1.701  -2.560   2.317  0.00  0.00    -0.085 HD
BRANCH  25  31
ATOM     31  O   UNL     1       1.851  -2.239  -2.113  0.00  0.00    -0.393 OA
ATOM     32  H   UNL     1       1.491  -1.816  -2.904  0.00  0.00    +0.210 HD
ENDBRANCH  25  31
ENDBRANCH  20  26
ENDBRANCH   1  20
BRANCH  14  33
ATOM     33  O   UNL     1       4.343 -10.261   7.834  0.00  0.00    -0.391 OA
ATOM     34  H   UNL     1       5.209 -10.692   7.848  0.00  0.00    +0.210 HD
ENDBRANCH  14  33
TORSDOF 4
