REMARK  Name = ZINC41636430
REMARK  5 active torsions:
REMARK  status: ('A' for Active; 'I' for Inactive)
REMARK    1  A    between atoms: C_1  and  C_2
REMARK    2  A    between atoms: C_6  and  C_7
REMARK    3  A    between atoms: C_7  and  C_9
REMARK    4  A    between atoms: C_7  and  N_18
REMARK    5  A    between atoms: N_21  and  C_24
REMARK                            x       y       z     vdW  Elec       q    Type
REMARK                         _______ _______ _______ _____ _____    ______ ____
ROOT
ATOM      1  C   UNL     1       0.030  -0.179   2.581  0.00  0.00    +0.136 C 
ENDROOT
BRANCH   1   2
ATOM      2  C   UNL     1       1.410  -0.333   3.166  0.00  0.00    +0.081 A 
ATOM      3  C   UNL     1       2.271   0.613   3.559  0.00  0.00    +0.285 A 
ATOM      4  N   UNL     1       3.499   0.272   4.074  0.00  0.00    -0.170 N 
ATOM      5  C   UNL     1       3.791  -1.055   4.162  0.00  0.00    +0.199 A 
ATOM      6  S   UNL     1       2.324  -1.826   3.522  0.00  0.00    -0.047 S 
ATOM      7  N   UNL     1       4.985  -1.208   4.666  0.00  0.00    -0.208 NA
ATOM      8  C   UNL     1       5.510  -0.012   4.923  0.00  0.00    +0.246 A 
ATOM      9  N   UNL     1       4.656   0.915   4.585  0.00  0.00    -0.150 NA
ATOM     10  O   UNL     1       1.928   1.925   3.449  0.00  0.00    -0.265 OA
ENDBRANCH   1   2
BRANCH   1  11
ATOM     11  N   UNL     1      -0.932  -0.942   3.388  0.00  0.00    -0.294 NA
ATOM     12  C   UNL     1      -2.276  -0.887   2.796  0.00  0.00    +0.067 C 
ATOM     13  C   UNL     1      -3.233  -1.740   3.631  0.00  0.00    -0.064 C 
ATOM     14  N   UNL     1      -3.264  -1.235   5.010  0.00  0.00    +0.379 N 
ATOM     15  C   UNL     1      -1.920  -1.319   5.595  0.00  0.00    -0.064 C 
ATOM     16  C   UNL     1      -0.952  -0.462   4.777  0.00  0.00    +0.067 C 
ATOM     17  C   UNL     1      -4.197  -2.044   5.807  0.00  0.00    -0.096 C 
ATOM     18  H   UNL     1      -3.571  -0.273   5.008  0.00  0.00    -0.082 HD
ENDBRANCH   1  11
BRANCH   1  24
ATOM     19  C   UNL     1      -0.018   1.503   0.010  0.00  0.00    +0.044 C 
ATOM     20  C   UNL     1       0.002  -0.004   0.002  0.00  0.00    -0.038 A 
ATOM     21  C   UNL     1       0.006  -0.699  -1.193  0.00  0.00    +0.011 A 
ATOM     22  C   UNL     1       0.024  -2.054  -1.165  0.00  0.00    +0.046 A 
ATOM     23  S   UNL     1       0.037  -2.387   0.589  0.00  0.00    -0.099 S 
ATOM     24  C   UNL     1       0.023  -0.698   1.166  0.00  0.00    +0.015 A 
ENDBRANCH   1  24
TORSDOF 3
