REMARK  Name = ZINC18137877
REMARK  8 active torsions:
REMARK  status: ('A' for Active; 'I' for Inactive)
REMARK    1  A    between atoms: C_1  and  C_2
REMARK    2  A    between atoms: C_5  and  N_9
REMARK    3  A    between atoms: C_6  and  C_8
REMARK    4  A    between atoms: C_10  and  C_12
REMARK    5  A    between atoms: C_12  and  C_13
REMARK    6  A    between atoms: C_13  and  C_14
REMARK    7  A    between atoms: N_16  and  N_17
REMARK    8  A    between atoms: C_23  and  C_26
REMARK                            x       y       z     vdW  Elec       q    Type
REMARK                         _______ _______ _______ _____ _____    ______ ____
ROOT
ATOM      1  C   UNL     1      -0.458  -8.337  -2.639  0.00  0.00    +0.233 C 
ATOM      2  O   UNL     1      -0.283  -8.935  -1.599  0.00  0.00    -0.274 OA
ATOM      3  N   UNL     1      -0.585  -9.019  -3.795  0.00  0.00    -0.206 N 
ATOM      4  H   UNL     1      -0.724  -8.541  -4.627  0.00  0.00    +0.177 HD
ENDROOT
BRANCH   3   5
ATOM      5  N   UNL     1      -0.516 -10.418  -3.794  0.00  0.00    -0.174 NA
ATOM      6  C   UNL     1      -0.513 -11.075  -4.929  0.00  0.00    +0.154 C 
ATOM      7  C   UNL     1       0.067 -10.641  -6.221  0.00  0.00    +0.042 A 
ATOM      8  C   UNL     1      -0.178 -11.677  -7.132  0.00  0.00    +0.044 A 
ATOM      9  C   UNL     1       0.262 -11.541  -8.444  0.00  0.00    +0.024 A 
ATOM     10  C   UNL     1       0.931 -10.398  -8.836  0.00  0.00    +0.006 A 
ATOM     11  C   UNL     1       1.172  -9.377  -7.933  0.00  0.00    -0.036 A 
ATOM     12  C   UNL     1       0.742  -9.494  -6.625  0.00  0.00    +0.032 A 
ATOM     13 BR   UNL     1       1.070  -8.101  -5.389  0.00  0.00    -0.049 Br
ATOM     14  C   UNL     1       1.904  -8.137  -8.377  0.00  0.00    +0.045 C 
ATOM     15  N   UNL     1      -0.863 -12.703  -6.489  0.00  0.00    -0.280 N 
ATOM     16  C   UNL     1      -1.083 -12.412  -5.196  0.00  0.00    +0.269 C 
ATOM     17  O   UNL     1      -1.652 -13.122  -4.389  0.00  0.00    -0.268 OA
ATOM     18  H   UNL     1      -1.142 -13.526  -6.919  0.00  0.00    +0.155 HD
ENDBRANCH   3   5
BRANCH   1  19
ATOM     19  C   UNL     1      -0.532  -6.832  -2.640  0.00  0.00    +0.107 C 
BRANCH  19  20
ATOM     20  C   UNL     1      -0.359  -6.312  -1.212  0.00  0.00    +0.105 C 
BRANCH  20  22
ATOM     21  N   UNL     1      -0.306  -4.126  -0.057  0.00  0.00    -0.285 N 
ATOM     22  C   UNL     1      -0.433  -4.807  -1.212  0.00  0.00    +0.218 C 
ATOM     23  O   UNL     1      -0.607  -4.209  -2.253  0.00  0.00    -0.275 OA
ATOM     24  H   UNL     1      -0.104  -4.599   0.766  0.00  0.00    +0.155 HD
BRANCH  21  29
ATOM     25  C   UNL     1      -0.954   1.510  -0.002  0.00  0.00    +0.044 C 
ATOM     26  C   UNL     1      -0.781   0.013  -0.016  0.00  0.00    -0.050 A 
ATOM     27  C   UNL     1      -0.214  -0.606  -1.115  0.00  0.00    +0.005 A 
ATOM     28  C   UNL     1      -0.055  -1.977  -1.132  0.00  0.00    +0.024 A 
ATOM     29  C   UNL     1      -0.465  -2.736  -0.043  0.00  0.00    +0.036 A 
ATOM     30  C   UNL     1      -1.034  -2.111   1.059  0.00  0.00    -0.029 A 
ATOM     31  C   UNL     1      -1.186  -0.738   1.071  0.00  0.00    +0.008 A 
ATOM     32  C   UNL     1      -1.481  -2.930   2.243  0.00  0.00    +0.045 C 
ENDBRANCH  21  29
ENDBRANCH  20  22
ENDBRANCH  19  20
ENDBRANCH   1  19
TORSDOF 5
