REMARK  Name = ZINC09510874
REMARK  8 active torsions:
REMARK  status: ('A' for Active; 'I' for Inactive)
REMARK    1  A    between atoms: C_1  and  C_2
REMARK    2  A    between atoms: C_7  and  C_8
REMARK    3  A    between atoms: N_11  and  C_12
REMARK    4  A    between atoms: C_12  and  C_14
REMARK    5  A    between atoms: N_21  and  C_22
REMARK    6  A    between atoms: C_22  and  C_23
REMARK    7  A    between atoms: C_23  and  O_25
REMARK    8  A    between atoms: O_25  and  C_26
REMARK                            x       y       z     vdW  Elec       q    Type
REMARK                         _______ _______ _______ _____ _____    ______ ____
ROOT
ATOM      1  C   UNL     1      10.154   2.313   1.825  0.00  0.00    +0.044 C 
ATOM      2  C   UNL     1       8.765   1.885   1.429  0.00  0.00    -0.046 A 
ATOM      3  C   UNL     1       7.872   2.827   0.975  0.00  0.00    +0.030 A 
ATOM      4  C   UNL     1       6.569   2.463   0.597  0.00  0.00    +0.058 A 
ATOM      5  C   UNL     1       6.241   1.104   0.710  0.00  0.00    +0.039 A 
ATOM      6  C   UNL     1       7.134   0.162   1.164  0.00  0.00    +0.020 A 
ATOM      7  C   UNL     1       8.411   0.550   1.529  0.00  0.00    -0.046 A 
ATOM      8  C   UNL     1       9.405  -0.467   2.028  0.00  0.00    +0.044 C 
ATOM      9  S   UNL     1       4.553   1.041   0.161  0.00  0.00    -0.052 S 
ATOM     10  C   UNL     1       4.346   2.777  -0.200  0.00  0.00    +0.167 A 
ATOM     11  N   UNL     1       3.274   3.408  -0.663  0.00  0.00    -0.152 NA
ATOM     12  N   UNL     1       5.566   3.291   0.125  0.00  0.00    -0.310 N 
ENDROOT
BRANCH  11  13
ATOM     13  C   UNL     1       2.155   2.722  -0.927  0.00  0.00    +0.271 C 
ATOM     14  O   UNL     1       2.120   1.517  -0.741  0.00  0.00    -0.268 OA
BRANCH  13  15
ATOM     15  C   UNL     1       0.964   3.423  -1.441  0.00  0.00    +0.066 A 
ATOM     16  C   UNL     1       0.969   4.846  -1.671  0.00  0.00    +0.042 A 
ATOM     17  C   UNL     1      -0.169   5.395  -2.142  0.00  0.00    +0.080 A 
ATOM     18  S   UNL     1      -1.262   3.996  -2.287  0.00  0.00    -0.064 S 
ATOM     19  C   UNL     1      -0.205   2.747  -1.722  0.00  0.00    +0.092 A 
ATOM     20 CL   UNL     1      -0.534   1.050  -1.556  0.00  0.00    -0.075 Cl
ATOM     21 CL   UNL     1      -0.488   7.059  -2.522  0.00  0.00    -0.076 Cl
ENDBRANCH  13  15
ENDBRANCH  11  13
BRANCH  12  22
ATOM     22  C   UNL     1       5.816   4.726  -0.026  0.00  0.00    +0.244 C 
BRANCH  22  23
ATOM     23  C   UNL     1       5.188   5.214  -1.306  0.00  0.00    +0.327 C 
ATOM     24  O   UNL     1       4.738   4.420  -2.099  0.00  0.00    -0.249 OA
BRANCH  23  25
ATOM     25  O   UNL     1       5.129   6.529  -1.566  0.00  0.00    -0.467 OA
ATOM     26  C   UNL     1       4.510   6.926  -2.818  0.00  0.00    +0.280 C 
ENDBRANCH  23  25
ENDBRANCH  22  23
ENDBRANCH  12  22
TORSDOF 5
