REMARK  Name = ZINC39656978
REMARK  8 active torsions:
REMARK  status: ('A' for Active; 'I' for Inactive)
REMARK    1  A    between atoms: C_1  and  C_2
REMARK    2  A    between atoms: C_2  and  O_3
REMARK    3  A    between atoms: O_3  and  C_4
REMARK    4  A    between atoms: C_9  and  C_10
REMARK    5  A    between atoms: C_14  and  C_23
REMARK    6  A    between atoms: N_25  and  C_26
REMARK    7  A    between atoms: C_26  and  C_28
REMARK    8  A    between atoms: C_26  and  C_29
REMARK                            x       y       z     vdW  Elec       q    Type
REMARK                         _______ _______ _______ _____ _____    ______ ____
ROOT
ATOM      1  C   UNL     1       1.977  -1.193  -3.659  0.00  0.00    +0.250 C 
ATOM      2  O   UNL     1       1.836   0.014  -3.661  0.00  0.00    -0.270 OA
ATOM      3  N   UNL     1       2.690  -1.790  -4.636  0.00  0.00    -0.296 N 
ATOM      4  C   UNL     1       2.882  -3.241  -4.862  0.00  0.00    +0.121 C 
ATOM      5  C   UNL     1       2.821  -3.408  -6.397  0.00  0.00    +0.100 C 
ATOM      6  C   UNL     1       3.202  -2.027  -6.957  0.00  0.00    -0.004 C 
ATOM      7  C   UNL     1       3.454  -1.141  -5.729  0.00  0.00    +0.115 C 
ATOM      8  C   UNL     1       2.055  -1.457  -7.785  0.00  0.00    -0.010 C 
ATOM      9  C   UNL     1       2.479  -0.111  -8.378  0.00  0.00    -0.082 C 
ATOM     10  N   UNL     1       3.669  -0.296  -9.217  0.00  0.00    +0.379 N 
ATOM     11  C   UNL     1       4.794  -0.757  -8.395  0.00  0.00    -0.082 C 
ATOM     12  C   UNL     1       4.468  -2.131  -7.803  0.00  0.00    -0.010 C 
ATOM     13  H   UNL     1       3.472  -0.983  -9.930  0.00  0.00    -0.086 HD
ATOM     14  H   UNL     1       3.910   0.580  -9.655  0.00  0.00    -0.086 HD
ENDROOT
BRANCH   1  20
ATOM     15  C   UNL     1       0.142  -1.626  -2.026  0.00  0.00    +0.133 A 
ATOM     16  C   UNL     1      -0.423  -2.400  -1.024  0.00  0.00    +0.046 A 
ATOM     17  C   UNL     1       0.222  -3.537  -0.580  0.00  0.00    +0.004 A 
ATOM     18  C   UNL     1       1.437  -3.913  -1.130  0.00  0.00    +0.001 A 
ATOM     19  C   UNL     1       2.014  -3.155  -2.126  0.00  0.00    +0.017 A 
ATOM     20  C   UNL     1       1.368  -2.006  -2.589  0.00  0.00    +0.078 A 
BRANCH  15  21
ATOM     21  O   UNL     1      -0.491  -0.508  -2.463  0.00  0.00    -0.491 OA
BRANCH  21  23
ATOM     22  C   UNL     1      -2.296   1.099  -2.462  0.00  0.00    +0.048 C 
ATOM     23  C   UNL     1      -1.736  -0.184  -1.843  0.00  0.00    +0.226 C 
ENDBRANCH  21  23
ENDBRANCH  15  21
ENDBRANCH   1  20
BRANCH   5  24
ATOM     24  C   UNL     1       1.427  -3.785  -6.830  0.00  0.00    +0.219 C 
ATOM     25  O   UNL     1       0.470  -3.404  -6.190  0.00  0.00    -0.275 OA
ATOM     26  N   UNL     1       1.245  -4.546  -7.927  0.00  0.00    -0.308 N 
ATOM     27  H   UNL     1       2.011  -4.851  -8.438  0.00  0.00    +0.149 HD
BRANCH  26  28
ATOM     28  C   UNL     1      -0.110  -4.913  -8.347  0.00  0.00    +0.100 C 
ATOM     29  C   UNL     1      -0.698  -3.792  -9.206  0.00  0.00    +0.033 C 
BRANCH  28  30
ATOM     30  C   UNL     1      -0.059  -6.188  -9.150  0.00  0.00    -0.027 A 
ATOM     31  C   UNL     1       0.967  -6.395 -10.053  0.00  0.00    +0.006 A 
ATOM     32  C   UNL     1       1.015  -7.564 -10.789  0.00  0.00    +0.015 A 
ATOM     33  C   UNL     1       0.035  -8.526 -10.622  0.00  0.00    +0.018 A 
ATOM     34  C   UNL     1      -0.992  -8.318  -9.719  0.00  0.00    +0.015 A 
ATOM     35  C   UNL     1      -1.035  -7.151  -8.979  0.00  0.00    +0.006 A 
ATOM     36 BR   UNL     1       0.099 -10.125 -11.629  0.00  0.00    -0.050 Br
ENDBRANCH  28  30
ENDBRANCH  26  28
ENDBRANCH   5  24
TORSDOF 6
