REMARK  Name = ZINC07087997
REMARK  8 active torsions:
REMARK  status: ('A' for Active; 'I' for Inactive)
REMARK    1  A    between atoms: C_1  and  C_2
REMARK    2  A    between atoms: C_6  and  N_8
REMARK    3  A    between atoms: C_9  and  C_20
REMARK    4  A    between atoms: C_23  and  O_28
REMARK    5  A    between atoms: C_24  and  O_26
REMARK    6  A    between atoms: O_26  and  C_27
REMARK    7  A    between atoms: O_28  and  C_29
REMARK    8  A    between atoms: C_29  and  C_30
REMARK                            x       y       z     vdW  Elec       q    Type
REMARK                         _______ _______ _______ _____ _____    ______ ____
ROOT
ATOM      1  N   UNL     1      -1.179  -2.127  -0.194  0.00  0.00    -0.244 N 
ATOM      2  C   UNL     1       0.056  -2.764  -0.653  0.00  0.00    +0.198 C 
ATOM      3  N   UNL     1       1.221  -2.100  -0.058  0.00  0.00    -0.321 N 
ATOM      4  C   UNL     1       1.248  -0.711  -0.009  0.00  0.00    +0.041 A 
ATOM      5  C   UNL     1       2.438  -0.003  -0.022  0.00  0.00    +0.024 A 
ATOM      6  C   UNL     1       2.414   1.377   0.042  0.00  0.00    +0.002 A 
ATOM      7  C   UNL     1       1.210   2.058   0.122  0.00  0.00    +0.001 A 
ATOM      8  C   UNL     1       0.015   1.368   0.135  0.00  0.00    +0.015 A 
ATOM      9  C   UNL     1       0.023  -0.023   0.063  0.00  0.00    +0.058 A 
ATOM     10  C   UNL     1      -1.225  -0.805   0.070  0.00  0.00    +0.254 C 
ATOM     11  O   UNL     1      -2.287  -0.264   0.311  0.00  0.00    -0.270 OA
ATOM     12  H   UNL     1       1.960  -2.621   0.293  0.00  0.00    +0.148 HD
ENDROOT
BRANCH   1  18
ATOM     13  C   UNL     1      -3.449  -5.926   1.946  0.00  0.00    +0.044 C 
ATOM     14  C   UNL     1      -3.460  -4.749   1.005  0.00  0.00    -0.049 A 
ATOM     15  C   UNL     1      -4.611  -4.434   0.306  0.00  0.00    +0.003 A 
ATOM     16  C   UNL     1      -4.625  -3.355  -0.558  0.00  0.00    +0.002 A 
ATOM     17  C   UNL     1      -3.490  -2.585  -0.723  0.00  0.00    +0.023 A 
ATOM     18  C   UNL     1      -2.331  -2.901  -0.026  0.00  0.00    +0.039 A 
ATOM     19  C   UNL     1      -2.320  -3.986   0.841  0.00  0.00    +0.027 A 
ENDBRANCH   1  18
BRANCH   2  20
ATOM     20  C   UNL     1       0.138  -2.667  -2.155  0.00  0.00    -0.005 A 
ATOM     21  C   UNL     1      -1.020  -2.643  -2.909  0.00  0.00    +0.011 A 
ATOM     22  C   UNL     1      -0.949  -2.554  -4.287  0.00  0.00    +0.050 A 
ATOM     23  C   UNL     1       0.284  -2.488  -4.915  0.00  0.00    +0.163 A 
ATOM     24  C   UNL     1       1.450  -2.512  -4.155  0.00  0.00    +0.162 A 
ATOM     25  C   UNL     1       1.372  -2.596  -2.774  0.00  0.00    +0.056 A 
BRANCH  24  26
ATOM     26  O   UNL     1       2.663  -2.447  -4.767  0.00  0.00    -0.491 OA
ATOM     27  C   UNL     1       3.817  -2.477  -3.924  0.00  0.00    +0.277 C 
ENDBRANCH  24  26
BRANCH  23  28
ATOM     28  O   UNL     1       0.356  -2.399  -6.270  0.00  0.00    -0.479 OA
BRANCH  28  29
ATOM     29  C   UNL     1      -0.882  -2.379  -6.985  0.00  0.00    +0.324 C 
BRANCH  29  30
ATOM     30  C   UNL     1      -0.606  -2.278  -8.463  0.00  0.00    +0.248 C 
ATOM     31  O   UNL     1       0.537  -2.228  -8.865  0.00  0.00    -0.272 OA
ATOM     32  N   UNL     1      -1.630  -2.243  -9.338  0.00  0.00    -0.327 N 
ATOM     33  H   UNL     1      -2.545  -2.283  -9.017  0.00  0.00    +0.145 HD
ATOM     34  H   UNL     1      -1.453  -2.178 -10.290  0.00  0.00    +0.145 HD
ENDBRANCH  29  30
ENDBRANCH  28  29
ENDBRANCH  23  28
ENDBRANCH   2  20
TORSDOF 6
