REMARK  Name = ZINC02234352
REMARK  7 active torsions:
REMARK  status: ('A' for Active; 'I' for Inactive)
REMARK    1  A    between atoms: C_1  and  C_2
REMARK    2  A    between atoms: C_2  and  C_32
REMARK    3  A    between atoms: C_7  and  C_31
REMARK    4  A    between atoms: C_10  and  N_11
REMARK    5  A    between atoms: C_10  and  N_61
REMARK    6  A    between atoms: N_19  and  N_20
REMARK    7  A    between atoms: C_21  and  C_23
REMARK                            x       y       z     vdW  Elec       q    Type
REMARK                         _______ _______ _______ _____ _____    ______ ____
ROOT
ATOM      1  N   UNL     1       1.221   2.276   0.045  0.00  0.00    -0.282 N 
ATOM      2  C   UNL     1       1.092   3.642  -0.180  0.00  0.00    +0.044 A 
ATOM      3  C   UNL     1       2.036   4.626  -0.456  0.00  0.00    +0.024 A 
ATOM      4  C   UNL     1       1.639   5.934  -0.642  0.00  0.00    +0.002 A 
ATOM      5  C   UNL     1       0.301   6.285  -0.556  0.00  0.00    +0.001 A 
ATOM      6  C   UNL     1      -0.649   5.322  -0.283  0.00  0.00    +0.012 A 
ATOM      7  C   UNL     1      -0.259   4.001  -0.094  0.00  0.00    +0.028 A 
ATOM      8  C   UNL     1      -1.005   2.755   0.200  0.00  0.00    +0.153 C 
ATOM      9  N   UNL     1      -2.299   2.618   0.361  0.00  0.00    -0.174 NA
ATOM     10  C   UNL     1       0.028   1.702   0.277  0.00  0.00    +0.270 C 
ATOM     11  O   UNL     1      -0.167   0.522   0.504  0.00  0.00    -0.268 OA
ENDROOT
BRANCH   9  12
ATOM     12  N   UNL     1      -2.840   1.356   0.640  0.00  0.00    -0.201 N 
ATOM     13  C   UNL     1      -4.170   1.215   0.804  0.00  0.00    +0.282 C 
ATOM     14  O   UNL     1      -4.900   2.182   0.711  0.00  0.00    -0.267 OA
ATOM     15  H   UNL     1      -2.257   0.584   0.714  0.00  0.00    +0.178 HD
BRANCH  13  16
ATOM     16  C   UNL     1      -4.742  -0.119   1.100  0.00  0.00    +0.127 A 
ATOM     17  C   UNL     1      -6.119  -0.258   1.269  0.00  0.00    +0.033 A 
ATOM     18  C   UNL     1      -6.639  -1.513   1.545  0.00  0.00    +0.004 A 
ATOM     19  C   UNL     1      -5.765  -2.584   1.641  0.00  0.00    +0.020 A 
ATOM     20  C   UNL     1      -4.407  -2.373   1.461  0.00  0.00    +0.111 A 
ATOM     21  N   UNL     1      -3.940  -1.173   1.195  0.00  0.00    -0.250 NA
ENDBRANCH  13  16
ENDBRANCH   9  12
BRANCH   1  22
ATOM     22  C   UNL     1       2.495   1.554   0.031  0.00  0.00    +0.039 C 
BRANCH  22  33
ATOM     23  C   UNL     1       4.953  -2.770  -0.793  0.00  0.00    +0.011 C 
ATOM     24  C   UNL     1       3.888  -1.645  -0.866  0.00  0.00    -0.036 C 
ATOM     25  C   UNL     1       4.601  -0.338  -0.602  0.00  0.00    -0.009 C 
ATOM     26  C   UNL     1       4.272   0.821  -1.528  0.00  0.00    -0.065 C 
ATOM     27  C   UNL     1       4.255   0.262  -2.980  0.00  0.00    -0.011 C 
ATOM     28  C   UNL     1       2.906  -0.507  -2.942  0.00  0.00    -0.048 C 
ATOM     29  C   UNL     1       3.158  -1.808  -2.182  0.00  0.00    +0.011 C 
ATOM     30  C   UNL     1       1.997   0.392  -2.070  0.00  0.00    -0.070 C 
ATOM     31  C   UNL     1       2.324  -0.739  -4.343  0.00  0.00    +0.009 C 
ATOM     32  C   UNL     1       2.902  -1.921   0.287  0.00  0.00    +0.011 C 
ATOM     33  N   UNL     1       2.891   1.338  -1.402  0.00  0.00    +0.393 N 
ATOM     34  H   UNL     1       2.834   2.242  -1.885  0.00  0.00    -0.079 HD
ENDBRANCH  22  33
ENDBRANCH   1  22
TORSDOF 4
