REMARK  Name = ZINC39305830
REMARK  11 active torsions:
REMARK  status: ('A' for Active; 'I' for Inactive)
REMARK    1  A    between atoms: C_1  and  C_2
REMARK    2  A    between atoms: C_2  and  N_3
REMARK    3  A    between atoms: C_4  and  C_28
REMARK    4  A    between atoms: C_6  and  C_9
REMARK    5  A    between atoms: C_9  and  C_11
REMARK    6  A    between atoms: C_9  and  N_12
REMARK    7  A    between atoms: N_12  and  C_13
REMARK    8  A    between atoms: C_13  and  C_14
REMARK    9  A    between atoms: C_16  and  C_20
REMARK   10  A    between atoms: C_23  and  O_26
REMARK   11  A    between atoms: O_26  and  C_27
REMARK                            x       y       z     vdW  Elec       q    Type
REMARK                         _______ _______ _______ _____ _____    ______ ____
ROOT
ATOM      1  C   UNL     1      -2.702  -5.024  -0.916  0.00  0.00    +0.139 C 
ENDROOT
BRANCH   1   2
ATOM      2  C   UNL     1      -3.034  -5.489   0.478  0.00  0.00    +0.077 A 
ATOM      3  C   UNL     1      -4.005  -4.935   1.312  0.00  0.00    +0.054 A 
ATOM      4  C   UNL     1      -3.999  -5.635   2.485  0.00  0.00    +0.066 A 
ATOM      5  N   UNL     1      -3.044  -6.601   2.377  0.00  0.00    -0.277 N 
ATOM      6  N   UNL     1      -2.463  -6.485   1.107  0.00  0.00    -0.177 NA
ATOM      7  H   UNL     1      -2.811  -7.253   3.055  0.00  0.00    +0.189 HD
BRANCH   4   8
ATOM      8  C   UNL     1      -4.869  -5.389   3.657  0.00  0.00    +0.000 A 
ATOM      9  C   UNL     1      -5.812  -4.362   3.625  0.00  0.00    +0.013 A 
ATOM     10  C   UNL     1      -6.621  -4.136   4.718  0.00  0.00    +0.046 A 
ATOM     11  C   UNL     1      -6.497  -4.930   5.851  0.00  0.00    +0.120 A 
ATOM     12  C   UNL     1      -5.560  -5.954   5.886  0.00  0.00    +0.046 A 
ATOM     13  C   UNL     1      -4.751  -6.189   4.795  0.00  0.00    +0.013 A 
BRANCH  11  14
ATOM     14  O   UNL     1      -7.295  -4.705   6.927  0.00  0.00    -0.495 OA
ATOM     15  C   UNL     1      -7.115  -5.558   8.059  0.00  0.00    +0.277 C 
ENDBRANCH  11  14
ENDBRANCH   4   8
ENDBRANCH   1   2
BRANCH   1  16
ATOM     16  N   UNL     1      -1.571  -4.088  -0.864  0.00  0.00    -0.304 NA
ATOM     17  H   UNL     1      -0.775  -4.508  -0.409  0.00  0.00    +0.123 HD
BRANCH  16  18
ATOM     18  C   UNL     1      -1.219  -3.613  -2.209  0.00  0.00    +0.080 C 
ATOM     19  C   UNL     1      -0.273  -4.616  -2.873  0.00  0.00    +0.029 C 
BRANCH  18  22
ATOM     20  N   UNL     1       0.690  -0.478  -1.207  0.00  0.00    -0.240 NA
ATOM     21  C   UNL     1       0.689  -1.961  -1.272  0.00  0.00    +0.100 C 
ATOM     22  C   UNL     1      -0.538  -2.272  -2.105  0.00  0.00    -0.022 C 
ATOM     23  C   UNL     1      -0.904  -1.176  -2.719  0.00  0.00    +0.066 C 
ATOM     24  N   UNL     1      -0.055  -0.109  -2.413  0.00  0.00    -0.356 NA
ATOM     25  C   UNL     1       1.957  -2.472  -1.960  0.00  0.00    +0.030 C 
ATOM     26  H   UNL     1      -0.599   0.724  -2.240  0.00  0.00    +0.140 HD
ATOM     27  H   UNL     1       0.585   0.050  -3.177  0.00  0.00    +0.140 HD
BRANCH  20  29
ATOM     28  C   UNL     1      -0.019   1.526   0.010  0.00  0.00    +0.022 C 
ATOM     29  C   UNL     1       0.002  -0.004   0.002  0.00  0.00    +0.101 C 
ENDBRANCH  20  29
ENDBRANCH  18  22
ENDBRANCH  16  18
ENDBRANCH   1  16
TORSDOF 7
