REMARK  Name = ZINC64539586
REMARK  9 active torsions:
REMARK  status: ('A' for Active; 'I' for Inactive)
REMARK    1  A    between atoms: C_1  and  C_2
REMARK    2  A    between atoms: C_2  and  O_3
REMARK    3  A    between atoms: O_3  and  C_4
REMARK    4  A    between atoms: C_4  and  C_6
REMARK    5  A    between atoms: C_10  and  C_15
REMARK    6  A    between atoms: N_22  and  C_23
REMARK    7  A    between atoms: C_23  and  C_24
REMARK    8  A    between atoms: C_24  and  C_25
REMARK    9  A    between atoms: C_28  and  C_34
REMARK                            x       y       z     vdW  Elec       q    Type
REMARK                         _______ _______ _______ _____ _____    ______ ____
ROOT
ATOM      1  C   UNL     1       1.345  -2.389   2.744  0.00  0.00    +0.243 A 
ATOM      2  N   UNL     1       1.448  -3.704   2.892  0.00  0.00    -0.206 NA
ATOM      3  C   UNL     1       2.257  -4.226   3.808  0.00  0.00    +0.136 A 
ATOM      4  C   UNL     1       3.002  -3.353   4.618  0.00  0.00    +0.108 A 
ATOM      5  C   UNL     1       3.972  -3.528   5.704  0.00  0.00    +0.126 A 
ATOM      6  N   UNL     1       4.341  -2.333   6.086  0.00  0.00    -0.075 NA
ATOM      7  O   UNL     1       3.669  -1.360   5.312  0.00  0.00    -0.334 OA
ATOM      8  C   UNL     1       2.862  -1.967   4.426  0.00  0.00    +0.264 A 
ATOM      9  N   UNL     1       2.034  -1.535   3.483  0.00  0.00    -0.184 NA
ATOM     10  N   UNL     1       2.362  -5.595   3.960  0.00  0.00    -0.328 N 
ATOM     11  H   UNL     1       2.889  -5.963   4.686  0.00  0.00    +0.147 HD
ENDROOT
BRANCH   5  12
ATOM     12  C   UNL     1       4.445  -4.818   6.264  0.00  0.00    +0.004 A 
ATOM     13  C   UNL     1       4.824  -5.853   5.411  0.00  0.00    +0.011 A 
ATOM     14  C   UNL     1       5.263  -7.051   5.937  0.00  0.00    +0.020 A 
ATOM     15  C   UNL     1       5.328  -7.225   7.309  0.00  0.00    +0.041 A 
ATOM     16  C   UNL     1       4.952  -6.200   8.160  0.00  0.00    +0.020 A 
ATOM     17  C   UNL     1       4.517  -4.996   7.644  0.00  0.00    +0.011 A 
ATOM     18 CL   UNL     1       5.881  -8.734   7.964  0.00  0.00    -0.084 Cl
ENDBRANCH   5  12
BRANCH   1  19
ATOM     19  C   UNL     1       0.427  -1.857   1.706  0.00  0.00    +0.377 C 
ATOM     20  O   UNL     1      -0.216  -2.621   1.015  0.00  0.00    -0.241 OA
BRANCH  19  21
ATOM     21  O   UNL     1       0.306  -0.528   1.530  0.00  0.00    -0.459 OA
BRANCH  21  23
ATOM     22  C   UNL     1      -0.598   1.443   0.463  0.00  0.00    +0.048 C 
ATOM     23  C   UNL     1      -0.595  -0.086   0.514  0.00  0.00    +0.229 C 
ENDBRANCH  21  23
ENDBRANCH  19  21
ENDBRANCH   1  19
BRANCH  10  24
ATOM     24  C   UNL     1       1.678  -6.491   3.024  0.00  0.00    +0.107 C 
BRANCH  24  25
ATOM     25  C   UNL     1       1.955  -7.944   3.414  0.00  0.00    +0.052 C 
BRANCH  25  26
ATOM     26  C   UNL     1       1.251  -8.866   2.451  0.00  0.00    -0.040 C 
ATOM     27  C   UNL     1       1.777  -9.445   1.348  0.00  0.00    -0.001 A 
ATOM     28  C   UNL     1       3.110  -9.392   0.737  0.00  0.00    +0.013 A 
ATOM     29  C   UNL     1       3.342 -10.096  -0.394  0.00  0.00    -0.050 A 
ATOM     30  C   UNL     1       2.342 -10.873  -0.997  0.00  0.00    +0.005 A 
ATOM     31  C   UNL     1       1.093 -10.971  -0.494  0.00  0.00    +0.026 A 
ATOM     32  C   UNL     1       0.739 -10.273   0.693  0.00  0.00    +0.043 A 
ATOM     33  N   UNL     1      -0.385 -10.207   1.365  0.00  0.00    -0.380 N 
ATOM     34  C   UNL     1      -0.185  -9.335   2.527  0.00  0.00    +0.144 C 
ATOM     35  C   UNL     1       4.710 -10.044  -1.024  0.00  0.00    +0.044 C 
ATOM     36  H   UNL     1      -1.209 -10.663   1.135  0.00  0.00    +0.160 HD
ENDBRANCH  25  26
ENDBRANCH  24  25
ENDBRANCH  10  24
TORSDOF 7
