REMARK  Name = ZINC41095868
REMARK  4 active torsions:
REMARK  status: ('A' for Active; 'I' for Inactive)
REMARK    1  A    between atoms: C_1  and  C_2
REMARK    2  A    between atoms: C_4  and  C_22
REMARK    3  A    between atoms: C_7  and  S_8
REMARK    4  A    between atoms: S_8  and  N_11
REMARK                            x       y       z     vdW  Elec       q    Type
REMARK                         _______ _______ _______ _____ _____    ______ ____
ROOT
ATOM      1  S   UNL     1       0.146   0.375   2.697  0.00  0.00    +0.075 S 
ATOM      2  O   UNL     1       0.399  -0.996   2.977  0.00  0.00    -0.150 OA
ATOM      3  O   UNL     1      -0.320   0.820   1.431  0.00  0.00    -0.150 OA
ENDROOT
BRANCH   1   4
ATOM      4  N   UNL     1       1.558   1.187   2.995  0.00  0.00    -0.203 N 
ATOM      5  C   UNL     1       2.740   0.471   3.493  0.00  0.00    +0.132 C 
ATOM      6  C   UNL     1       3.350   1.306   4.628  0.00  0.00    +0.025 C 
ATOM      7  C   UNL     1       3.817   2.645   4.059  0.00  0.00    +0.038 C 
ATOM      8  C   UNL     1       2.711   3.300   3.274  0.00  0.00    -0.025 A 
ATOM      9  C   UNL     1       1.645   2.566   2.772  0.00  0.00    +0.054 A 
ATOM     10  C   UNL     1       0.645   3.198   2.042  0.00  0.00    +0.025 A 
ATOM     11  C   UNL     1       0.712   4.558   1.813  0.00  0.00    +0.002 A 
ATOM     12  C   UNL     1       1.774   5.290   2.311  0.00  0.00    +0.000 A 
ATOM     13  C   UNL     1       2.767   4.664   3.046  0.00  0.00    +0.005 A 
ENDBRANCH   1   4
BRANCH   1  20
ATOM     14  C   UNL     1       0.354  -0.166   5.666  0.00  0.00    +0.046 C 
ATOM     15  C   UNL     1      -0.851   0.626   5.226  0.00  0.00    -0.024 A 
ATOM     16  C   UNL     1      -1.772   1.060   6.161  0.00  0.00    +0.009 A 
ATOM     17  C   UNL     1      -2.876   1.786   5.758  0.00  0.00    -0.036 A 
ATOM     18  C   UNL     1      -3.061   2.079   4.418  0.00  0.00    +0.023 A 
ATOM     19  C   UNL     1      -2.139   1.644   3.483  0.00  0.00    +0.044 A 
ATOM     20  C   UNL     1      -1.032   0.922   3.888  0.00  0.00    +0.113 A 
ATOM     21 BR   UNL     1      -4.572   3.072   3.866  0.00  0.00    -0.050 Br
ATOM     22  C   UNL     1      -3.880   2.259   6.778  0.00  0.00    +0.045 C 
ENDBRANCH   1  20
TORSDOF 2
