REMARK  Name = ZINC22681501
REMARK  11 active torsions:
REMARK  status: ('A' for Active; 'I' for Inactive)
REMARK    1  A    between atoms: C_1  and  C_2
REMARK    2  A    between atoms: C_2  and  O_3
REMARK    3  A    between atoms: O_3  and  C_4
REMARK    4  A    between atoms: C_9  and  C_10
REMARK    5  A    between atoms: C_12  and  C_15
REMARK    6  A    between atoms: C_15  and  C_16
REMARK    7  A    between atoms: N_18  and  C_19
REMARK    8  A    between atoms: C_19  and  C_20
REMARK    9  A    between atoms: C_20  and  C_22
REMARK   10  A    between atoms: C_20  and  N_27
REMARK   11  A    between atoms: C_30  and  C_33
REMARK                            x       y       z     vdW  Elec       q    Type
REMARK                         _______ _______ _______ _____ _____    ______ ____
ROOT
ATOM      1  C   UNL     1      -1.153   1.703  -0.222  0.00  0.00    +0.219 C 
ATOM      2  O   UNL     1      -1.153   2.912  -0.117  0.00  0.00    -0.275 OA
ATOM      3  N   UNL     1       0.011   1.024  -0.186  0.00  0.00    -0.316 N 
ATOM      4  H   UNL     1       0.011  -0.072  -0.277  0.00  0.00    +0.149 HD
ENDROOT
BRANCH   1   5
ATOM      5  C   UNL     1      -2.453   0.962  -0.394  0.00  0.00    +0.151 C 
BRANCH   5   8
ATOM      6  C   UNL     1      -4.743   3.659   0.614  0.00  0.00    +0.112 A 
ATOM      7  N   UNL     1      -3.750   2.781   0.599  0.00  0.00    -0.243 NA
ATOM      8  C   UNL     1      -3.595   1.945  -0.402  0.00  0.00    +0.058 A 
ATOM      9  C   UNL     1      -4.469   1.965  -1.442  0.00  0.00    +0.071 A 
ATOM     10  S   UNL     1      -5.566   3.280  -0.927  0.00  0.00    -0.075 S 
BRANCH   6  16
ATOM     11  C   UNL     1      -6.189   5.512   1.450  0.00  0.00    +0.130 A 
ATOM     12  C   UNL     1      -6.502   6.457   2.414  0.00  0.00    +0.046 A 
ATOM     13  C   UNL     1      -5.717   6.579   3.545  0.00  0.00    +0.004 A 
ATOM     14  C   UNL     1      -4.619   5.756   3.727  0.00  0.00    +0.001 A 
ATOM     15  C   UNL     1      -4.298   4.807   2.779  0.00  0.00    +0.014 A 
ATOM     16  C   UNL     1      -5.082   4.674   1.633  0.00  0.00    +0.049 A 
BRANCH  11  17
ATOM     17  O   UNL     1      -6.956   5.396   0.336  0.00  0.00    -0.492 OA
BRANCH  17  19
ATOM     18  C   UNL     1      -8.808   6.005  -1.092  0.00  0.00    +0.048 C 
ATOM     19  C   UNL     1      -8.069   6.284   0.218  0.00  0.00    +0.226 C 
ENDBRANCH  17  19
ENDBRANCH  11  17
ENDBRANCH   6  16
ENDBRANCH   5   8
ENDBRANCH   1   5
BRANCH   3  20
ATOM     20  C   UNL     1       1.276   1.746  -0.026  0.00  0.00    +0.094 C 
BRANCH  20  21
ATOM     21  C   UNL     1       2.422   0.741   0.109  0.00  0.00    -0.013 C 
BRANCH  21  22
ATOM     22  N   UNL     1       2.397  -0.186  -1.031  0.00  0.00    +0.386 N 
ATOM     23  C   UNL     1       2.404   0.545  -2.304  0.00  0.00    -0.078 C 
ATOM     24  C   UNL     1       2.231  -0.441  -3.461  0.00  0.00    -0.015 C 
ATOM     25  C   UNL     1       3.372  -1.461  -3.431  0.00  0.00    -0.018 C 
ATOM     26  C   UNL     1       3.373  -2.175  -2.076  0.00  0.00    -0.015 C 
ATOM     27  C   UNL     1       3.513  -1.138  -0.959  0.00  0.00    -0.078 C 
ATOM     28  C   UNL     1       3.171  -2.487  -4.548  0.00  0.00    +0.007 C 
ATOM     29  H   UNL     1       1.461  -0.761  -0.980  0.00  0.00    -0.081 HD
ENDBRANCH  21  22
BRANCH  21  30
ATOM     30  C   UNL     1       2.263  -0.034   1.391  0.00  0.00    -0.022 A 
ATOM     31  C   UNL     1       2.890   0.144   2.580  0.00  0.00    +0.009 A 
ATOM     32  C   UNL     1       2.582  -0.697   3.632  0.00  0.00    +0.008 A 
ATOM     33  C   UNL     1       1.662  -1.675   3.445  0.00  0.00    +0.045 A 
ATOM     34  S   UNL     1       1.195  -1.421   1.741  0.00  0.00    -0.103 S 
ENDBRANCH  21  30
ENDBRANCH  20  21
ENDBRANCH   3  20
TORSDOF 9
