REMARK  Name = ZINC00850801
REMARK  2 active torsions:
REMARK  status: ('A' for Active; 'I' for Inactive)
REMARK    1  A    between atoms: C_6  and  C_7
REMARK    2  A    between atoms: N_9  and  C_16
REMARK                            x       y       z     vdW  Elec       q    Type
REMARK                         _______ _______ _______ _____ _____    ______ ____
ROOT
ATOM      1  C   UNL     1      -3.729   3.084  -0.064  0.00  0.00    +0.254 C 
ATOM      2  N   UNL     1      -2.457   3.823   0.045  0.00  0.00    -0.243 N 
ATOM      3  C   UNL     1      -2.483   5.145   0.150  0.00  0.00    +0.243 C 
ATOM      4  O   UNL     1      -1.458   5.790   0.233  0.00  0.00    -0.273 OA
ATOM      5  C   UNL     1      -3.843   5.824   0.165  0.00  0.00    +0.264 C 
ATOM      6  S   UNL     1      -4.940   4.371   0.469  0.00  0.00    +0.001 S 
ATOM      7  O   UNL     1      -5.186   4.247   1.863  0.00  0.00    -0.172 OA
ATOM      8  O   UNL     1      -6.029   4.399  -0.443  0.00  0.00    -0.172 OA
ENDROOT
BRANCH   1  14
ATOM      9  C   UNL     1      -3.480   2.080   2.215  0.00  0.00    +0.008 A 
ATOM     10  C   UNL     1      -3.503   0.997   3.074  0.00  0.00    +0.020 A 
ATOM     11  C   UNL     1      -3.786  -0.267   2.586  0.00  0.00    +0.041 A 
ATOM     12  C   UNL     1      -4.050  -0.445   1.240  0.00  0.00    +0.020 A 
ATOM     13  C   UNL     1      -4.032   0.640   0.383  0.00  0.00    +0.008 A 
ATOM     14  C   UNL     1      -3.749   1.902   0.871  0.00  0.00    -0.005 A 
ATOM     15 CL   UNL     1      -3.808  -1.628   3.663  0.00  0.00    -0.084 Cl
ENDBRANCH   1  14
BRANCH   2  16
ATOM     16  C   UNL     1      -1.236   3.138   0.030  0.00  0.00    +0.039 A 
ATOM     17  C   UNL     1      -0.439   3.113   1.167  0.00  0.00    +0.025 A 
ATOM     18  C   UNL     1       0.767   2.440   1.149  0.00  0.00    +0.022 A 
ATOM     19  C   UNL     1       1.176   1.782   0.002  0.00  0.00    +0.041 A 
ATOM     20  C   UNL     1       0.381   1.801  -1.131  0.00  0.00    +0.022 A 
ATOM     21  C   UNL     1      -0.823   2.477  -1.119  0.00  0.00    +0.025 A 
ATOM     22 CL   UNL     1       2.689   0.932  -0.015  0.00  0.00    -0.084 Cl
ENDBRANCH   2  16
TORSDOF 2
