REMARK  Name = ZINC40815331
REMARK  8 active torsions:
REMARK  status: ('A' for Active; 'I' for Inactive)
REMARK    1  A    between atoms: C_1  and  C_2
REMARK    2  A    between atoms: C_5  and  S_8
REMARK    3  A    between atoms: S_8  and  N_11
REMARK    4  A    between atoms: N_11  and  N_12
REMARK    5  A    between atoms: C_19  and  C_35
REMARK    6  A    between atoms: C_20  and  C_22
REMARK    7  A    between atoms: C_22  and  O_24
REMARK    8  A    between atoms: O_24  and  C_25
REMARK                            x       y       z     vdW  Elec       q    Type
REMARK                         _______ _______ _______ _____ _____    ______ ____
ROOT
ATOM      1  N   UNL     1       2.388  -4.822   1.205  0.00  0.00    -0.170 NA
ATOM      2  C   UNL     1       3.649  -5.116   1.133  0.00  0.00    +0.071 C 
ATOM      3  C   UNL     1       4.240  -5.897  -0.032  0.00  0.00    +0.058 C 
ATOM      4  C   UNL     1       5.235  -6.918   0.531  0.00  0.00    +0.014 C 
ATOM      5  C   UNL     1       6.416  -6.209   1.200  0.00  0.00    +0.075 C 
ATOM      6  C   UNL     1       5.898  -5.217   2.210  0.00  0.00    +0.115 A 
ATOM      7  C   UNL     1       4.620  -4.710   2.175  0.00  0.00    +0.042 A 
ATOM      8  C   UNL     1       4.487  -3.825   3.250  0.00  0.00    +0.011 A 
ATOM      9  C   UNL     1       5.694  -3.821   3.895  0.00  0.00    +0.215 A 
ATOM     10  O   UNL     1       6.527  -4.675   3.251  0.00  0.00    -0.452 OA
ATOM     11  C   UNL     1       3.260  -3.033   3.624  0.00  0.00    +0.048 C 
ENDROOT
BRANCH   1  12
ATOM     12  N   UNL     1       1.514  -5.231   0.189  0.00  0.00    -0.136 N 
ATOM     13  H   UNL     1       1.853  -5.735  -0.568  0.00  0.00    +0.197 HD
BRANCH  12  14
ATOM     14  S   UNL     1      -0.096  -4.856   0.280  0.00  0.00    +0.086 S 
ATOM     15  O   UNL     1      -0.552  -5.327   1.541  0.00  0.00    -0.149 OA
ATOM     16  O   UNL     1      -0.681  -5.274  -0.946  0.00  0.00    -0.149 OA
BRANCH  14  21
ATOM     17  C   UNL     1      -0.523   1.160   0.432  0.00  0.00    +0.044 C 
ATOM     18  C   UNL     1      -0.416  -0.343   0.394  0.00  0.00    -0.050 A 
ATOM     19  C   UNL     1      -0.429  -1.006  -0.819  0.00  0.00    +0.005 A 
ATOM     20  C   UNL     1      -0.331  -2.384  -0.854  0.00  0.00    +0.029 A 
ATOM     21  C   UNL     1      -0.220  -3.099   0.324  0.00  0.00    +0.110 A 
ATOM     22  C   UNL     1      -0.207  -2.436   1.537  0.00  0.00    +0.029 A 
ATOM     23  C   UNL     1      -0.301  -1.057   1.571  0.00  0.00    +0.005 A 
ENDBRANCH  14  21
ENDBRANCH  12  14
ENDBRANCH   1  12
BRANCH   9  24
ATOM     24  C   UNL     1       6.026  -3.036   5.086  0.00  0.00    +0.380 C 
ATOM     25  O   UNL     1       5.191  -2.307   5.587  0.00  0.00    -0.241 OA
BRANCH  24  26
ATOM     26  O   UNL     1       7.258  -3.121   5.629  0.00  0.00    -0.418 OA
BRANCH  26  27
ATOM     27  C   UNL     1       7.556  -2.299   6.668  0.00  0.00    +0.158 A 
ATOM     28  C   UNL     1       8.177  -1.103   6.442  0.00  0.00    +0.048 A 
ATOM     29  C   UNL     1       8.490  -0.247   7.494  0.00  0.00    +0.004 A 
ATOM     30  C   UNL     1       8.185  -0.578   8.780  0.00  0.00    +0.010 A 
ATOM     31  C   UNL     1       7.546  -1.798   9.052  0.00  0.00    +0.004 A 
ATOM     32  C   UNL     1       7.220  -2.672   7.986  0.00  0.00    +0.113 A 
ATOM     33  N   UNL     1       6.609  -3.832   8.240  0.00  0.00    -0.251 NA
ATOM     34  C   UNL     1       6.295  -4.184   9.463  0.00  0.00    +0.111 A 
ATOM     35  C   UNL     1       6.582  -3.369  10.556  0.00  0.00    +0.020 A 
ATOM     36  C   UNL     1       7.216  -2.175  10.368  0.00  0.00    +0.011 A 
ENDBRANCH  26  27
ENDBRANCH  24  26
ENDBRANCH   9  24
TORSDOF 6
