REMARK  Name = ZINC38980011
REMARK  10 active torsions:
REMARK  status: ('A' for Active; 'I' for Inactive)
REMARK    1  A    between atoms: C_1  and  C_2
REMARK    2  A    between atoms: C_5  and  C_35
REMARK    3  A    between atoms: C_6  and  S_8
REMARK    4  A    between atoms: S_8  and  N_11
REMARK    5  A    between atoms: C_13  and  N_23
REMARK    6  A    between atoms: N_23  and  C_24
REMARK    7  A    between atoms: C_27  and  O_32
REMARK    8  A    between atoms: C_29  and  O_30
REMARK    9  A    between atoms: O_30  and  C_31
REMARK   10  A    between atoms: O_32  and  C_33
REMARK                            x       y       z     vdW  Elec       q    Type
REMARK                         _______ _______ _______ _____ _____    ______ ____
ROOT
ATOM      1  N   UNL     1      -1.264  -3.917   2.382  0.00  0.00    -0.110 NA
ATOM      2  C   UNL     1      -1.521  -4.474   3.529  0.00  0.00    +0.192 C 
ATOM      3  C   UNL     1      -2.844  -5.167   3.767  0.00  0.00    +0.237 C 
ATOM      4  N   UNL     1      -3.072  -5.777   5.086  0.00  0.00    -0.359 N 
ATOM      5  C   UNL     1      -2.130  -5.691   5.983  0.00  0.00    +0.063 A 
ATOM      6  C   UNL     1      -2.309  -6.284   7.316  0.00  0.00    +0.027 A 
ATOM      7  C   UNL     1      -1.310  -6.175   8.219  0.00  0.00    +0.002 A 
ATOM      8  C   UNL     1      -0.109  -5.512   7.916  0.00  0.00    +0.002 A 
ATOM      9  C   UNL     1       0.127  -4.943   6.714  0.00  0.00    +0.030 A 
ATOM     10  C   UNL     1      -0.852  -4.997   5.690  0.00  0.00    +0.089 A 
ATOM     11  N   UNL     1      -0.614  -4.445   4.519  0.00  0.00    -0.226 NA
ATOM     12  H   UNL     1      -3.906  -6.233   5.284  0.00  0.00    +0.162 HD
ENDROOT
BRANCH   1  13
ATOM     13  S   UNL     1       0.191  -3.167   2.133  0.00  0.00    +0.101 S 
ATOM     14  O   UNL     1       1.184  -4.182   2.174  0.00  0.00    -0.146 OA
ATOM     15  O   UNL     1       0.219  -2.039   2.997  0.00  0.00    -0.146 OA
BRANCH  13  21
ATOM     16  C   UNL     1       0.252   0.803  -1.266  0.00  0.00    +0.044 C 
ATOM     17  C   UNL     1       0.208  -0.684  -1.026  0.00  0.00    -0.049 A 
ATOM     18  C   UNL     1       0.158  -1.556  -2.097  0.00  0.00    +0.004 A 
ATOM     19  C   UNL     1       0.118  -2.920  -1.876  0.00  0.00    +0.005 A 
ATOM     20  C   UNL     1       0.128  -3.412  -0.584  0.00  0.00    -0.024 A 
ATOM     21  C   UNL     1       0.178  -2.540   0.487  0.00  0.00    +0.116 A 
ATOM     22  C   UNL     1       0.223  -1.176   0.266  0.00  0.00    +0.032 A 
ATOM     23  C   UNL     1       0.083  -4.899  -0.344  0.00  0.00    +0.046 C 
ENDBRANCH  13  21
ENDBRANCH   1  13
BRANCH   3  24
ATOM     24  N   UNL     1      -2.983  -6.220   2.758  0.00  0.00    -0.315 N 
ATOM     25  H   UNL     1      -2.229  -6.792   2.545  0.00  0.00    +0.149 HD
BRANCH  24  26
ATOM     26  C   UNL     1      -4.208  -6.402   2.099  0.00  0.00    +0.073 A 
ATOM     27  C   UNL     1      -5.321  -5.674   2.490  0.00  0.00    +0.050 A 
ATOM     28  C   UNL     1      -6.529  -5.853   1.840  0.00  0.00    +0.084 A 
ATOM     29  C   UNL     1      -6.628  -6.761   0.796  0.00  0.00    +0.142 A 
ATOM     30  C   UNL     1      -5.517  -7.492   0.402  0.00  0.00    +0.094 A 
ATOM     31  C   UNL     1      -4.306  -7.310   1.048  0.00  0.00    +0.144 A 
ATOM     32 CL   UNL     1      -7.922  -4.941   2.332  0.00  0.00    -0.080 Cl
BRANCH  31  33
ATOM     33  O   UNL     1      -3.213  -8.022   0.659  0.00  0.00    -0.493 OA
ATOM     34  C   UNL     1      -3.387  -8.935  -0.427  0.00  0.00    +0.277 C 
ENDBRANCH  31  33
BRANCH  29  35
ATOM     35  O   UNL     1      -7.817  -6.936   0.158  0.00  0.00    -0.494 OA
ATOM     36  C   UNL     1      -7.848  -7.887  -0.908  0.00  0.00    +0.277 C 
ENDBRANCH  29  35
ENDBRANCH  24  26
ENDBRANCH   3  24
TORSDOF 6
