REMARK  Name = ZINC47895535
REMARK  7 active torsions:
REMARK  status: ('A' for Active; 'I' for Inactive)
REMARK    1  A    between atoms: C_4  and  C_7
REMARK    2  A    between atoms: C_7  and  C_8
REMARK    3  A    between atoms: C_8  and  C_9
REMARK    4  A    between atoms: N_11  and  C_12
REMARK    5  A    between atoms: N_15  and  C_18
REMARK    6  A    between atoms: C_18  and  C_19
REMARK    7  A    between atoms: N_24  and  C_25
REMARK                            x       y       z     vdW  Elec       q    Type
REMARK                         _______ _______ _______ _____ _____    ______ ____
ROOT
ATOM      1  C   UNL     1       7.365  -2.749   2.524  0.00  0.00    +0.069 C 
ATOM      2  C   UNL     1       7.109  -4.254   2.403  0.00  0.00    +0.003 C 
ATOM      3  C   UNL     1       8.443  -5.000   2.466  0.00  0.00    -0.076 C 
ATOM      4  N   UNL     1       9.107  -4.716   3.744  0.00  0.00    +0.386 N 
ATOM      5  C   UNL     1       9.421  -3.285   3.836  0.00  0.00    -0.076 C 
ATOM      6  C   UNL     1       8.124  -2.473   3.825  0.00  0.00    +0.003 C 
ATOM      7  H   UNL     1       8.495  -4.974   4.504  0.00  0.00    -0.081 HD
ENDROOT
BRANCH   1  10
ATOM      8  C   UNL     1       5.487  -1.699   1.381  0.00  0.00    +0.214 C 
ATOM      9  O   UNL     1       6.005  -1.990   0.324  0.00  0.00    -0.276 OA
ATOM     10  N   UNL     1       6.087  -2.034   2.541  0.00  0.00    -0.313 N 
ATOM     11  H   UNL     1       5.672  -1.801   3.386  0.00  0.00    +0.149 HD
BRANCH   8  12
ATOM     12  C   UNL     1       4.171  -0.963   1.399  0.00  0.00    +0.100 C 
BRANCH  12  13
ATOM     13  C   UNL     1       3.711  -0.707  -0.038  0.00  0.00    +0.044 C 
BRANCH  13  17
ATOM     14  C   UNL     1      -0.017   1.378   0.010  0.00  0.00    +0.000 A 
ATOM     15  C   UNL     1       1.171   2.086   0.002  0.00  0.00    +0.000 A 
ATOM     16  C   UNL     1       2.377   1.411  -0.013  0.00  0.00    +0.003 A 
ATOM     17  C   UNL     1       2.396   0.029  -0.020  0.00  0.00    -0.047 A 
ATOM     18  C   UNL     1       1.208  -0.679  -0.012  0.00  0.00    +0.003 A 
ATOM     19  C   UNL     1       0.002  -0.004   0.002  0.00  0.00    +0.000 A 
ENDBRANCH  13  17
ENDBRANCH  12  13
ENDBRANCH   8  12
ENDBRANCH   1  10
BRANCH   4  20
ATOM     20  C   UNL     1      10.349  -5.495   3.833  0.00  0.00    +0.019 C 
BRANCH  20  21
ATOM     21  C   UNL     1      10.969  -5.300   5.192  0.00  0.00    +0.204 C 
ATOM     22  O   UNL     1      10.428  -4.583   6.007  0.00  0.00    -0.277 OA
ATOM     23  N   UNL     1      12.123  -5.922   5.503  0.00  0.00    -0.242 N 
ATOM     24  C   UNL     1      12.677  -5.748   6.719  0.00  0.00    +0.306 C 
ATOM     25  O   UNL     1      12.135  -5.029   7.536  0.00  0.00    -0.252 OA
ATOM     26  N   UNL     1      13.831  -6.370   7.029  0.00  0.00    -0.296 N 
ATOM     27  H   UNL     1      12.555  -6.496   4.851  0.00  0.00    +0.159 HD
ATOM     28  H   UNL     1      14.264  -6.944   6.377  0.00  0.00    +0.151 HD
BRANCH  26  29
ATOM     29  C   UNL     1      14.433  -6.181   8.351  0.00  0.00    +0.075 C 
ATOM     30  C   UNL     1      15.945  -5.953   8.413  0.00  0.00    +0.024 C 
ATOM     31  C   UNL     1      15.353  -7.287   8.874  0.00  0.00    +0.024 C 
ENDBRANCH  26  29
ENDBRANCH  20  21
ENDBRANCH   4  20
TORSDOF 7
