REMARK  Name = ZINC65963454
REMARK  5 active torsions:
REMARK  status: ('A' for Active; 'I' for Inactive)
REMARK    1  A    between atoms: C_7  and  N_27
REMARK    2  A    between atoms: C_9  and  C_11
REMARK    3  A    between atoms: C_11  and  N_12
REMARK    4  A    between atoms: C_15  and  N_18
REMARK    5  A    between atoms: C_19  and  C_21
REMARK                            x       y       z     vdW  Elec       q    Type
REMARK                         _______ _______ _______ _____ _____    ______ ____
ROOT
ATOM      1  N   UNL     1       5.372  -2.834  -1.447  0.00  0.00    +0.385 N 
ATOM      2  C   UNL     1       5.598  -1.539  -2.101  0.00  0.00    -0.076 C 
ATOM      3  C   UNL     1       5.957  -1.762  -3.571  0.00  0.00    +0.003 C 
ATOM      4  C   UNL     1       7.231  -2.607  -3.657  0.00  0.00    +0.069 C 
ATOM      5  C   UNL     1       7.009  -3.925  -2.908  0.00  0.00    +0.003 C 
ATOM      6  C   UNL     1       6.611  -3.622  -1.462  0.00  0.00    -0.076 C 
ATOM      7  H   UNL     1       4.649  -3.336  -1.940  0.00  0.00    -0.081 HD
ENDROOT
BRANCH   4   8
ATOM      8  N   UNL     1       7.539  -2.888  -5.061  0.00  0.00    -0.312 N 
ATOM      9  C   UNL     1       8.807  -3.154  -5.433  0.00  0.00    +0.216 C 
ATOM     10  O   UNL     1       9.693  -3.161  -4.605  0.00  0.00    -0.276 OA
ATOM     11  H   UNL     1       6.830  -2.883  -5.724  0.00  0.00    +0.149 HD
BRANCH   9  12
ATOM     12  C   UNL     1       9.124  -3.443  -6.878  0.00  0.00    +0.075 C 
ATOM     13  C   UNL     1       8.339  -4.674  -7.336  0.00  0.00    +0.013 C 
ATOM     14  C   UNL     1       8.660  -4.967  -8.803  0.00  0.00    +0.001 C 
ATOM     15  C   UNL     1      10.159  -5.234  -8.953  0.00  0.00    +0.000 C 
ATOM     16  C   UNL     1      10.944  -4.003  -8.495  0.00  0.00    +0.001 C 
ATOM     17  C   UNL     1      10.623  -3.710  -7.028  0.00  0.00    +0.013 C 
ENDBRANCH   9  12
ENDBRANCH   4   8
BRANCH   1  18
ATOM     18  C   UNL     1       4.952  -2.612  -0.057  0.00  0.00    -0.001 C 
BRANCH  18  27
ATOM     19  C   UNL     1      -0.016   1.360   0.009  0.00  0.00    +0.001 A 
ATOM     20  C   UNL     1       1.168   2.091   0.002  0.00  0.00    +0.002 A 
ATOM     21  C   UNL     1       2.380   1.466  -0.013  0.00  0.00    +0.028 A 
ATOM     22  C   UNL     1       2.436   0.065  -0.021  0.00  0.00    +0.076 A 
ATOM     23  C   UNL     1       1.229  -0.676  -0.013  0.00  0.00    +0.040 A 
ATOM     24  C   UNL     1       0.002  -0.004   0.002  0.00  0.00    +0.013 A 
ATOM     25  C   UNL     1       1.313  -2.090  -0.021  0.00  0.00    +0.127 A 
ATOM     26  N   UNL     1       2.518  -2.646  -0.035  0.00  0.00    -0.219 NA
ATOM     27  C   UNL     1       3.618  -1.911  -0.042  0.00  0.00    +0.115 A 
ATOM     28  N   UNL     1       3.600  -0.599  -0.035  0.00  0.00    -0.234 NA
BRANCH  25  29
ATOM     29  N   UNL     1       0.175  -2.867  -0.014  0.00  0.00    -0.343 N 
ATOM     30  H   UNL     1      -0.699  -2.447  -0.003  0.00  0.00    +0.144 HD
ATOM     31  H   UNL     1       0.248  -3.834  -0.019  0.00  0.00    +0.144 HD
ENDBRANCH  25  29
ENDBRANCH  18  27
ENDBRANCH   1  18
TORSDOF 5
