REMARK  Name = ZINC01034571
REMARK  6 active torsions:
REMARK  status: ('A' for Active; 'I' for Inactive)
REMARK    1  A    between atoms: C_1  and  C_2
REMARK    2  A    between atoms: C_11  and  S_15
REMARK    3  A    between atoms: S_15  and  C_16
REMARK    4  A    between atoms: C_16  and  C_17
REMARK    5  A    between atoms: N_19  and  N_20
REMARK    6  A    between atoms: C_21  and  C_22
REMARK                            x       y       z     vdW  Elec       q    Type
REMARK                         _______ _______ _______ _____ _____    ______ ____
ROOT
ATOM      1  C   UNL     1       0.002  -0.004   0.002  0.00  0.00    +0.173 C 
ENDROOT
BRANCH   1   2
ATOM      2  C   UNL     1      -1.412  -0.526   0.013  0.00  0.00    +0.242 C 
ATOM      3  O   UNL     1      -2.344   0.250   0.026  0.00  0.00    -0.273 OA
ATOM      4  N   UNL     1      -1.640  -1.854   0.008  0.00  0.00    -0.206 N 
ATOM      5  H   UNL     1      -0.894  -2.474  -0.003  0.00  0.00    +0.177 HD
BRANCH   4   6
ATOM      6  N   UNL     1      -2.954  -2.339   0.018  0.00  0.00    -0.188 NA
ATOM      7  C   UNL     1      -3.174  -3.618   0.013  0.00  0.00    +0.138 C 
BRANCH   7   8
ATOM      8  C   UNL     1      -4.557  -4.128   0.023  0.00  0.00    -0.002 A 
ATOM      9  C   UNL     1      -5.633  -3.237   0.044  0.00  0.00    +0.013 A 
ATOM     10  C   UNL     1      -6.925  -3.716   0.050  0.00  0.00    +0.050 A 
ATOM     11  C   UNL     1      -7.163  -5.083   0.044  0.00  0.00    +0.166 A 
ATOM     12  C   UNL     1      -6.095  -5.979   0.029  0.00  0.00    +0.167 A 
ATOM     13  C   UNL     1      -4.796  -5.505   0.018  0.00  0.00    +0.059 A 
ATOM     14  O   UNL     1      -6.591  -7.251   0.027  0.00  0.00    -0.453 OA
ATOM     15  C   UNL     1      -7.969  -7.124  -0.372  0.00  0.00    +0.466 C 
ATOM     16  O   UNL     1      -8.328  -5.796   0.052  0.00  0.00    -0.453 OA
ENDBRANCH   7   8
ENDBRANCH   4   6
ENDBRANCH   1   2
BRANCH   1  17
ATOM     17  S   UNL     1      -0.022   1.806   0.012  0.00  0.00    -0.096 S 
BRANCH  17  27
ATOM     18  C   UNL     1      -0.564   8.562  -0.030  0.00  0.00    +0.008 C 
ATOM     19  C   UNL     1       0.089   7.212  -0.333  0.00  0.00    -0.009 C 
ATOM     20  C   UNL     1      -0.577   6.116   0.505  0.00  0.00    +0.008 C 
ATOM     21  C   UNL     1      -0.105   4.741   0.030  0.00  0.00    +0.037 C 
ATOM     22  C   UNL     1       1.421   4.722   0.015  0.00  0.00    -0.025 A 
ATOM     23  C   UNL     1       2.125   5.873   0.014  0.00  0.00    -0.004 A 
ATOM     24  S   UNL     1       3.826   5.375  -0.006  0.00  0.00    -0.073 S 
ATOM     25  C   UNL     1       3.590   3.617  -0.013  0.00  0.00    +0.113 A 
ATOM     26  C   UNL     1       2.187   3.475  -0.006  0.00  0.00    +0.043 A 
ATOM     27  C   UNL     1       1.708   2.135  -0.003  0.00  0.00    +0.109 A 
ATOM     28  N   UNL     1       2.581   1.139  -0.017  0.00  0.00    -0.229 NA
ATOM     29  C   UNL     1       3.885   1.347  -0.028  0.00  0.00    +0.223 A 
ATOM     30  N   UNL     1       4.388   2.567  -0.026  0.00  0.00    -0.228 NA
ATOM     31  C   UNL     1       1.581   7.269   0.027  0.00  0.00    +0.046 C 
ENDBRANCH  17  27
ENDBRANCH   1  17
TORSDOF 5
