REMARK  Name = ZINC13512703
REMARK  9 active torsions:
REMARK  status: ('A' for Active; 'I' for Inactive)
REMARK    1  A    between atoms: C_1  and  C_2
REMARK    2  A    between atoms: C_6  and  C_15
REMARK    3  A    between atoms: C_13  and  C_14
REMARK    4  A    between atoms: C_15  and  N_16
REMARK    5  A    between atoms: N_16  and  C_17
REMARK    6  A    between atoms: N_16  and  S_25
REMARK    7  A    between atoms: C_17  and  C_18
REMARK    8  A    between atoms: S_25  and  C_28
REMARK    9  A    between atoms: C_31  and  C_34
REMARK                            x       y       z     vdW  Elec       q    Type
REMARK                         _______ _______ _______ _____ _____    ______ ____
ROOT
ATOM      1  N   UNL     1      -5.481   3.970  -1.327  0.00  0.00    -0.168 NA
ENDROOT
BRANCH   1   2
ATOM      2  S   UNL     1      -5.204   5.361  -2.182  0.00  0.00    +0.061 S 
ATOM      3  O   UNL     1      -6.214   5.433  -3.179  0.00  0.00    -0.153 OA
ATOM      4  O   UNL     1      -5.003   6.392  -1.225  0.00  0.00    -0.153 OA
BRANCH   2   5
ATOM      5  C   UNL     1      -3.673   5.155  -3.030  0.00  0.00    +0.106 A 
ATOM      6  C   UNL     1      -2.491   5.541  -2.426  0.00  0.00    +0.029 A 
ATOM      7  C   UNL     1      -1.290   5.376  -3.090  0.00  0.00    +0.014 A 
ATOM      8  C   UNL     1      -1.272   4.833  -4.362  0.00  0.00    +0.055 A 
ATOM      9  C   UNL     1      -2.454   4.452  -4.968  0.00  0.00    +0.014 A 
ATOM     10  C   UNL     1      -3.655   4.614  -4.302  0.00  0.00    +0.029 A 
BRANCH   8  11
ATOM     11  C   UNL     1       0.037   4.658  -5.087  0.00  0.00    +0.417 C 
ATOM     12  F   UNL     1       0.318   5.810  -5.829  0.00  0.00    -0.166 F 
ATOM     13  F   UNL     1       1.060   4.441  -4.158  0.00  0.00    -0.166 F 
ATOM     14  F   UNL     1      -0.051   3.559  -5.949  0.00  0.00    -0.166 F 
ENDBRANCH   8  11
ENDBRANCH   2   5
ENDBRANCH   1   2
BRANCH   1  15
ATOM     15  C   UNL     1      -4.986   3.843   0.046  0.00  0.00    +0.150 C 
BRANCH  15  21
ATOM     16  C   UNL     1       2.471   3.924  -0.001  0.00  0.00    +0.044 C 
ATOM     17  C   UNL     1       1.165   3.172   0.007  0.00  0.00    -0.047 A 
ATOM     18  C   UNL     1      -0.014   3.863   0.021  0.00  0.00    +0.013 A 
ATOM     19  C   UNL     1      -1.226   3.165   0.030  0.00  0.00    -0.001 A 
ATOM     20  C   UNL     1      -2.507   3.874   0.045  0.00  0.00    +0.020 A 
ATOM     21  C   UNL     1      -3.650   3.145   0.036  0.00  0.00    +0.033 A 
ATOM     22  C   UNL     1      -3.594   1.735   0.029  0.00  0.00    +0.254 A 
ATOM     23  O   UNL     1      -4.634   1.099   0.031  0.00  0.00    -0.268 OA
ATOM     24  N   UNL     1      -2.423   1.075   0.020  0.00  0.00    -0.322 N 
ATOM     25  H   UNL     1      -2.420   0.105   0.015  0.00  0.00    +0.169 HD
ATOM     26  C   UNL     1      -1.225   1.757   0.017  0.00  0.00    +0.049 A 
ATOM     27  C   UNL     1      -0.013   1.076   0.008  0.00  0.00    +0.030 A 
ATOM     28  C   UNL     1       1.170   1.784   0.001  0.00  0.00    -0.046 A 
ATOM     29  C   UNL     1       2.482   1.043  -0.015  0.00  0.00    +0.044 C 
ENDBRANCH  15  21
ENDBRANCH   1  15
BRANCH   1  30
ATOM     30  C   UNL     1      -6.220   2.866  -1.944  0.00  0.00    +0.145 C 
BRANCH  30  31
ATOM     31  C   UNL     1      -7.675   2.962  -1.564  0.00  0.00    -0.031 A 
ATOM     32  C   UNL     1      -8.136   2.323  -0.428  0.00  0.00    +0.008 A 
ATOM     33  C   UNL     1      -9.470   2.414  -0.076  0.00  0.00    +0.038 A 
ATOM     34  C   UNL     1     -10.346   3.137  -0.868  0.00  0.00    +0.123 A 
ATOM     35  C   UNL     1      -9.884   3.772  -2.009  0.00  0.00    +0.038 A 
ATOM     36  C   UNL     1      -8.549   3.684  -2.356  0.00  0.00    +0.008 A 
ATOM     37  F   UNL     1     -11.651   3.224  -0.528  0.00  0.00    -0.205 F 
ENDBRANCH  30  31
ENDBRANCH   1  30
TORSDOF 7
