REMARK  Name = ZINC44909368
REMARK  7 active torsions:
REMARK  status: ('A' for Active; 'I' for Inactive)
REMARK    1  A    between atoms: C_4  and  C_7
REMARK    2  A    between atoms: C_7  and  C_8
REMARK    3  A    between atoms: C_8  and  C_9
REMARK    4  A    between atoms: C_9  and  N_10
REMARK    5  A    between atoms: C_11  and  C_13
REMARK    6  A    between atoms: N_18  and  C_20
REMARK    7  A    between atoms: C_20  and  C_21
REMARK                            x       y       z     vdW  Elec       q    Type
REMARK                         _______ _______ _______ _____ _____    ______ ____
ROOT
ATOM      1  C   UNL     1       7.357  -3.252   4.457  0.00  0.00    +0.058 C 
ATOM      2  C   UNL     1       6.434  -4.200   5.229  0.00  0.00    +0.009 C 
ATOM      3  C   UNL     1       7.007  -4.426   6.630  0.00  0.00    -0.018 C 
ATOM      4  C   UNL     1       8.431  -4.974   6.511  0.00  0.00    -0.078 C 
ATOM      5  N   UNL     1       9.270  -4.011   5.787  0.00  0.00    +0.383 N 
ATOM      6  C   UNL     1       8.768  -3.842   4.418  0.00  0.00    -0.066 C 
ATOM      7  H   UNL     1       9.248  -3.122   6.263  0.00  0.00    -0.081 HD
ENDROOT
BRANCH   1   9
ATOM      8  N   UNL     1       5.611  -2.578   2.839  0.00  0.00    -0.315 N 
ATOM      9  C   UNL     1       6.843  -3.083   3.050  0.00  0.00    +0.214 C 
ATOM     10  O   UNL     1       7.537  -3.402   2.108  0.00  0.00    -0.276 OA
ATOM     11  H   UNL     1       5.056  -2.324   3.592  0.00  0.00    +0.149 HD
BRANCH   8  12
ATOM     12  C   UNL     1       5.111  -2.414   1.472  0.00  0.00    +0.104 C 
BRANCH  12  13
ATOM     13  C   UNL     1       3.700  -1.826   1.512  0.00  0.00    +0.023 C 
BRANCH  13  14
ATOM     14  C   UNL     1       3.178  -1.655   0.084  0.00  0.00    +0.036 C 
BRANCH  14  18
ATOM     15  C   UNL     1      -0.765  -0.013   0.194  0.00  0.00    +0.000 A 
ATOM     16  C   UNL     1       0.332   0.826   0.142  0.00  0.00    +0.000 A 
ATOM     17  C   UNL     1       1.608   0.295   0.107  0.00  0.00    +0.003 A 
ATOM     18  C   UNL     1       1.787  -1.076   0.124  0.00  0.00    -0.047 A 
ATOM     19  C   UNL     1       0.690  -1.915   0.177  0.00  0.00    +0.003 A 
ATOM     20  C   UNL     1      -0.586  -1.384   0.211  0.00  0.00    +0.000 A 
ENDBRANCH  14  18
ENDBRANCH  13  14
ENDBRANCH  12  13
ENDBRANCH   8  12
ENDBRANCH   1   9
BRANCH   5  21
ATOM     21  C   UNL     1      10.653  -4.505   5.742  0.00  0.00    -0.042 C 
BRANCH  21  22
ATOM     22  C   UNL     1      11.222  -4.532   7.137  0.00  0.00    -0.056 A 
ATOM     23  C   UNL     1      11.328  -5.710   7.810  0.00  0.00    +0.002 A 
ATOM     24  C   UNL     1      11.852  -5.755   9.101  0.00  0.00    +0.001 A 
ATOM     25  C   UNL     1      12.272  -4.621   9.726  0.00  0.00    +0.008 A 
ATOM     26  C   UNL     1      12.178  -3.386   9.063  0.00  0.00    -0.018 A 
ATOM     27  C   UNL     1      11.651  -3.341   7.748  0.00  0.00    -0.017 A 
ATOM     28  C   UNL     1      11.562  -2.107   7.082  0.00  0.00    +0.009 A 
ATOM     29  C   UNL     1      11.987  -0.974   7.705  0.00  0.00    +0.001 A 
ATOM     30  C   UNL     1      12.511  -1.018   8.996  0.00  0.00    +0.001 A 
ATOM     31  C   UNL     1      12.600  -2.194   9.677  0.00  0.00    +0.008 A 
ENDBRANCH  21  22
ENDBRANCH   5  21
TORSDOF 7
