REMARK  Name = ZINC39984686
REMARK  12 active torsions:
REMARK  status: ('A' for Active; 'I' for Inactive)
REMARK    1  A    between atoms: C_1  and  C_2
REMARK    2  A    between atoms: C_3  and  O_30
REMARK    3  A    between atoms: C_6  and  C_9
REMARK    4  A    between atoms: C_7  and  O_8
REMARK    5  A    between atoms: C_11  and  C_19
REMARK    6  A    between atoms: C_12  and  C_15
REMARK    7  A    between atoms: C_20  and  C_29
REMARK    8  A    between atoms: C_22  and  C_25
REMARK    9  A    between atoms: C_25  and  O_27
REMARK   10  A    between atoms: O_27  and  C_28
REMARK   11  A    between atoms: O_30  and  C_31
REMARK   12  A    between atoms: C_31  and  C_32
REMARK                            x       y       z     vdW  Elec       q    Type
REMARK                         _______ _______ _______ _____ _____    ______ ____
ROOT
ATOM      1  C   UNL     1       0.182  -2.661   2.565  0.00  0.00    +0.164 C 
ATOM      2  C   UNL     1       1.643  -2.941   2.872  0.00  0.00    +0.019 C 
ATOM      3  C   UNL     1       1.678  -4.293   3.041  0.00  0.00    +0.169 C 
ATOM      4  N   UNL     1       0.463  -4.816   2.875  0.00  0.00    -0.173 NA
ATOM      5  N   UNL     1      -0.429  -4.001   2.613  0.00  0.00    -0.296 N 
ATOM      6  H   UNL     1      -1.366  -4.205   2.464  0.00  0.00    +0.183 HD
ENDROOT
BRANCH   1  12
ATOM      7  C   UNL     1      -0.174   1.379  -0.381  0.00  0.00    +0.051 C 
ATOM      8  C   UNL     1      -0.139  -0.118  -0.217  0.00  0.00    +0.033 A 
ATOM      9  C   UNL     1      -0.247  -0.941  -1.327  0.00  0.00    +0.127 A 
ATOM     10  C   UNL     1      -0.215  -2.320  -1.174  0.00  0.00    +0.046 A 
ATOM     11  C   UNL     1      -0.076  -2.873   0.085  0.00  0.00    +0.013 A 
ATOM     12  C   UNL     1       0.031  -2.055   1.194  0.00  0.00    +0.023 A 
ATOM     13  C   UNL     1       0.006  -0.675   1.044  0.00  0.00    +0.129 A 
BRANCH  13  14
ATOM     14  O   UNL     1       0.118   0.129   2.134  0.00  0.00    -0.506 OA
ATOM     15  H   UNL     1      -0.720   0.293   2.589  0.00  0.00    +0.292 HD
ENDBRANCH  13  14
BRANCH   9  16
ATOM     16  O   UNL     1      -0.385  -0.398  -2.565  0.00  0.00    -0.487 OA
BRANCH  16  17
ATOM     17  C   UNL     1      -0.490  -1.306  -3.664  0.00  0.00    +0.264 C 
BRANCH  17  18
ATOM     18  C   UNL     1      -0.635  -0.528  -4.946  0.00  0.00    -0.010 A 
ATOM     19  C   UNL     1      -1.891  -0.180  -5.406  0.00  0.00    +0.007 A 
ATOM     20  C   UNL     1      -2.025   0.534  -6.582  0.00  0.00    +0.000 A 
ATOM     21  C   UNL     1      -0.901   0.900  -7.299  0.00  0.00    +0.000 A 
ATOM     22  C   UNL     1       0.356   0.554  -6.839  0.00  0.00    +0.000 A 
ATOM     23  C   UNL     1       0.489  -0.156  -5.660  0.00  0.00    +0.007 A 
ENDBRANCH  17  18
ENDBRANCH  16  17
ENDBRANCH   9  16
ENDBRANCH   1  12
BRANCH   2  24
ATOM     24  C   UNL     1       2.710  -2.021   2.961  0.00  0.00    +0.001 C 
ATOM     25  C   UNL     1       3.771  -1.941   2.136  0.00  0.00    +0.100 C 
ATOM     26  O   UNL     1       4.637  -0.970   2.483  0.00  0.00    -0.482 OA
ATOM     27  C   UNL     1       3.971  -0.042   3.361  0.00  0.00    +0.285 C 
ATOM     28  C   UNL     1       2.877  -0.927   4.003  0.00  0.00    +0.095 C 
ATOM     29  C   UNL     1       3.970  -2.846   0.948  0.00  0.00    +0.086 C 
BRANCH  27  30
ATOM     30  C   UNL     1       4.922   0.489   4.402  0.00  0.00    +0.348 C 
ATOM     31  O   UNL     1       6.056   0.074   4.452  0.00  0.00    -0.247 OA
BRANCH  30  32
ATOM     32  O   UNL     1       4.511   1.423   5.273  0.00  0.00    -0.465 OA
ATOM     33  C   UNL     1       5.465   1.882   6.232  0.00  0.00    +0.280 C 
ENDBRANCH  30  32
ENDBRANCH  27  30
ENDBRANCH   2  24
BRANCH   3  34
ATOM     34  C   UNL     1       2.917  -5.086   3.368  0.00  0.00    +0.436 C 
ATOM     35  F   UNL     1       3.983  -4.211   3.604  0.00  0.00    -0.164 F 
ATOM     36  F   UNL     1       2.688  -5.860   4.510  0.00  0.00    -0.164 F 
ATOM     37  F   UNL     1       3.232  -5.924   2.292  0.00  0.00    -0.164 F 
ENDBRANCH   3  34
TORSDOF 9
