REMARK  Name = ZINC01176519
REMARK  6 active torsions:
REMARK  status: ('A' for Active; 'I' for Inactive)
REMARK    1  A    between atoms: C_1  and  C_2
REMARK    2  A    between atoms: C_2  and  C_3
REMARK    3  A    between atoms: C_3  and  N_4
REMARK    4  A    between atoms: N_13  and  C_14
REMARK    5  A    between atoms: C_14  and  C_15
REMARK    6  A    between atoms: C_20  and  O_21
REMARK                            x       y       z     vdW  Elec       q    Type
REMARK                         _______ _______ _______ _____ _____    ______ ____
ROOT
ATOM      1  N   UNL     1      -0.017   1.381   0.010  0.00  0.00    -0.312 N 
ATOM      2  C   UNL     1       0.002  -0.004   0.002  0.00  0.00    +0.070 A 
ATOM      3  C   UNL     1      -0.984  -0.979   0.006  0.00  0.00    +0.028 A 
ATOM      4  C   UNL     1      -0.631  -2.313  -0.005  0.00  0.00    +0.002 A 
ATOM      5  C   UNL     1       0.705  -2.686  -0.019  0.00  0.00    +0.002 A 
ATOM      6  C   UNL     1       1.697  -1.731  -0.023  0.00  0.00    +0.030 A 
ATOM      7  C   UNL     1       1.356  -0.376  -0.013  0.00  0.00    +0.091 A 
ATOM      8  N   UNL     1       2.086   0.770  -0.014  0.00  0.00    -0.214 NA
ATOM      9  C   UNL     1       1.282   1.804  -0.001  0.00  0.00    +0.197 A 
ATOM     10  N   UNL     1       1.686   3.122   0.003  0.00  0.00    -0.311 N 
ATOM     11  H   UNL     1       1.025   3.832   0.013  0.00  0.00    +0.149 HD
ENDROOT
BRANCH   1  12
ATOM     12  C   UNL     1      -1.208   2.234   0.020  0.00  0.00    +0.125 C 
BRANCH  12  14
ATOM     13  C   UNL     1      -2.860   3.413   1.477  0.00  0.00    +0.005 C 
ATOM     14  C   UNL     1      -1.615   2.523   1.466  0.00  0.00    +0.018 C 
ENDBRANCH  12  14
ENDBRANCH   1  12
BRANCH  10  15
ATOM     15  C   UNL     1       3.113   3.451  -0.009  0.00  0.00    +0.143 C 
BRANCH  15  16
ATOM     16  C   UNL     1       3.284   4.948  -0.003  0.00  0.00    +0.012 A 
ATOM     17  C   UNL     1       3.563   5.617  -1.179  0.00  0.00    +0.024 A 
ATOM     18  C   UNL     1       3.716   6.992  -1.174  0.00  0.00    +0.018 A 
ATOM     19  C   UNL     1       3.599   7.699   0.009  0.00  0.00    +0.019 A 
ATOM     20  C   UNL     1       3.325   7.033   1.188  0.00  0.00    +0.047 A 
ATOM     21  C   UNL     1       3.167   5.655   1.185  0.00  0.00    +0.122 A 
ATOM     22 BR   UNL     1       4.091   7.905  -2.787  0.00  0.00    -0.050 Br
BRANCH  21  23
ATOM     23  O   UNL     1       2.898   4.998   2.344  0.00  0.00    -0.506 OA
ATOM     24  H   UNL     1       3.686   4.708   2.824  0.00  0.00    +0.292 HD
ENDBRANCH  21  23
ENDBRANCH  15  16
ENDBRANCH  10  15
TORSDOF 5
