REMARK  Name = ZINC35556841
REMARK  12 active torsions:
REMARK  status: ('A' for Active; 'I' for Inactive)
REMARK    1  A    between atoms: C_1  and  C_2
REMARK    2  A    between atoms: C_2  and  N_3
REMARK    3  A    between atoms: N_3  and  C_4
REMARK    4  A    between atoms: C_4  and  C_6
REMARK    5  A    between atoms: C_4  and  C_19
REMARK    6  A    between atoms: C_8  and  O_16
REMARK    7  A    between atoms: C_9  and  O_13
REMARK    8  A    between atoms: O_13  and  C_14
REMARK    9  A    between atoms: C_14  and  C_15
REMARK   10  A    between atoms: O_16  and  C_17
REMARK   11  A    between atoms: C_17  and  C_18
REMARK   12  A    between atoms: C_22  and  C_24
REMARK                            x       y       z     vdW  Elec       q    Type
REMARK                         _______ _______ _______ _____ _____    ______ ____
ROOT
ATOM      1  C   UNL     1       1.480  -2.721  -2.253  0.00  0.00    -0.043 A 
ATOM      2  C   UNL     1       1.659  -2.189  -3.517  0.00  0.00    +0.052 A 
ATOM      3  C   UNL     1       2.367  -2.899  -4.473  0.00  0.00    +0.162 A 
ATOM      4  C   UNL     1       2.897  -4.147  -4.159  0.00  0.00    +0.163 A 
ATOM      5  C   UNL     1       2.714  -4.674  -2.891  0.00  0.00    +0.065 A 
ATOM      6  C   UNL     1       2.010  -3.958  -1.939  0.00  0.00    +0.023 A 
ATOM      7 BR   UNL     1       1.768  -4.676  -0.206  0.00  0.00    -0.050 Br
ENDROOT
BRANCH   1   8
ATOM      8  C   UNL     1       0.710  -1.947  -1.215  0.00  0.00    -0.036 C 
BRANCH   8   9
ATOM      9  C   UNL     1      -0.780  -2.275  -1.335  0.00  0.00    -0.018 C 
ATOM     10  C   UNL     1      -1.236  -3.045  -2.576  0.00  0.00    +0.006 C 
ATOM     11  C   UNL     1      -1.192  -3.743  -1.214  0.00  0.00    -0.012 C 
ATOM     12  C   UNL     1      -2.528  -4.049  -0.534  0.00  0.00    +0.008 C 
ENDBRANCH   8   9
BRANCH   8  13
ATOM     13  N   UNL     1       0.913  -0.507  -1.426  0.00  0.00    +0.384 N 
ATOM     14  H   UNL     1       0.512  -0.237  -2.312  0.00  0.00    -0.085 HD
ATOM     15  H   UNL     1       1.901  -0.304  -1.429  0.00  0.00    -0.085 HD
BRANCH  13  17
ATOM     16  C   UNL     1       0.472   1.743  -0.565  0.00  0.00    -0.017 C 
ATOM     17  C   UNL     1       0.261   0.243  -0.345  0.00  0.00    -0.085 C 
ENDBRANCH  13  17
ENDBRANCH   8  13
ENDBRANCH   1   8
BRANCH   4  18
ATOM     18  O   UNL     1       3.593  -4.847  -5.094  0.00  0.00    -0.489 OA
BRANCH  18  19
ATOM     19  C   UNL     1       4.107  -6.121  -4.701  0.00  0.00    +0.226 C 
ATOM     20  C   UNL     1       4.854  -6.754  -5.876  0.00  0.00    +0.048 C 
ENDBRANCH  18  19
ENDBRANCH   4  18
BRANCH   3  21
ATOM     21  O   UNL     1       2.544  -2.377  -5.717  0.00  0.00    -0.489 OA
BRANCH  21  22
ATOM     22  C   UNL     1       1.972  -1.092  -5.969  0.00  0.00    +0.226 C 
ATOM     23  C   UNL     1       2.273  -0.674  -7.410  0.00  0.00    +0.048 C 
ENDBRANCH  21  22
ENDBRANCH   3  21
TORSDOF 8
