REMARK  Name = ZINC20503732
REMARK  10 active torsions:
REMARK  status: ('A' for Active; 'I' for Inactive)
REMARK    1  A    between atoms: C_1  and  N_2
REMARK    2  A    between atoms: C_3  and  C_12
REMARK    3  A    between atoms: C_5  and  C_7
REMARK    4  A    between atoms: C_21  and  C_23
REMARK    5  A    between atoms: C_23  and  N_24
REMARK    6  A    between atoms: N_24  and  C_25
REMARK    7  A    between atoms: C_25  and  C_26
REMARK    8  A    between atoms: C_29  and  N_32
REMARK    9  A    between atoms: N_32  and  C_33
REMARK   10  A    between atoms: N_32  and  C_34
REMARK                            x       y       z     vdW  Elec       q    Type
REMARK                         _______ _______ _______ _____ _____    ______ ____
ROOT
ATOM      1  C   UNL     1      -0.081  -0.121  -2.451  0.00  0.00    +0.024 C 
ATOM      2  C   UNL     1       1.312  -0.161  -3.082  0.00  0.00    -0.069 C 
ATOM      3  N   UNL     1       1.288  -0.968  -4.303  0.00  0.00    +0.381 N 
ATOM      4  C   UNL     1       0.377  -0.383  -5.290  0.00  0.00    -0.078 C 
ATOM      5  C   UNL     1      -1.048  -0.351  -4.733  0.00  0.00    -0.015 C 
ATOM      6  C   UNL     1      -1.043  -0.945  -3.318  0.00  0.00    -0.007 C 
ATOM      7  C   UNL     1      -0.510  -2.381  -3.401  0.00  0.00    -0.013 C 
ATOM      8  C   UNL     1       0.903  -2.349  -4.001  0.00  0.00    -0.086 C 
ATOM      9  H   UNL     1       2.215  -0.975  -4.701  0.00  0.00    -0.082 HD
ENDROOT
BRANCH   1  12
ATOM     10  C   UNL     1       2.002   0.531  -0.257  0.00  0.00    +0.172 C 
ATOM     11  N   UNL     1       0.890  -0.413  -0.115  0.00  0.00    -0.271 N 
ATOM     12  C   UNL     1      -0.025  -0.707  -1.064  0.00  0.00    +0.041 A 
ATOM     13  C   UNL     1      -0.881  -1.617  -0.551  0.00  0.00    +0.053 A 
ATOM     14  C   UNL     1      -0.475  -1.895   0.770  0.00  0.00    +0.100 A 
ATOM     15  N   UNL     1       0.596  -1.171   1.025  0.00  0.00    -0.171 NA
BRANCH  14  16
ATOM     16  C   UNL     1      -1.131  -2.837   1.703  0.00  0.00    +0.039 A 
ATOM     17  C   UNL     1      -0.796  -3.149   2.992  0.00  0.00    +0.018 A 
ATOM     18  C   UNL     1      -1.565  -4.067   3.674  0.00  0.00    +0.008 A 
ATOM     19  C   UNL     1      -2.628  -4.633   3.048  0.00  0.00    +0.046 A 
ATOM     20  S   UNL     1      -2.572  -3.858   1.441  0.00  0.00    -0.095 S 
ENDBRANCH  14  16
ENDBRANCH   1  12
BRANCH   8  21
ATOM     21  C   UNL     1       1.895  -2.945  -3.000  0.00  0.00    -0.098 C 
BRANCH  21  22
ATOM     22  N   UNL     1       3.260  -2.818  -3.529  0.00  0.00    +0.381 N 
ATOM     23  H   UNL     1       3.329  -3.313  -4.405  0.00  0.00    -0.086 HD
ATOM     24  H   UNL     1       3.475  -1.843  -3.675  0.00  0.00    -0.086 HD
BRANCH  22  25
ATOM     25  C   UNL     1       4.212  -3.390  -2.568  0.00  0.00    -0.047 C 
BRANCH  25  26
ATOM     26  C   UNL     1       5.612  -3.260  -3.110  0.00  0.00    -0.064 A 
ATOM     27  C   UNL     1       6.145  -4.267  -3.894  0.00  0.00    +0.003 A 
ATOM     28  C   UNL     1       7.428  -4.151  -4.392  0.00  0.00    +0.023 A 
ATOM     29  C   UNL     1       8.183  -3.021  -4.105  0.00  0.00    +0.029 A 
ATOM     30  C   UNL     1       7.645  -2.011  -3.317  0.00  0.00    +0.023 A 
ATOM     31  C   UNL     1       6.359  -2.131  -2.827  0.00  0.00    +0.003 A 
BRANCH  29  32
ATOM     32  N   UNL     1       9.481  -2.900  -4.607  0.00  0.00    -0.336 N 
ATOM     33  C   UNL     1      10.047  -3.966  -5.437  0.00  0.00    +0.129 C 
ATOM     34  C   UNL     1      10.276  -1.708  -4.303  0.00  0.00    +0.129 C 
ENDBRANCH  29  32
ENDBRANCH  25  26
ENDBRANCH  22  25
ENDBRANCH  21  22
ENDBRANCH   8  21
TORSDOF 7
