REMARK  Name = ZINC05238840
REMARK  7 active torsions:
REMARK  status: ('A' for Active; 'I' for Inactive)
REMARK    1  A    between atoms: C_1  and  C_2
REMARK    2  A    between atoms: C_15  and  S_17
REMARK    3  A    between atoms: S_17  and  C_18
REMARK    4  A    between atoms: C_18  and  C_19
REMARK    5  A    between atoms: C_19  and  O_21
REMARK    6  A    between atoms: O_21  and  C_22
REMARK    7  A    between atoms: C_27  and  C_30
REMARK                            x       y       z     vdW  Elec       q    Type
REMARK                         _______ _______ _______ _____ _____    ______ ____
ROOT
ATOM      1  C   UNL     1       6.201  -5.247 -11.543  0.00  0.00    +0.008 C 
ATOM      2  C   UNL     1       5.450  -5.338 -10.212  0.00  0.00    -0.009 C 
ATOM      3  C   UNL     1       4.042  -5.888 -10.454  0.00  0.00    +0.008 C 
ATOM      4  C   UNL     1       3.377  -6.218  -9.117  0.00  0.00    +0.037 C 
ATOM      5  C   UNL     1       3.459  -4.993  -8.210  0.00  0.00    -0.023 A 
ATOM      6  C   UNL     1       4.345  -4.008  -8.462  0.00  0.00    -0.004 A 
ATOM      7  S   UNL     1       4.086  -2.816  -7.176  0.00  0.00    -0.073 S 
ATOM      8  C   UNL     1       2.784  -3.647  -6.301  0.00  0.00    +0.117 A 
ATOM      9  C   UNL     1       2.595  -4.826  -7.041  0.00  0.00    +0.075 A 
ATOM     10  C   UNL     1       1.581  -5.711  -6.555  0.00  0.00    +0.261 A 
ATOM     11  O   UNL     1       1.346  -6.759  -7.132  0.00  0.00    -0.267 OA
ATOM     12  N   UNL     1       0.893  -5.373  -5.448  0.00  0.00    -0.301 N 
ATOM     13  H   UNL     1       0.190  -5.993  -5.100  0.00  0.00    +0.171 HD
ATOM     14  C   UNL     1       1.139  -4.202  -4.792  0.00  0.00    +0.171 A 
ATOM     15  N   UNL     1       2.067  -3.369  -5.218  0.00  0.00    -0.216 NA
ATOM     16  C   UNL     1       5.333  -3.941  -9.586  0.00  0.00    +0.046 C 
ENDROOT
BRANCH  14  17
ATOM     17  S   UNL     1       0.207  -3.801  -3.351  0.00  0.00    -0.076 S 
BRANCH  17  18
ATOM     18  C   UNL     1       0.950  -2.205  -2.931  0.00  0.00    +0.197 C 
BRANCH  18  19
ATOM     19  C   UNL     1       0.290  -1.655  -1.693  0.00  0.00    +0.318 C 
ATOM     20  O   UNL     1      -0.592  -2.278  -1.150  0.00  0.00    -0.250 OA
BRANCH  19  21
ATOM     21  O   UNL     1       0.682  -0.472  -1.193  0.00  0.00    -0.461 OA
BRANCH  21  22
ATOM     22  C   UNL     1       0.002  -0.004   0.002  0.00  0.00    +0.177 C 
ATOM     23  C   UNL     1       0.742  -0.511   1.242  0.00  0.00    +0.044 C 
ATOM     24  C   UNL     1       2.178   0.019   1.231  0.00  0.00    +0.004 C 
ATOM     25  C   UNL     1       2.157   1.548   1.239  0.00  0.00    +0.003 C 
ATOM     26  C   UNL     1       1.417   2.055  -0.000  0.00  0.00    -0.011 C 
ATOM     27  C   UNL     1      -0.019   1.526   0.010  0.00  0.00    +0.048 C 
ATOM     28  C   UNL     1       1.396   3.585   0.008  0.00  0.00    +0.007 C 
ENDBRANCH  21  22
ENDBRANCH  19  21
ENDBRANCH  18  19
ENDBRANCH  17  18
ENDBRANCH  14  17
TORSDOF 5
