REMARK  Name = ZINC39487831
REMARK  13 active torsions:
REMARK  status: ('A' for Active; 'I' for Inactive)
REMARK    1  A    between atoms: C_1  and  C_2
REMARK    2  A    between atoms: C_2  and  O_3
REMARK    3  A    between atoms: O_3  and  N_4
REMARK    4  A    between atoms: C_6  and  C_32
REMARK    5  A    between atoms: C_6  and  C_33
REMARK    6  A    between atoms: N_7  and  C_10
REMARK    7  A    between atoms: C_10  and  C_11
REMARK    8  A    between atoms: C_11  and  C_26
REMARK    9  A    between atoms: N_14  and  S_17
REMARK   10  A    between atoms: S_17  and  C_20
REMARK   11  A    between atoms: C_33  and  C_34
REMARK   12  A    between atoms: C_34  and  C_35
REMARK   13  A    between atoms: C_34  and  C_36
REMARK                            x       y       z     vdW  Elec       q    Type
REMARK                         _______ _______ _______ _____ _____    ______ ____
ROOT
ATOM      1  C   UNL     1      -2.851  -4.923  -3.038  0.00  0.00    -0.008 C 
ATOM      2  C   UNL     1      -3.883  -3.860  -3.422  0.00  0.00    +0.026 C 
ATOM      3  C   UNL     1      -3.304  -2.469  -3.148  0.00  0.00    +0.110 C 
ATOM      4  N   UNL     1      -2.867  -2.406  -1.747  0.00  0.00    -0.177 NA
ATOM      5  C   UNL     1      -1.944  -3.435  -1.248  0.00  0.00    +0.110 C 
ATOM      6  C   UNL     1      -2.538  -4.816  -1.544  0.00  0.00    +0.026 C 
ENDROOT
BRANCH   1   7
ATOM      7  C   UNL     1      -3.413  -6.313  -3.343  0.00  0.00    -0.003 C 
ATOM      8  C   UNL     1      -3.888  -6.363  -4.797  0.00  0.00    +0.004 C 
ATOM      9  C   UNL     1      -4.450  -7.753  -5.102  0.00  0.00    +0.000 C 
ATOM     10  C   UNL     1      -5.628  -8.042  -4.170  0.00  0.00    +0.000 C 
ATOM     11  C   UNL     1      -5.154  -7.992  -2.716  0.00  0.00    +0.000 C 
ATOM     12  C   UNL     1      -4.591  -6.602  -2.411  0.00  0.00    +0.004 C 
ENDBRANCH   1   7
BRANCH   4  13
ATOM     13  S   UNL     1      -3.404  -1.199  -0.748  0.00  0.00    +0.061 S 
ATOM     14  O   UNL     1      -2.437  -1.067   0.285  0.00  0.00    -0.153 OA
ATOM     15  O   UNL     1      -3.776  -0.114  -1.586  0.00  0.00    -0.153 OA
BRANCH  13  16
ATOM     16  C   UNL     1      -4.882  -1.776   0.018  0.00  0.00    +0.105 A 
ATOM     17  C   UNL     1      -6.106  -1.549  -0.584  0.00  0.00    +0.028 A 
ATOM     18  C   UNL     1      -7.266  -2.001   0.017  0.00  0.00    +0.002 A 
ATOM     19  C   UNL     1      -7.202  -2.680   1.219  0.00  0.00    +0.000 A 
ATOM     20  C   UNL     1      -5.979  -2.908   1.820  0.00  0.00    +0.002 A 
ATOM     21  C   UNL     1      -4.818  -2.459   1.217  0.00  0.00    +0.028 A 
ENDBRANCH  13  16
ENDBRANCH   4  13
BRANCH   1  22
ATOM     22  C   UNL     1      -1.569  -4.703  -3.845  0.00  0.00    +0.117 C 
BRANCH  22  26
ATOM     23  N   UNL     1       0.951  -6.745  -2.175  0.00  0.00    -0.163 N 
ATOM     24  C   UNL     1       0.914  -7.550  -3.405  0.00  0.00    +0.167 C 
ATOM     25  C   UNL     1      -0.130  -6.834  -4.283  0.00  0.00    +0.054 C 
ATOM     26  N   UNL     1      -0.571  -5.701  -3.455  0.00  0.00    -0.276 N 
ATOM     27  C   UNL     1       0.083  -5.731  -2.287  0.00  0.00    +0.328 C 
ATOM     28  O   UNL     1      -0.093  -4.909  -1.408  0.00  0.00    -0.250 OA
ATOM     29  C   UNL     1       0.510  -6.335  -5.580  0.00  0.00    +0.033 C 
BRANCH  23  30
ATOM     30  O   UNL     1       1.770  -7.004  -1.049  0.00  0.00    -0.276 OA
BRANCH  30  32
ATOM     31  C   UNL     1       2.135  -8.067   1.090  0.00  0.00    +0.036 C 
ATOM     32  C   UNL     1       1.166  -7.857  -0.075  0.00  0.00    +0.187 C 
ENDBRANCH  30  32
ENDBRANCH  23  30
BRANCH  25  33
ATOM     33  C   UNL     1      -1.306  -7.765  -4.588  0.00  0.00    +0.030 C 
BRANCH  33  34
ATOM     34  C   UNL     1      -0.791  -9.021  -5.295  0.00  0.00    -0.015 C 
ATOM     35  C   UNL     1      -1.975  -9.912  -5.677  0.00  0.00    +0.007 C 
ATOM     36  C   UNL     1      -0.027  -8.619  -6.558  0.00  0.00    +0.007 C 
ENDBRANCH  33  34
ENDBRANCH  25  33
ENDBRANCH  22  26
ENDBRANCH   1  22
TORSDOF 9
