REMARK  Name = ZINC51277400
REMARK  6 active torsions:
REMARK  status: ('A' for Active; 'I' for Inactive)
REMARK    1  A    between atoms: C_1  and  C_2
REMARK    2  A    between atoms: C_5  and  C_8
REMARK    3  A    between atoms: C_8  and  C_9
REMARK    4  A    between atoms: N_18  and  C_19
REMARK    5  A    between atoms: C_19  and  C_20
REMARK    6  A    between atoms: C_25  and  N_26
REMARK                            x       y       z     vdW  Elec       q    Type
REMARK                         _______ _______ _______ _____ _____    ______ ____
ROOT
ATOM      1  C   UNL     1       1.506  -4.763  -0.028  0.00  0.00    +0.011 C 
ATOM      2  C   UNL     1       1.528  -6.287  -0.166  0.00  0.00    +0.007 C 
ATOM      3  C   UNL     1       2.977  -6.776  -0.214  0.00  0.00    +0.019 C 
ATOM      4  C   UNL     1       3.683  -6.398   1.092  0.00  0.00    +0.109 C 
ATOM      5  N   UNL     1       3.541  -4.951   1.305  0.00  0.00    -0.285 N 
ATOM      6  C   UNL     1       2.195  -4.362   1.280  0.00  0.00    +0.113 C 
ATOM      7  C   UNL     1       4.624  -4.179   1.520  0.00  0.00    +0.302 C 
ATOM      8  O   UNL     1       4.504  -2.972   1.601  0.00  0.00    -0.253 OA
ATOM      9  N   UNL     1       5.841  -4.745   1.646  0.00  0.00    -0.295 N 
ATOM     10  H   UNL     1       5.948  -5.699   1.510  0.00  0.00    +0.151 HD
ENDROOT
BRANCH   1  11
ATOM     11  C   UNL     1       0.056  -4.273  -0.012  0.00  0.00    +0.040 C 
BRANCH  11  16
ATOM     12  C   UNL     1      -0.025   1.505   0.040  0.00  0.00    +0.044 C 
ATOM     13  C   UNL     1      -0.004  -0.002   0.027  0.00  0.00    -0.050 A 
ATOM     14  C   UNL     1      -0.002  -0.682  -1.177  0.00  0.00    +0.003 A 
ATOM     15  C   UNL     1       0.017  -2.064  -1.189  0.00  0.00    +0.004 A 
ATOM     16  C   UNL     1       0.036  -2.766   0.002  0.00  0.00    -0.047 A 
ATOM     17  C   UNL     1       0.035  -2.086   1.205  0.00  0.00    +0.004 A 
ATOM     18  C   UNL     1       0.020  -0.704   1.217  0.00  0.00    +0.003 A 
ENDBRANCH  11  16
ENDBRANCH   1  11
BRANCH   9  19
ATOM     19  C   UNL     1       7.001  -3.918   1.987  0.00  0.00    +0.144 C 
BRANCH  19  20
ATOM     20  C   UNL     1       8.231  -4.786   2.066  0.00  0.00    +0.014 A 
ATOM     21  C   UNL     1       8.710  -5.215   3.292  0.00  0.00    +0.010 A 
ATOM     22  C   UNL     1       9.845  -6.012   3.317  0.00  0.00    +0.020 A 
ATOM     23  C   UNL     1      10.458  -6.353   2.127  0.00  0.00    +0.113 A 
ATOM     24  N   UNL     1       9.978  -5.930   0.974  0.00  0.00    -0.236 NA
ATOM     25  C   UNL     1       8.895  -5.173   0.909  0.00  0.00    +0.159 A 
BRANCH  25  26
ATOM     26  N   UNL     1       8.418  -4.752  -0.337  0.00  0.00    -0.222 N 
ATOM     27  C   UNL     1       9.151  -4.626  -1.473  0.00  0.00    +0.116 A 
ATOM     28  C   UNL     1       8.320  -4.197  -2.451  0.00  0.00    +0.041 A 
ATOM     29  C   UNL     1       7.041  -4.055  -1.899  0.00  0.00    +0.135 A 
ATOM     30  N   UNL     1       7.098  -4.392  -0.636  0.00  0.00    -0.173 NA
ENDBRANCH  25  26
ENDBRANCH  19  20
ENDBRANCH   9  19
TORSDOF 5
