REMARK  Name = ZINC33937191
REMARK  15 active torsions:
REMARK  status: ('A' for Active; 'I' for Inactive)
REMARK    1  A    between atoms: C_1  and  C_2
REMARK    2  A    between atoms: C_2  and  C_3
REMARK    3  A    between atoms: C_3  and  C_5
REMARK    4  A    between atoms: C_3  and  N_17
REMARK    5  A    between atoms: N_9  and  C_10
REMARK    6  A    between atoms: C_10  and  C_11
REMARK    7  A    between atoms: N_17  and  C_18
REMARK    8  A    between atoms: N_17  and  C_27
REMARK    9  A    between atoms: C_18  and  C_19
REMARK   10  A    between atoms: C_19  and  C_20
REMARK   11  A    between atoms: C_24  and  C_26
REMARK   12  A    between atoms: C_27  and  C_28
REMARK   13  A    between atoms: C_32  and  O_40
REMARK   14  A    between atoms: O_40  and  C_41
REMARK   15  A    between atoms: C_41  and  C_42
REMARK                            x       y       z     vdW  Elec       q    Type
REMARK                         _______ _______ _______ _____ _____    ______ ____
ROOT
ATOM      1  N   UNL     1      -0.010  -0.213  -2.584  0.00  0.00    +0.389 N 
ATOM      2  H   UNL     1      -0.990  -0.444  -2.518  0.00  0.00    -0.080 HD
ENDROOT
BRANCH   1   3
ATOM      3  C   UNL     1       0.664  -0.578  -1.331  0.00  0.00    +0.003 C 
BRANCH   3   4
ATOM      4  C   UNL     1       2.118  -0.187  -1.410  0.00  0.00    +0.138 A 
ATOM      5  N   UNL     1       2.926  -0.382  -2.423  0.00  0.00    -0.115 NA
ATOM      6  N   UNL     1       4.082   0.091  -2.106  0.00  0.00    -0.023 NA
ATOM      7  N   UNL     1       4.031   0.583  -0.918  0.00  0.00    -0.044 NA
ATOM      8  N   UNL     1       2.835   0.436  -0.457  0.00  0.00    -0.228 N 
BRANCH   8   9
ATOM      9  C   UNL     1       2.350   0.862   0.858  0.00  0.00    +0.178 C 
BRANCH   9  10
ATOM     10  C   UNL     1       2.556  -0.268   1.869  0.00  0.00    +0.140 C 
ATOM     11  C   UNL     1       2.134   0.194   3.286  0.00  0.00    +0.035 C 
ATOM     12  C   UNL     1       1.800  -1.168   3.953  0.00  0.00    +0.031 C 
ATOM     13  C   UNL     1       1.223  -1.979   2.773  0.00  0.00    +0.160 C 
ATOM     14  O   UNL     1       1.695  -1.376   1.560  0.00  0.00    -0.375 OA
ENDBRANCH   9  10
ENDBRANCH   8   9
ENDBRANCH   3   4
BRANCH   3  16
ATOM     15  C   UNL     1      -0.917  -2.473  -0.944  0.00  0.00    +0.002 C 
ATOM     16  C   UNL     1       0.554  -2.089  -1.115  0.00  0.00    -0.011 C 
ENDBRANCH   3  16
ENDBRANCH   1   3
BRANCH   1  17
ATOM     17  C   UNL     1       0.138   1.230  -2.817  0.00  0.00    -0.073 C 
BRANCH  17  18
ATOM     18  C   UNL     1      -0.592   2.002  -1.716  0.00  0.00    +0.016 C 
BRANCH  18  19
ATOM     19  C   UNL     1      -0.548   3.477  -2.023  0.00  0.00    -0.049 A 
ATOM     20  C   UNL     1       0.499   4.249  -1.557  0.00  0.00    +0.003 A 
ATOM     21  C   UNL     1       0.539   5.602  -1.839  0.00  0.00    +0.001 A 
ATOM     22  C   UNL     1      -0.469   6.182  -2.587  0.00  0.00    +0.003 A 
ATOM     23  C   UNL     1      -1.516   5.410  -3.053  0.00  0.00    -0.050 A 
ATOM     24  C   UNL     1      -1.553   4.056  -2.775  0.00  0.00    +0.007 A 
ATOM     25  C   UNL     1      -2.615   6.043  -3.867  0.00  0.00    +0.044 C 
ENDBRANCH  18  19
ENDBRANCH  17  18
ENDBRANCH   1  17
BRANCH   1  26
ATOM     26  C   UNL     1       0.594  -0.953  -3.700  0.00  0.00    -0.037 C 
BRANCH  26  27
ATOM     27  C   UNL     1      -0.196  -0.700  -4.958  0.00  0.00    +0.001 A 
ATOM     28  C   UNL     1       0.208   0.260  -5.827  0.00  0.00    +0.017 A 
ATOM     29  C   UNL     1      -0.582   0.482  -7.040  0.00  0.00    +0.002 A 
ATOM     30  C   UNL     1      -0.213   1.457  -7.973  0.00  0.00    +0.055 A 
ATOM     31  C   UNL     1      -0.980   1.640  -9.106  0.00  0.00    +0.121 A 
ATOM     32  C   UNL     1      -2.113   0.859  -9.322  0.00  0.00    +0.047 A 
ATOM     33  C   UNL     1      -2.486  -0.104  -8.411  0.00  0.00    +0.030 A 
ATOM     34  C   UNL     1      -1.728  -0.305  -7.262  0.00  0.00    +0.049 A 
ATOM     35  N   UNL     1      -2.084  -1.265  -6.337  0.00  0.00    -0.322 N 
ATOM     36  H   UNL     1      -2.874  -1.806  -6.491  0.00  0.00    +0.169 HD
ATOM     37  C   UNL     1      -1.350  -1.465  -5.229  0.00  0.00    +0.251 A 
ATOM     38  O   UNL     1      -1.692  -2.326  -4.437  0.00  0.00    -0.268 OA
BRANCH  31  39
ATOM     39  O   UNL     1      -0.627   2.586 -10.016  0.00  0.00    -0.492 OA
BRANCH  39  40
ATOM     40  C   UNL     1      -1.463   2.724 -11.166  0.00  0.00    +0.225 C 
ATOM     41  C   UNL     1      -0.911   3.829 -12.069  0.00  0.00    +0.048 C 
ENDBRANCH  39  40
ENDBRANCH  31  39
ENDBRANCH  26  27
ENDBRANCH   1  26
TORSDOF 12
