REMARK  Name = ZINC09572175
REMARK  5 active torsions:
REMARK  status: ('A' for Active; 'I' for Inactive)
REMARK    1  A    between atoms: C_1  and  C_2
REMARK    2  A    between atoms: C_7  and  C_11
REMARK    3  A    between atoms: C_14  and  N_17
REMARK    4  A    between atoms: N_17  and  S_18
REMARK    5  A    between atoms: S_18  and  C_21
REMARK                            x       y       z     vdW  Elec       q    Type
REMARK                         _______ _______ _______ _____ _____    ______ ____
ROOT
ATOM      1  N   UNL     1      -0.077   0.078   0.006  0.00  0.00    -0.216 N 
ATOM      2  H   UNL     1       0.496  -0.344  -0.653  0.00  0.00    +0.174 HD
ENDROOT
BRANCH   1   6
ATOM      3  C   UNL     1      -0.473   4.225   0.073  0.00  0.00    +0.002 A 
ATOM      4  C   UNL     1       0.791   3.646  -0.035  0.00  0.00    +0.012 A 
ATOM      5  C   UNL     1       0.919   2.274  -0.056  0.00  0.00    +0.025 A 
ATOM      6  C   UNL     1      -0.210   1.468   0.029  0.00  0.00    +0.048 A 
ATOM      7  C   UNL     1      -1.471   2.043   0.131  0.00  0.00    +0.025 A 
ATOM      8  C   UNL     1      -1.604   3.415   0.159  0.00  0.00    +0.012 A 
BRANCH   3  15
ATOM      9  C   UNL     1       0.464  11.462   0.055  0.00  0.00    +0.066 C 
ATOM     10  C   UNL     1      -0.225  10.122   0.101  0.00  0.00    +0.043 A 
ATOM     11  C   UNL     1      -1.621  10.060   0.214  0.00  0.00    +0.041 A 
ATOM     12  C   UNL     1      -2.231   8.850   0.254  0.00  0.00    +0.096 A 
ATOM     13  N   UNL     1      -1.469   7.720   0.183  0.00  0.00    -0.290 N 
ATOM     14  C   UNL     1      -1.785   6.390   0.192  0.00  0.00    +0.122 A 
ATOM     15  C   UNL     1      -0.614   5.702   0.097  0.00  0.00    +0.091 A 
ATOM     16  N   UNL     1       0.392   6.590   0.022  0.00  0.00    -0.210 NA
ATOM     17  C   UNL     1      -0.105   7.817   0.072  0.00  0.00    +0.236 A 
ATOM     18  N   UNL     1       0.485   9.021   0.034  0.00  0.00    -0.217 NA
ENDBRANCH   3  15
ENDBRANCH   1   6
BRANCH   1  19
ATOM     19  S   UNL     1      -0.898  -0.850   1.105  0.00  0.00    +0.073 S 
ATOM     20  O   UNL     1      -2.262  -0.462   1.026  0.00  0.00    -0.150 OA
ATOM     21  O   UNL     1      -0.475  -2.191   0.900  0.00  0.00    -0.150 OA
BRANCH  19  22
ATOM     22  C   UNL     1      -0.333  -0.383   2.707  0.00  0.00    +0.112 A 
ATOM     23  C   UNL     1      -1.218   0.210   3.610  0.00  0.00    +0.030 A 
ATOM     24  C   UNL     1      -0.837   0.586   4.866  0.00  0.00    +0.010 A 
ATOM     25  C   UNL     1       0.496   0.380   5.259  0.00  0.00    -0.017 A 
ATOM     26  C   UNL     1       1.014   0.729   6.517  0.00  0.00    +0.008 A 
ATOM     27  C   UNL     1       2.329   0.478   6.779  0.00  0.00    +0.001 A 
ATOM     28  C   UNL     1       3.179  -0.112   5.841  0.00  0.00    +0.004 A 
ATOM     29  C   UNL     1       2.709  -0.462   4.612  0.00  0.00    -0.039 A 
ATOM     30  C   UNL     1       1.370  -0.213   4.330  0.00  0.00    -0.010 A 
ATOM     31  C   UNL     1       0.965  -0.597   3.056  0.00  0.00    -0.013 A 
ATOM     32  C   UNL     1       2.167  -1.188   2.360  0.00  0.00    +0.042 C 
ATOM     33  C   UNL     1       3.317  -1.099   3.387  0.00  0.00    +0.040 C 
ENDBRANCH  19  22
ENDBRANCH   1  19
TORSDOF 4
