REMARK  Name = ZINC05464565
REMARK  5 active torsions:
REMARK  status: ('A' for Active; 'I' for Inactive)
REMARK    1  A    between atoms: C_7  and  C_15
REMARK    2  A    between atoms: C_15  and  N_16
REMARK    3  A    between atoms: N_16  and  C_17
REMARK    4  A    between atoms: C_20  and  S_23
REMARK    5  A    between atoms: S_23  and  N_26
REMARK                            x       y       z     vdW  Elec       q    Type
REMARK                         _______ _______ _______ _____ _____    ______ ____
ROOT
ATOM      1  C   UNL     1      -2.622  -1.761  -0.721  0.00  0.00    +0.027 A 
ATOM      2  C   UNL     1      -3.344  -2.479   0.225  0.00  0.00    +0.025 A 
ATOM      3  C   UNL     1      -4.577  -3.007  -0.104  0.00  0.00    +0.031 A 
ATOM      4  C   UNL     1      -5.089  -2.830  -1.377  0.00  0.00    +0.111 A 
ATOM      5  C   UNL     1      -4.371  -2.120  -2.322  0.00  0.00    +0.031 A 
ATOM      6  C   UNL     1      -3.140  -1.585  -1.998  0.00  0.00    +0.025 A 
ENDROOT
BRANCH   4   7
ATOM      7  S   UNL     1      -6.660  -3.510  -1.794  0.00  0.00    +0.080 S 
ATOM      8  O   UNL     1      -7.374  -3.662  -0.575  0.00  0.00    -0.148 OA
ATOM      9  O   UNL     1      -7.160  -2.740  -2.879  0.00  0.00    -0.148 OA
BRANCH   7  10
ATOM     10  N   UNL     1      -6.393  -5.036  -2.380  0.00  0.00    -0.228 N 
ATOM     11  C   UNL     1      -5.880  -6.009  -1.556  0.00  0.00    +0.186 C 
ATOM     12  H   UNL     1      -5.238  -6.349   0.347  0.00  0.00    +0.159 HD
ATOM     13  N   UNL     1      -5.658  -7.275  -2.042  0.00  0.00    -0.370 N 
ATOM     14  H   UNL     1      -6.598  -5.243  -3.305  0.00  0.00    +0.191 HD
ATOM     15  H   UNL     1      -5.863  -7.483  -2.967  0.00  0.00    +0.159 HD
ATOM     16  H   UNL     1      -5.296  -7.962  -1.460  0.00  0.00    +0.159 HD
ATOM     17  N   UNL     1      -5.620  -5.662  -0.303  0.00  0.00    -0.370 N 
ATOM     18  H   UNL     1      -5.803  -4.702   0.012  0.00  0.00    +0.159 HD
ENDBRANCH   7  10
ENDBRANCH   4   7
BRANCH   1  19
ATOM     19  N   UNL     1      -1.377  -1.222  -0.389  0.00  0.00    -0.340 N 
ATOM     20  H   UNL     1      -0.873  -0.724  -1.051  0.00  0.00    +0.146 HD
BRANCH  19  21
ATOM     21  C   UNL     1      -0.833  -1.409   0.958  0.00  0.00    +0.138 C 
BRANCH  21  28
ATOM     22  C   UNL     1      -0.363   2.657   2.169  0.00  0.00    +0.001 A 
ATOM     23  C   UNL     1       0.896   3.252   2.249  0.00  0.00    +0.002 A 
ATOM     24  C   UNL     1       2.031   2.571   1.947  0.00  0.00    +0.028 A 
ATOM     25  C   UNL     1       1.948   1.222   1.539  0.00  0.00    +0.072 A 
ATOM     26  C   UNL     1       0.623   0.599   1.456  0.00  0.00    +0.006 A 
ATOM     27  C   UNL     1      -0.515   1.365   1.778  0.00  0.00    +0.010 A 
ATOM     28  C   UNL     1       0.511  -0.735   1.054  0.00  0.00    -0.012 A 
ATOM     29  C   UNL     1       1.687  -1.424   0.746  0.00  0.00    +0.006 A 
ATOM     30  C   UNL     1       1.661  -2.771   0.334  0.00  0.00    +0.010 A 
ATOM     31  C   UNL     1       2.827  -3.405   0.043  0.00  0.00    +0.001 A 
ATOM     32  C   UNL     1       4.056  -2.753   0.142  0.00  0.00    +0.002 A 
ATOM     33  C   UNL     1       4.150  -1.457   0.534  0.00  0.00    +0.028 A 
ATOM     34  C   UNL     1       2.978  -0.737   0.852  0.00  0.00    +0.072 A 
ATOM     35  N   UNL     1       3.042   0.533   1.237  0.00  0.00    -0.247 NA
ENDBRANCH  21  28
ENDBRANCH  19  21
ENDBRANCH   1  19
TORSDOF 5
