REMARK  Name = ZINC22637438
REMARK  11 active torsions:
REMARK  status: ('A' for Active; 'I' for Inactive)
REMARK    1  A    between atoms: C_1  and  C_2
REMARK    2  A    between atoms: C_2  and  C_3
REMARK    3  A    between atoms: C_2  and  N_4
REMARK    4  A    between atoms: N_12  and  N_13
REMARK    5  A    between atoms: C_14  and  C_16
REMARK    6  A    between atoms: C_16  and  N_27
REMARK    7  A    between atoms: C_17  and  C_18
REMARK    8  A    between atoms: C_21  and  N_24
REMARK    9  A    between atoms: N_24  and  C_25
REMARK   10  A    between atoms: N_24  and  C_26
REMARK   11  A    between atoms: C_28  and  C_30
REMARK                            x       y       z     vdW  Elec       q    Type
REMARK                         _______ _______ _______ _____ _____    ______ ____
ROOT
ATOM      1  C   UNL     1      -3.378   3.198  -0.046  0.00  0.00    +0.098 C 
ATOM      2  C   UNL     1      -2.331   4.059  -0.087  0.00  0.00    +0.036 C 
ENDROOT
BRANCH   2   3
ATOM      3  C   UNL     1      -0.960   3.543  -0.183  0.00  0.00    -0.023 A 
ATOM      4  C   UNL     1      -0.707   2.342  -0.857  0.00  0.00    +0.010 A 
ATOM      5  C   UNL     1       0.580   1.860  -0.940  0.00  0.00    +0.023 A 
ATOM      6  C   UNL     1       1.630   2.569  -0.363  0.00  0.00    +0.029 A 
ATOM      7  C   UNL     1       1.383   3.766   0.303  0.00  0.00    +0.023 A 
ATOM      8  C   UNL     1       0.100   4.253   0.395  0.00  0.00    +0.010 A 
BRANCH   6   9
ATOM      9  N   UNL     1       2.930   2.081  -0.455  0.00  0.00    -0.336 N 
ATOM     10  C   UNL     1       3.177   0.760  -1.038  0.00  0.00    +0.129 C 
ATOM     11  C   UNL     1       4.052   2.888   0.032  0.00  0.00    +0.129 C 
ENDBRANCH   6   9
ENDBRANCH   2   3
BRANCH   1  13
ATOM     12  N   UNL     1      -5.782   2.853   0.167  0.00  0.00    -0.201 N 
ATOM     13  C   UNL     1      -4.742   3.709   0.126  0.00  0.00    +0.277 C 
ATOM     14  O   UNL     1      -4.934   4.906   0.232  0.00  0.00    -0.267 OA
ATOM     15  H   UNL     1      -5.609   1.771   0.071  0.00  0.00    +0.178 HD
BRANCH  12  24
ATOM     16  N   UNL     1     -10.201   1.674   0.669  0.00  0.00    -0.263 N 
ATOM     17  C   UNL     1      -9.337   0.588   0.765  0.00  0.00    +0.046 A 
ATOM     18  C   UNL     1      -9.577  -0.770   0.941  0.00  0.00    +0.024 A 
ATOM     19  C   UNL     1      -8.523  -1.659   0.991  0.00  0.00    +0.002 A 
ATOM     20  C   UNL     1      -7.217  -1.212   0.877  0.00  0.00    +0.001 A 
ATOM     21  C   UNL     1      -6.959   0.133   0.706  0.00  0.00    +0.012 A 
ATOM     22  C   UNL     1      -8.015   1.036   0.647  0.00  0.00    +0.028 A 
ATOM     23  C   UNL     1      -8.085   2.506   0.477  0.00  0.00    +0.153 C 
ATOM     24  N   UNL     1      -7.085   3.342   0.332  0.00  0.00    -0.174 NA
ATOM     25  C   UNL     1      -9.526   2.824   0.499  0.00  0.00    +0.272 C 
ATOM     26  O   UNL     1     -10.017   3.932   0.384  0.00  0.00    -0.268 OA
BRANCH  16  28
ATOM     27  C   UNL     1     -12.168   2.409   1.922  0.00  0.00    +0.028 C 
ATOM     28  C   UNL     1     -11.661   1.577   0.742  0.00  0.00    +0.076 C 
ATOM     29  C   UNL     1     -12.273   2.105  -0.556  0.00  0.00    +0.028 C 
ENDBRANCH  16  28
ENDBRANCH  12  24
ENDBRANCH   1  13
BRANCH   1  30
ATOM     30  N   UNL     1      -3.158   1.821  -0.168  0.00  0.00    -0.277 N 
ATOM     31  C   UNL     1      -3.741   1.131  -1.168  0.00  0.00    +0.248 C 
ATOM     32  O   UNL     1      -4.384   1.718  -2.017  0.00  0.00    -0.270 OA
ATOM     33  H   UNL     1      -2.508   1.303   0.552  0.00  0.00    +0.155 HD
BRANCH  31  34
ATOM     34  C   UNL     1      -3.599  -0.339  -1.233  0.00  0.00    +0.037 A 
ATOM     35  C   UNL     1      -2.951  -1.026  -0.205  0.00  0.00    +0.013 A 
ATOM     36  C   UNL     1      -2.827  -2.398  -0.269  0.00  0.00    +0.001 A 
ATOM     37  C   UNL     1      -3.333  -3.092  -1.354  0.00  0.00    +0.000 A 
ATOM     38  C   UNL     1      -3.972  -2.417  -2.378  0.00  0.00    +0.001 A 
ATOM     39  C   UNL     1      -4.108  -1.045  -2.324  0.00  0.00    +0.013 A 
ENDBRANCH  31  34
ENDBRANCH   1  30
TORSDOF 7
