REMARK  Name = ZINC39389300
REMARK  13 active torsions:
REMARK  status: ('A' for Active; 'I' for Inactive)
REMARK    1  A    between atoms: C_1  and  C_2
REMARK    2  A    between atoms: C_7  and  C_30
REMARK    3  A    between atoms: C_8  and  C_10
REMARK    4  A    between atoms: C_10  and  C_11
REMARK    5  A    between atoms: C_11  and  C_12
REMARK    6  A    between atoms: C_12  and  C_23
REMARK    7  A    between atoms: C_13  and  C_14
REMARK    8  A    between atoms: C_14  and  C_15
REMARK    9  A    between atoms: C_15  and  C_16
REMARK   10  A    between atoms: C_16  and  C_22
REMARK   11  A    between atoms: N_17  and  N_18
REMARK   12  A    between atoms: C_27  and  C_28
REMARK   13  A    between atoms: C_27  and  C_29
REMARK                            x       y       z     vdW  Elec       q    Type
REMARK                         _______ _______ _______ _____ _____    ______ ____
ROOT
ATOM      1  C   UNL     1      -2.705  -0.995   1.454  0.00  0.00    +0.031 C 
ENDROOT
BRANCH   1   2
ATOM      2  C   UNL     1      -4.112  -1.442   1.758  0.00  0.00    -0.077 C 
ATOM      3  C   UNL     1      -4.956  -1.662   0.781  0.00  0.00    -0.028 C 
ATOM      4  C   UNL     1      -4.548  -1.635   3.188  0.00  0.00    +0.039 C 
BRANCH   3   5
ATOM      5  C   UNL     1      -4.485  -1.600  -0.649  0.00  0.00    +0.033 C 
BRANCH   5   6
ATOM      6  C   UNL     1      -4.861  -2.898  -1.367  0.00  0.00    +0.056 C 
BRANCH   6   7
ATOM      7  C   UNL     1      -4.390  -2.836  -2.797  0.00  0.00    +0.034 C 
ATOM      8  N   UNL     1      -3.485  -3.643  -3.208  0.00  0.00    -0.188 NA
ATOM      9  C   UNL     1      -4.984  -1.824  -3.743  0.00  0.00    +0.062 C 
BRANCH   8  10
ATOM     10  N   UNL     1      -3.047  -3.585  -4.538  0.00  0.00    -0.191 N 
ATOM     11  C   UNL     1      -2.095  -4.435  -4.971  0.00  0.00    +0.317 C 
ATOM     12  O   UNL     1      -1.715  -4.385  -6.125  0.00  0.00    -0.251 OA
ATOM     13  N   UNL     1      -1.564  -5.340  -4.125  0.00  0.00    -0.312 N 
ATOM     14  H   UNL     1      -3.430  -2.934  -5.147  0.00  0.00    +0.179 HD
ATOM     15  H   UNL     1      -1.867  -5.380  -3.205  0.00  0.00    +0.147 HD
ATOM     16  H   UNL     1      -0.878  -5.951  -4.437  0.00  0.00    +0.147 HD
ENDBRANCH   8  10
ENDBRANCH   6   7
ENDBRANCH   5   6
ENDBRANCH   3   5
ENDBRANCH   1   2
BRANCH   1  17
ATOM     17  C   UNL     1      -1.789  -2.217   1.370  0.00  0.00    +0.013 C 
BRANCH  17  24
ATOM     18  C   UNL     1      -0.697   0.424  -0.106  0.00  0.00    +0.039 C 
ATOM     19  C   UNL     1      -0.179  -0.990  -0.050  0.00  0.00    -0.073 C 
ATOM     20  C   UNL     1       0.375  -1.481  -1.106  0.00  0.00    -0.027 C 
ATOM     21  C   UNL     1       0.943  -2.860  -1.203  0.00  0.00    +0.031 C 
ATOM     22  C   UNL     1       0.547  -3.766  -0.026  0.00  0.00    +0.005 C 
ATOM     23  C   UNL     1       0.586  -2.980   1.276  0.00  0.00    -0.022 C 
ATOM     24  C   UNL     1      -0.337  -1.757   1.221  0.00  0.00    +0.021 C 
ATOM     25  C   UNL     1       2.013  -2.527   1.582  0.00  0.00    +0.007 C 
ATOM     26  C   UNL     1       2.928  -3.745   1.691  0.00  0.00    +0.001 C 
ATOM     27  C   UNL     1       2.923  -4.528   0.385  0.00  0.00    +0.007 C 
ATOM     28  C   UNL     1       1.522  -4.947  -0.042  0.00  0.00    -0.031 C 
ATOM     29  C   UNL     1       1.034  -6.129   0.797  0.00  0.00    +0.011 C 
ATOM     30  C   UNL     1       1.627  -5.476  -1.494  0.00  0.00    +0.011 C 
ATOM     31  C   UNL     1       0.065  -3.809   2.463  0.00  0.00    +0.012 C 
ENDBRANCH  17  24
ENDBRANCH   1  17
TORSDOF 7
