REMARK  Name = ZINC20876665
REMARK  8 active torsions:
REMARK  status: ('A' for Active; 'I' for Inactive)
REMARK    1  A    between atoms: C_1  and  O_2
REMARK    2  A    between atoms: O_2  and  C_3
REMARK    3  A    between atoms: C_5  and  C_21
REMARK    4  A    between atoms: C_8  and  O_9
REMARK    5  A    between atoms: O_9  and  C_10
REMARK    6  A    between atoms: C_10  and  C_11
REMARK    7  A    between atoms: C_21  and  N_22
REMARK    8  A    between atoms: N_22  and  C_23
REMARK                            x       y       z     vdW  Elec       q    Type
REMARK                         _______ _______ _______ _____ _____    ______ ____
ROOT
ATOM      1  C   UNL     1      -0.148   1.182   2.380  0.00  0.00    +0.163 A 
ATOM      2  C   UNL     1       0.990   0.393   2.422  0.00  0.00    +0.051 A 
ATOM      3  C   UNL     1       1.534   0.027   3.639  0.00  0.00    -0.060 A 
ATOM      4  C   UNL     1       0.939   0.438   4.817  0.00  0.00    +0.021 A 
ATOM      5  C   UNL     1      -0.201   1.221   4.783  0.00  0.00    +0.063 A 
ATOM      6  C   UNL     1      -0.748   1.595   3.566  0.00  0.00    +0.176 A 
ATOM      7 BR   UNL     1      -1.012   1.780   6.397  0.00  0.00    -0.046 Br
ENDROOT
BRANCH   1   9
ATOM      8  C   UNL     1      -0.013   1.086   0.008  0.00  0.00    +0.277 C 
ATOM      9  O   UNL     1      -0.682   1.547   1.184  0.00  0.00    -0.491 OA
ENDBRANCH   1   9
BRANCH   6  10
ATOM     10  O   UNL     1      -1.869   2.365   3.530  0.00  0.00    -0.483 OA
BRANCH  10  11
ATOM     11  C   UNL     1      -3.124   1.683   3.514  0.00  0.00    +0.265 C 
BRANCH  11  12
ATOM     12  C   UNL     1      -4.243   2.692   3.475  0.00  0.00    -0.007 A 
ATOM     13  C   UNL     1      -4.785   3.168   4.655  0.00  0.00    +0.011 A 
ATOM     14  C   UNL     1      -5.807   4.098   4.624  0.00  0.00    +0.050 A 
ATOM     15  C   UNL     1      -6.301   4.545   3.410  0.00  0.00    +0.166 A 
ATOM     16  C   UNL     1      -5.759   4.062   2.221  0.00  0.00    +0.167 A 
ATOM     17  C   UNL     1      -4.730   3.135   2.260  0.00  0.00    +0.056 A 
ATOM     18  O   UNL     1      -6.409   4.651   1.175  0.00  0.00    -0.453 OA
ATOM     19  C   UNL     1      -7.624   5.188   1.730  0.00  0.00    +0.466 C 
ATOM     20  O   UNL     1      -7.290   5.437   3.108  0.00  0.00    -0.453 OA
ENDBRANCH  11  12
ENDBRANCH  10  11
ENDBRANCH   6  10
BRANCH   3  21
ATOM     21  C   UNL     1       2.776  -0.826   3.681  0.00  0.00    -0.046 C 
BRANCH  21  22
ATOM     22  N   UNL     1       2.394  -2.245   3.697  0.00  0.00    +0.385 N 
ATOM     23  H   UNL     1       1.778  -2.449   4.585  0.00  0.00    -0.085 HD
ATOM     24  H   UNL     1       1.819  -2.480   2.789  0.00  0.00    -0.085 HD
BRANCH  22  25
ATOM     25  C   UNL     1       3.582  -3.108   3.738  0.00  0.00    -0.067 C 
ATOM     26  C   UNL     1       4.390  -2.804   5.001  0.00  0.00    -0.009 C 
ATOM     27  C   UNL     1       5.627  -3.704   5.044  0.00  0.00    -0.012 C 
ATOM     28  C   UNL     1       5.191  -5.170   5.059  0.00  0.00    +0.007 C 
ATOM     29  C   UNL     1       4.383  -5.475   3.796  0.00  0.00    -0.012 C 
ATOM     30  C   UNL     1       3.146  -4.575   3.753  0.00  0.00    -0.009 C 
ATOM     31  C   UNL     1       5.247  -5.212   2.562  0.00  0.00    +0.007 C 
ATOM     32  C   UNL     1       5.684  -3.746   2.547  0.00  0.00    -0.012 C 
ATOM     33  C   UNL     1       6.492  -3.441   3.809  0.00  0.00    +0.007 C 
ATOM     34  C   UNL     1       4.447  -2.846   2.503  0.00  0.00    -0.009 C 
ENDBRANCH  22  25
ENDBRANCH  21  22
ENDBRANCH   3  21
TORSDOF 7
