REMARK  Name = ZINC00667035
REMARK  11 active torsions:
REMARK  status: ('A' for Active; 'I' for Inactive)
REMARK    1  A    between atoms: C_1  and  C_2
REMARK    2  A    between atoms: C_2  and  O_3
REMARK    3  A    between atoms: O_3  and  C_4
REMARK    4  A    between atoms: C_4  and  C_6
REMARK    5  A    between atoms: C_7  and  C_34
REMARK    6  A    between atoms: C_14  and  C_15
REMARK    7  A    between atoms: C_17  and  C_22
REMARK    8  A    between atoms: C_20  and  C_21
REMARK    9  A    between atoms: C_24  and  C_26
REMARK   10  A    between atoms: C_31  and  O_32
REMARK   11  A    between atoms: O_32  and  C_33
REMARK                            x       y       z     vdW  Elec       q    Type
REMARK                         _______ _______ _______ _____ _____    ______ ____
ROOT
ATOM      1  C   UNL     1      -3.067   3.816   1.357  0.00  0.00    +0.085 C 
ATOM      2  C   UNL     1      -3.504   4.998   1.885  0.00  0.00    +0.053 C 
ATOM      3  N   UNL     1      -3.297   6.141   1.244  0.00  0.00    -0.228 NA
ATOM      4  C   UNL     1      -2.682   6.251   0.093  0.00  0.00    +0.178 A 
ATOM      5  N   UNL     1      -2.165   5.187  -0.609  0.00  0.00    -0.275 N 
ATOM      6  C   UNL     1      -1.557   5.424  -1.779  0.00  0.00    +0.268 A 
ATOM      7  O   UNL     1      -1.085   4.513  -2.435  0.00  0.00    -0.266 OA
ATOM      8  C   UNL     1      -1.475   6.811  -2.246  0.00  0.00    +0.081 A 
ATOM      9  C   UNL     1      -0.918   7.310  -3.382  0.00  0.00    +0.030 C 
ATOM     10  S   UNL     1      -2.307   7.670  -0.918  0.00  0.00    -0.046 S 
ATOM     11  C   UNL     1      -2.347   3.853   0.029  0.00  0.00    +0.165 C 
ATOM     12  C   UNL     1      -4.227   5.004   3.208  0.00  0.00    +0.066 C 
ENDROOT
BRANCH   9  13
ATOM     13  C   UNL     1      -0.955   8.752  -3.645  0.00  0.00    -0.003 A 
ATOM     14  C   UNL     1      -1.548   9.791  -2.795  0.00  0.00    +0.030 A 
ATOM     15  C   UNL     1      -1.350  10.961  -3.425  0.00  0.00    +0.014 A 
ATOM     16  N   UNL     1      -0.684  10.733  -4.595  0.00  0.00    -0.362 N 
ATOM     17  H   UNL     1      -0.425  11.421  -5.227  0.00  0.00    +0.165 HD
ATOM     18  C   UNL     1      -0.433   9.411  -4.741  0.00  0.00    +0.020 A 
ATOM     19  C   UNL     1       0.287   8.769  -5.900  0.00  0.00    +0.064 C 
ATOM     20  C   UNL     1      -1.793  12.310  -2.921  0.00  0.00    +0.063 C 
ENDBRANCH   9  13
BRANCH  11  21
ATOM     21  C   UNL     1      -0.983   3.243   0.224  0.00  0.00    +0.022 A 
ATOM     22  C   UNL     1       0.100   4.050   0.516  0.00  0.00    +0.009 A 
ATOM     23  C   UNL     1       1.352   3.492   0.697  0.00  0.00    +0.001 A 
ATOM     24  C   UNL     1       1.524   2.124   0.585  0.00  0.00    +0.004 A 
ATOM     25  C   UNL     1       0.445   1.313   0.293  0.00  0.00    +0.046 A 
ATOM     26  C   UNL     1      -0.812   1.872   0.106  0.00  0.00    +0.126 A 
BRANCH  26  27
ATOM     27  O   UNL     1      -1.874   1.076  -0.188  0.00  0.00    -0.495 OA
ATOM     28  C   UNL     1      -1.646  -0.335  -0.191  0.00  0.00    +0.277 C 
ENDBRANCH  26  27
ENDBRANCH  11  21
BRANCH   1  29
ATOM     29  C   UNL     1      -3.282   2.602   2.028  0.00  0.00    +0.339 C 
ATOM     30  O   UNL     1      -4.165   1.849   1.658  0.00  0.00    -0.245 OA
BRANCH  29  31
ATOM     31  O   UNL     1      -2.509   2.268   3.085  0.00  0.00    -0.462 OA
BRANCH  31  33
ATOM     32  C   UNL     1      -1.669   0.729   4.748  0.00  0.00    +0.048 C 
ATOM     33  C   UNL     1      -2.706   0.970   3.649  0.00  0.00    +0.229 C 
ENDBRANCH  31  33
ENDBRANCH  29  31
ENDBRANCH   1  29
TORSDOF 6
