REMARK  Name = ZINC40003121
REMARK  11 active torsions:
REMARK  status: ('A' for Active; 'I' for Inactive)
REMARK    1  A    between atoms: C_1  and  O_2
REMARK    2  A    between atoms: O_2  and  C_3
REMARK    3  A    between atoms: C_5  and  C_10
REMARK    4  A    between atoms: C_8  and  O_9
REMARK    5  A    between atoms: C_12  and  C_25
REMARK    6  A    between atoms: C_20  and  S_22
REMARK    7  A    between atoms: S_22  and  C_23
REMARK    8  A    between atoms: C_25  and  C_27
REMARK    9  A    between atoms: C_30  and  O_33
REMARK   10  A    between atoms: O_33  and  C_34
REMARK   11  A    between atoms: C_34  and  C_35
REMARK                            x       y       z     vdW  Elec       q    Type
REMARK                         _______ _______ _______ _____ _____    ______ ____
ROOT
ATOM      1  C   UNL     1      -4.809   0.203   0.235  0.00  0.00    +0.152 C 
ATOM      2  C   UNL     1      -5.564   0.087  -1.069  0.00  0.00    +0.077 C 
ATOM      3  C   UNL     1      -6.778  -0.435  -0.771  0.00  0.00    +0.250 C 
ATOM      4  C   UNL     1      -6.861  -0.670   0.684  0.00  0.00    +0.293 C 
ATOM      5  O   UNL     1      -7.826  -1.132   1.262  0.00  0.00    -0.266 OA
ATOM      6  N   UNL     1      -5.711  -0.298   1.278  0.00  0.00    -0.230 N 
ATOM      7  C   UNL     1      -5.428  -0.375   2.636  0.00  0.00    +0.192 A 
ATOM      8  N   UNL     1      -4.336  -0.029   3.299  0.00  0.00    -0.125 NA
ATOM      9  N   UNL     1      -4.241  -0.165   4.549  0.00  0.00    -0.133 NA
ATOM     10  C   UNL     1      -5.231  -0.664   5.277  0.00  0.00    +0.160 A 
ATOM     11  S   UNL     1      -6.441  -0.963   3.991  0.00  0.00    -0.024 S 
ATOM     12  O   UNL     1      -7.759  -0.697  -1.665  0.00  0.00    -0.282 OA
ENDROOT
BRANCH   1  15
ATOM     13  C   UNL     1      -1.172  -0.795   0.009  0.00  0.00    +0.162 A 
ATOM     14  C   UNL     1      -2.323  -0.026   0.055  0.00  0.00    +0.055 A 
ATOM     15  C   UNL     1      -3.557  -0.635   0.186  0.00  0.00    -0.018 A 
ATOM     16  C   UNL     1      -3.646  -2.012   0.272  0.00  0.00    +0.009 A 
ATOM     17  C   UNL     1      -2.501  -2.785   0.228  0.00  0.00    +0.049 A 
ATOM     18  C   UNL     1      -1.261  -2.181   0.091  0.00  0.00    +0.158 A 
BRANCH  13  20
ATOM     19  C   UNL     1       0.069   1.232  -0.086  0.00  0.00    +0.277 C 
ATOM     20  O   UNL     1       0.043  -0.197  -0.120  0.00  0.00    -0.491 OA
ENDBRANCH  13  20
BRANCH  18  21
ATOM     21  O   UNL     1      -0.135  -2.941   0.041  0.00  0.00    -0.503 OA
ATOM     22  H   UNL     1       0.262  -3.114   0.906  0.00  0.00    +0.292 HD
ENDBRANCH  18  21
ENDBRANCH   1  15
BRANCH  10  23
ATOM     23  S   UNL     1      -5.329  -0.947   7.013  0.00  0.00    -0.100 S 
ATOM     24  C   UNL     1      -3.721  -0.389   7.640  0.00  0.00    +0.092 C 
ENDBRANCH  10  23
BRANCH   2  25
ATOM     25  C   UNL     1      -5.077   0.465  -2.398  0.00  0.00    +0.195 C 
ATOM     26  O   UNL     1      -4.883  -0.391  -3.242  0.00  0.00    -0.287 OA
BRANCH  25  27
ATOM     27  C   UNL     1      -4.821   1.884  -2.714  0.00  0.00    +0.022 A 
ATOM     28  C   UNL     1      -4.956   2.859  -1.720  0.00  0.00    +0.015 A 
ATOM     29  C   UNL     1      -4.716   4.181  -2.019  0.00  0.00    +0.046 A 
ATOM     30  C   UNL     1      -4.340   4.548  -3.307  0.00  0.00    +0.121 A 
ATOM     31  C   UNL     1      -4.205   3.582  -4.297  0.00  0.00    +0.046 A 
ATOM     32  C   UNL     1      -4.437   2.257  -4.005  0.00  0.00    +0.015 A 
BRANCH  30  33
ATOM     33  O   UNL     1      -4.105   5.853  -3.597  0.00  0.00    -0.488 OA
BRANCH  33  34
ATOM     34  C   UNL     1      -3.722   6.160  -4.939  0.00  0.00    +0.256 C 
BRANCH  34  35
ATOM     35  C   UNL     1      -3.505   7.645  -5.072  0.00  0.00    +0.006 C 
ATOM     36  C   UNL     1      -2.452   8.099  -5.705  0.00  0.00    +0.007 C 
ENDBRANCH  34  35
ENDBRANCH  33  34
ENDBRANCH  30  33
ENDBRANCH  25  27
ENDBRANCH   2  25
TORSDOF 9
