REMARK  Name = ZINC16322270
REMARK  13 active torsions:
REMARK  status: ('A' for Active; 'I' for Inactive)
REMARK    1  A    between atoms: C_1  and  C_2
REMARK    2  A    between atoms: C_2  and  C_4
REMARK    3  A    between atoms: C_2  and  N_24
REMARK    4  A    between atoms: N_6  and  C_7
REMARK    5  A    between atoms: C_7  and  C_9
REMARK    6  A    between atoms: C_7  and  C_10
REMARK    7  A    between atoms: C_10  and  O_12
REMARK    8  A    between atoms: O_12  and  C_13
REMARK    9  A    between atoms: C_25  and  O_27
REMARK   10  A    between atoms: O_27  and  C_28
REMARK   11  A    between atoms: C_28  and  C_29
REMARK   12  A    between atoms: C_28  and  C_30
REMARK   13  A    between atoms: C_28  and  C_31
REMARK                            x       y       z     vdW  Elec       q    Type
REMARK                         _______ _______ _______ _____ _____    ______ ____
ROOT
ATOM      1  C   UNL     1      -0.013   1.086   0.008  0.00  0.00    +0.179 C 
ATOM      2  C   UNL     1      -0.729   1.579   1.267  0.00  0.00    +0.040 C 
ENDROOT
BRANCH   1   5
ATOM      3  C   UNL     1       2.331   0.926   0.654  0.00  0.00    +0.234 C 
ATOM      4  O   UNL     1       2.066  -0.095   1.254  0.00  0.00    -0.274 OA
ATOM      5  N   UNL     1       1.362   1.593  -0.002  0.00  0.00    -0.301 N 
ATOM      6  H   UNL     1       1.574   2.409  -0.482  0.00  0.00    +0.150 HD
BRANCH   3   8
ATOM      7  C   UNL     1       3.777   2.847   1.260  0.00  0.00    +0.038 C 
ATOM      8  C   UNL     1       3.745   1.447   0.644  0.00  0.00    +0.159 C 
BRANCH   8   9
ATOM      9  N   UNL     1       4.602   0.550   1.423  0.00  0.00    -0.270 N 
ATOM     10  C   UNL     1       5.924   0.492   1.168  0.00  0.00    +0.401 C 
ATOM     11  O   UNL     1       6.405   1.183   0.292  0.00  0.00    -0.226 OA
ATOM     12  H   UNL     1       4.218  -0.001   2.122  0.00  0.00    +0.153 HD
BRANCH  10  13
ATOM     13  O   UNL     1       6.712  -0.332   1.884  0.00  0.00    -0.445 OA
BRANCH  13  14
ATOM     14  C   UNL     1       8.126  -0.343   1.555  0.00  0.00    +0.107 C 
ATOM     15  C   UNL     1       8.708   1.058   1.755  0.00  0.00    +0.055 C 
ATOM     16  C   UNL     1       8.855  -1.332   2.467  0.00  0.00    +0.055 C 
ATOM     17  C   UNL     1       8.307  -0.767   0.096  0.00  0.00    +0.055 C 
ENDBRANCH  13  14
ENDBRANCH  10  13
ENDBRANCH   8   9
ENDBRANCH   3   8
ENDBRANCH   1   5
BRANCH   1  18
ATOM     18  C   UNL     1      -0.742   1.585  -1.213  0.00  0.00    +0.333 C 
ATOM     19  O   UNL     1      -0.172   2.292  -2.010  0.00  0.00    -0.248 OA
BRANCH  18  20
ATOM     20  O   UNL     1      -2.024   1.244  -1.415  0.00  0.00    -0.421 OA
BRANCH  20  21
ATOM     21  C   UNL     1      -2.622   1.729  -2.536  0.00  0.00    +0.171 A 
ATOM     22  C   UNL     1      -3.287   2.946  -2.498  0.00  0.00    +0.104 A 
ATOM     23  C   UNL     1      -3.890   3.441  -3.641  0.00  0.00    +0.083 A 
ATOM     24  C   UNL     1      -3.840   2.715  -4.819  0.00  0.00    +0.081 A 
ATOM     25  C   UNL     1      -3.183   1.498  -4.858  0.00  0.00    +0.083 A 
ATOM     26  C   UNL     1      -2.574   1.003  -3.718  0.00  0.00    +0.104 A 
ATOM     27 CL   UNL     1      -1.749  -0.524  -3.767  0.00  0.00    -0.078 Cl
ATOM     28 CL   UNL     1      -3.122   0.591  -6.337  0.00  0.00    -0.080 Cl
ATOM     29 CL   UNL     1      -4.603   3.334  -6.251  0.00  0.00    -0.080 Cl
ATOM     30 CL   UNL     1      -4.715   4.967  -3.596  0.00  0.00    -0.080 Cl
ATOM     31 CL   UNL     1      -3.356   3.852  -1.019  0.00  0.00    -0.078 Cl
ENDBRANCH  20  21
ENDBRANCH  18  20
ENDBRANCH   1  18
TORSDOF 8
