REMARK  Name = ZINC66269267
REMARK  5 active torsions:
REMARK  status: ('A' for Active; 'I' for Inactive)
REMARK    1  A    between atoms: C_1  and  C_2
REMARK    2  A    between atoms: C_2  and  C_21
REMARK    3  A    between atoms: C_3  and  C_4
REMARK    4  A    between atoms: N_6  and  N_7
REMARK    5  A    between atoms: C_8  and  C_10
REMARK                            x       y       z     vdW  Elec       q    Type
REMARK                         _______ _______ _______ _____ _____    ______ ____
ROOT
ATOM      1  C   UNL     1       0.042  -2.148   1.158  0.00  0.00    +0.253 C 
ATOM      2  O   UNL     1       0.040  -2.751   0.101  0.00  0.00    -0.269 OA
ATOM      3  N   UNL     1       0.062  -2.828   2.321  0.00  0.00    -0.231 N 
ATOM      4  H   UNL     1       0.064  -2.348   3.164  0.00  0.00    +0.173 HD
ENDROOT
BRANCH   3   5
ATOM      5  N   UNL     1       0.082  -4.229   2.314  0.00  0.00    -0.231 N 
ATOM      6  C   UNL     1       0.102  -4.909   3.477  0.00  0.00    +0.273 C 
ATOM      7  O   UNL     1       0.104  -4.309   4.531  0.00  0.00    -0.270 OA
ATOM      8  H   UNL     1       0.080  -4.710   1.471  0.00  0.00    +0.173 HD
BRANCH   6   9
ATOM      9  C   UNL     1       0.122  -6.416   3.469  0.00  0.00    +0.297 C 
ATOM     10  C   UNL     1      -1.192  -6.948   2.881  0.00  0.00    +0.283 C 
ATOM     11  O   UNL     1      -1.145  -8.379   2.901  0.00  0.00    -0.484 OA
ATOM     12  C   UNL     1      -0.716  -8.961   4.055  0.00  0.00    +0.162 A 
ATOM     13  C   UNL     1      -0.981 -10.303   4.279  0.00  0.00    +0.049 A 
ATOM     14  C   UNL     1      -0.550 -10.909   5.444  0.00  0.00    +0.004 A 
ATOM     15  C   UNL     1       0.147 -10.178   6.388  0.00  0.00    +0.004 A 
ATOM     16  C   UNL     1       0.413  -8.840   6.171  0.00  0.00    +0.049 A 
ATOM     17  C   UNL     1      -0.018  -8.226   5.005  0.00  0.00    +0.163 A 
ATOM     18  O   UNL     1       0.245  -6.905   4.809  0.00  0.00    -0.472 OA
ENDBRANCH   6   9
ENDBRANCH   3   5
BRANCH   1  21
ATOM     19  C   UNL     1      -0.018   1.503   0.010  0.00  0.00    +0.044 C 
ATOM     20  C   UNL     1       0.002  -0.004   0.002  0.00  0.00    -0.037 C 
ATOM     21  C   UNL     1       0.022  -0.684   1.166  0.00  0.00    +0.072 C 
BRANCH  20  22
ATOM     22  C   UNL     1      -0.000  -0.733  -1.276  0.00  0.00    -0.004 A 
ATOM     23  C   UNL     1      -1.165  -1.364  -1.724  0.00  0.00    +0.009 A 
ATOM     24  C   UNL     1      -1.159  -2.045  -2.922  0.00  0.00    +0.001 A 
ATOM     25  C   UNL     1      -0.004  -2.106  -3.683  0.00  0.00    +0.001 A 
ATOM     26  C   UNL     1       1.153  -1.485  -3.249  0.00  0.00    +0.020 A 
ATOM     27  C   UNL     1       1.162  -0.793  -2.054  0.00  0.00    +0.048 A 
ATOM     28 CL   UNL     1       2.613  -0.008  -1.513  0.00  0.00    -0.083 Cl
ENDBRANCH  20  22
ENDBRANCH   1  21
TORSDOF 4
