REMARK  Name = ZINC00091535
REMARK  3 active torsions:
REMARK  status: ('A' for Active; 'I' for Inactive)
REMARK    1  A    between atoms: C_4  and  C_7
REMARK    2  A    between atoms: C_17  and  N_23
REMARK    3  A    between atoms: C_18  and  C_21
REMARK                            x       y       z     vdW  Elec       q    Type
REMARK                         _______ _______ _______ _____ _____    ______ ____
ROOT
ATOM      1  C   UNL     1       3.695  -0.685  -0.038  0.00  0.00    +0.022 A 
ATOM      2  C   UNL     1       3.912  -2.022  -0.053  0.00  0.00    +0.030 A 
ATOM      3  C   UNL     1       5.275  -2.513  -0.069  0.00  0.00    +0.052 A 
ATOM      4  C   UNL     1       5.759  -3.849  -0.085  0.00  0.00    +0.167 A 
ATOM      5  N   UNL     1       7.064  -4.063  -0.097  0.00  0.00    -0.216 NA
ATOM      6  C   UNL     1       7.939  -3.073  -0.094  0.00  0.00    +0.224 A 
ATOM      7  N   UNL     1       7.553  -1.812  -0.079  0.00  0.00    -0.228 NA
ATOM      8  C   UNL     1       6.271  -1.507  -0.066  0.00  0.00    +0.114 A 
ATOM      9  S   UNL     1       5.341   0.002  -0.052  0.00  0.00    -0.069 S 
ATOM     10  N   UNL     1       4.870  -4.921  -0.088  0.00  0.00    -0.199 N 
ATOM     11  C   UNL     1       5.210  -6.237  -0.098  0.00  0.00    +0.139 A 
ATOM     12  C   UNL     1       4.022  -6.963  -0.098  0.00  0.00    +0.111 A 
ATOM     13  C   UNL     1       2.963  -6.026  -0.088  0.00  0.00    +0.155 A 
ATOM     14  N   UNL     1       3.474  -4.827  -0.076  0.00  0.00    -0.170 NA
ENDROOT
BRANCH   1  18
ATOM     15  C   UNL     1      -0.017   1.379   0.010  0.00  0.00    +0.000 A 
ATOM     16  C   UNL     1       1.168   2.093   0.002  0.00  0.00    +0.001 A 
ATOM     17  C   UNL     1       2.377   1.429  -0.013  0.00  0.00    +0.009 A 
ATOM     18  C   UNL     1       2.403   0.034  -0.021  0.00  0.00    -0.011 A 
ATOM     19  C   UNL     1       1.204  -0.681  -0.013  0.00  0.00    +0.009 A 
ATOM     20  C   UNL     1       0.002  -0.004   0.002  0.00  0.00    +0.001 A 
ENDBRANCH   1  18
BRANCH  11  21
ATOM     21  N   UNL     1       6.489  -6.755  -0.106  0.00  0.00    -0.342 N 
ATOM     22  H   UNL     1       7.254  -6.159  -0.106  0.00  0.00    +0.144 HD
ATOM     23  H   UNL     1       6.623  -7.716  -0.113  0.00  0.00    +0.144 HD
ENDBRANCH  11  21
BRANCH  12  24
ATOM     24  C   UNL     1       3.896  -8.390  -0.107  0.00  0.00    +0.104 C 
ATOM     25  N   UNL     1       3.797  -9.521  -0.114  0.00  0.00    -0.191 NA
ENDBRANCH  12  24
TORSDOF 3
