REMARK  Name = ZINC26687678
REMARK  4 active torsions:
REMARK  status: ('A' for Active; 'I' for Inactive)
REMARK    1  A    between atoms: C_1  and  O_2
REMARK    2  A    between atoms: O_2  and  C_3
REMARK    3  A    between atoms: C_6  and  C_9
REMARK    4  A    between atoms: C_17  and  C_18
REMARK                            x       y       z     vdW  Elec       q    Type
REMARK                         _______ _______ _______ _____ _____    ______ ____
ROOT
ATOM      1  C   UNL     1      -6.218  -0.187  -0.369  0.00  0.00    +0.183 A 
ATOM      2  N   UNL     1      -6.231   1.154  -0.380  0.00  0.00    -0.200 NA
ATOM      3  C   UNL     1      -5.011   1.597  -0.285  0.00  0.00    +0.200 A 
ATOM      4  N   UNL     1      -4.142   0.543  -0.206  0.00  0.00    -0.169 N 
ATOM      5  N   UNL     1      -4.979  -0.604  -0.265  0.00  0.00    -0.141 NA
ATOM      6  C   UNL     1      -2.833   0.803  -0.102  0.00  0.00    +0.288 A 
ATOM      7  O   UNL     1      -2.027  -0.107  -0.029  0.00  0.00    -0.265 OA
ATOM      8  C   UNL     1      -2.397   2.155  -0.077  0.00  0.00    +0.083 A 
ATOM      9  C   UNL     1      -1.131   2.656   0.022  0.00  0.00    +0.035 C 
ATOM     10  S   UNL     1      -3.954   3.024  -0.202  0.00  0.00    -0.044 S 
ENDROOT
BRANCH   1  14
ATOM     11  C   UNL     1      -9.648  -2.690  -0.627  0.00  0.00    +0.120 A 
ATOM     12  C   UNL     1      -9.794  -1.310  -0.650  0.00  0.00    +0.046 A 
ATOM     13  C   UNL     1      -8.684  -0.496  -0.566  0.00  0.00    +0.015 A 
ATOM     14  C   UNL     1      -7.414  -1.060  -0.459  0.00  0.00    +0.021 A 
ATOM     15  C   UNL     1      -7.270  -2.446  -0.442  0.00  0.00    +0.015 A 
ATOM     16  C   UNL     1      -8.384  -3.255  -0.520  0.00  0.00    +0.046 A 
BRANCH  11  18
ATOM     17  C   UNL     1     -10.520  -4.901  -0.680  0.00  0.00    +0.277 C 
ATOM     18  O   UNL     1     -10.743  -3.489  -0.709  0.00  0.00    -0.495 OA
ENDBRANCH  11  18
ENDBRANCH   1  14
BRANCH   9  19
ATOM     19  C   UNL     1      -0.019   1.787  -0.059  0.00  0.00    +0.013 A 
ATOM     20  C   UNL     1       1.209   1.871   0.589  0.00  0.00    +0.015 A 
ATOM     21  C   UNL     1       2.123   0.883   0.322  0.00  0.00    +0.008 A 
ATOM     22  C   UNL     1       1.792  -0.110  -0.546  0.00  0.00    +0.046 A 
ATOM     23  S   UNL     1       0.178   0.301  -1.026  0.00  0.00    -0.097 S 
ENDBRANCH   9  19
TORSDOF 3
