REMARK  Name = ZINC13482490
REMARK  11 active torsions:
REMARK  status: ('A' for Active; 'I' for Inactive)
REMARK    1  A    between atoms: C_1  and  C_2
REMARK    2  A    between atoms: C_2  and  C_3
REMARK    3  A    between atoms: C_2  and  C_4
REMARK    4  A    between atoms: C_2  and  C_5
REMARK    5  A    between atoms: N_7  and  C_8
REMARK    6  A    between atoms: C_8  and  C_10
REMARK    7  A    between atoms: C_8  and  N_14
REMARK    8  A    between atoms: N_14  and  C_15
REMARK    9  A    between atoms: C_15  and  N_16
REMARK   10  A    between atoms: N_16  and  C_17
REMARK   11  A    between atoms: C_18  and  C_26
REMARK                            x       y       z     vdW  Elec       q    Type
REMARK                         _______ _______ _______ _____ _____    ______ ____
ROOT
ATOM      1  N   UNL     1       0.545  -2.793  -3.621  0.00  0.00    -0.305 N 
ATOM      2  H   UNL     1       0.123  -3.653  -3.471  0.00  0.00    +0.150 HD
ENDROOT
BRANCH   1   3
ATOM      3  C   UNL     1       0.224  -2.064  -4.708  0.00  0.00    +0.136 C 
ATOM      4  S   UNL     1       0.969  -0.546  -4.973  0.00  0.00    -0.019 S 
BRANCH   3   5
ATOM      5  N   UNL     1      -0.684  -2.532  -5.588  0.00  0.00    -0.290 N 
ATOM      6  H   UNL     1      -1.107  -3.392  -5.438  0.00  0.00    +0.154 HD
BRANCH   5   7
ATOM      7  C   UNL     1      -1.016  -1.782  -6.707  0.00  0.00    +0.089 A 
ATOM      8  C   UNL     1      -1.923  -2.098  -7.706  0.00  0.00    +0.084 A 
ATOM      9  C   UNL     1      -2.089  -1.136  -8.781  0.00  0.00    -0.018 A 
ATOM     10  C   UNL     1      -1.317  -0.033  -8.660  0.00  0.00    -0.004 A 
ATOM     11  S   UNL     1      -0.414  -0.281  -7.159  0.00  0.00    -0.077 S 
ATOM     12  C   UNL     1      -1.259   1.131  -9.599  0.00  0.00    +0.043 C 
ATOM     13  C   UNL     1      -1.929   0.720 -10.919  0.00  0.00    +0.005 C 
ATOM     14  C   UNL     1      -3.272   0.054 -10.607  0.00  0.00    +0.005 C 
ATOM     15  C   UNL     1      -3.038  -1.312  -9.957  0.00  0.00    +0.037 C 
BRANCH   8  16
ATOM     16  C   UNL     1      -2.664  -3.323  -7.680  0.00  0.00    +0.102 C 
ATOM     17  N   UNL     1      -3.253  -4.294  -7.659  0.00  0.00    -0.191 NA
ENDBRANCH   8  16
ENDBRANCH   5   7
ENDBRANCH   3   5
ENDBRANCH   1   3
BRANCH   1  18
ATOM     18  C   UNL     1       1.532  -2.285  -2.665  0.00  0.00    +0.211 C 
BRANCH  18  21
ATOM     19  C   UNL     1       0.707  -0.490  -1.238  0.00  0.00    +0.220 C 
ATOM     20  O   UNL     1       1.150   0.308  -2.036  0.00  0.00    -0.275 OA
ATOM     21  N   UNL     1       0.847  -1.812  -1.460  0.00  0.00    -0.293 N 
ATOM     22  H   UNL     1       0.493  -2.451  -0.821  0.00  0.00    +0.151 HD
BRANCH  19  24
ATOM     23  C   UNL     1      -0.019   1.526   0.010  0.00  0.00    +0.020 C 
ATOM     24  C   UNL     1       0.002  -0.004   0.002  0.00  0.00    +0.039 C 
ATOM     25  C   UNL     1       0.742  -0.511   1.242  0.00  0.00    +0.020 C 
ATOM     26  C   UNL     1      -1.433  -0.534   0.013  0.00  0.00    +0.020 C 
ENDBRANCH  19  24
ENDBRANCH  18  21
BRANCH  18  27
ATOM     27  C   UNL     1       2.505  -3.405  -2.292  0.00  0.00    +0.225 C 
ATOM     28 CL   UNL     1       1.592  -4.770  -1.546  0.00  0.00    -0.080 Cl
ATOM     29 CL   UNL     1       3.349  -3.987  -3.776  0.00  0.00    -0.080 Cl
ATOM     30 CL   UNL     1       3.720  -2.780  -1.116  0.00  0.00    -0.080 Cl
ENDBRANCH  18  27
ENDBRANCH   1  18
TORSDOF 8
