REMARK  Name = ZINC00907528
REMARK  6 active torsions:
REMARK  status: ('A' for Active; 'I' for Inactive)
REMARK    1  A    between atoms: C_1  and  O_2
REMARK    2  A    between atoms: O_2  and  C_3
REMARK    3  A    between atoms: C_8  and  N_9
REMARK    4  A    between atoms: C_10  and  C_12
REMARK    5  A    between atoms: C_12  and  S_13
REMARK    6  A    between atoms: S_13  and  C_14
REMARK                            x       y       z     vdW  Elec       q    Type
REMARK                         _______ _______ _______ _____ _____    ______ ____
ROOT
ATOM      1  C   UNL     1       3.765   3.030   0.015  0.00  0.00    +0.170 A 
ATOM      2  N   UNL     1       4.377   1.814   0.007  0.00  0.00    -0.301 N 
ATOM      3  H   UNL     1       5.377   1.783  -0.008  0.00  0.00    +0.171 HD
ATOM      4  C   UNL     1       3.695   0.645   0.019  0.00  0.00    +0.261 A 
ATOM      5  O   UNL     1       4.260  -0.435   0.013  0.00  0.00    -0.267 OA
ATOM      6  C   UNL     1       2.266   0.755   0.040  0.00  0.00    +0.075 A 
ATOM      7  C   UNL     1       1.310  -0.341   0.055  0.00  0.00    -0.023 A 
ATOM      8  C   UNL     1       0.001  -0.003   0.073  0.00  0.00    -0.004 A 
ATOM      9  S   UNL     1      -0.023   1.772   0.071  0.00  0.00    -0.073 S 
ATOM     10  C   UNL     1       1.718   2.058   0.046  0.00  0.00    +0.117 A 
ATOM     11  N   UNL     1       2.446   3.168   0.034  0.00  0.00    -0.216 NA
ATOM     12  C   UNL     1      -1.175  -0.931   0.089  0.00  0.00    +0.043 C 
ATOM     13  C   UNL     1      -0.691  -2.337  -0.290  0.00  0.00    +0.005 C 
ATOM     14  C   UNL     1       0.560  -2.663   0.532  0.00  0.00    +0.005 C 
ATOM     15  C   UNL     1       1.733  -1.807   0.052  0.00  0.00    +0.037 C 
ENDROOT
BRANCH   1  16
ATOM     16  S   UNL     1       4.766   4.480  -0.001  0.00  0.00    -0.078 S 
BRANCH  16  17
ATOM     17  C   UNL     1       3.478   5.752   0.016  0.00  0.00    +0.173 C 
BRANCH  17  19
ATOM     18  N   UNL     1       3.348   8.222   0.016  0.00  0.00    -0.282 N 
ATOM     19  C   UNL     1       4.118   7.116   0.006  0.00  0.00    +0.228 C 
ATOM     20  O   UNL     1       5.326   7.218  -0.012  0.00  0.00    -0.275 OA
ATOM     21  H   UNL     1       2.383   8.142  -0.051  0.00  0.00    +0.155 HD
BRANCH  18  27
ATOM     22  C   UNL     1       3.277  10.612  -0.361  0.00  0.00    +0.141 A 
ATOM     23  C   UNL     1       3.867  11.861  -0.253  0.00  0.00    +0.047 A 
ATOM     24  C   UNL     1       5.112  11.988   0.336  0.00  0.00    +0.004 A 
ATOM     25  C   UNL     1       5.771  10.872   0.817  0.00  0.00    +0.002 A 
ATOM     26  C   UNL     1       5.186   9.623   0.717  0.00  0.00    +0.027 A 
ATOM     27  C   UNL     1       3.940   9.487   0.123  0.00  0.00    +0.076 A 
BRANCH  22  29
ATOM     28  C   UNL     1       1.432  11.682  -1.413  0.00  0.00    +0.277 C 
ATOM     29  O   UNL     1       2.052  10.485  -0.939  0.00  0.00    -0.493 OA
ENDBRANCH  22  29
ENDBRANCH  18  27
ENDBRANCH  17  19
ENDBRANCH  16  17
ENDBRANCH   1  16
TORSDOF 5
