REMARK  Name = ZINC06755168
REMARK  9 active torsions:
REMARK  status: ('A' for Active; 'I' for Inactive)
REMARK    1  A    between atoms: C_1  and  O_2
REMARK    2  A    between atoms: O_2  and  C_3
REMARK    3  A    between atoms: C_6  and  C_11
REMARK    4  A    between atoms: C_8  and  O_9
REMARK    5  A    between atoms: O_9  and  C_10
REMARK    6  A    between atoms: C_12  and  C_20
REMARK    7  A    between atoms: C_15  and  C_16
REMARK    8  A    between atoms: C_23  and  O_27
REMARK    9  A    between atoms: C_25  and  O_26
REMARK                            x       y       z     vdW  Elec       q    Type
REMARK                         _______ _______ _______ _____ _____    ______ ____
ROOT
ATOM      1  C   UNL     1       2.566  -2.379  -4.406  0.00  0.00    +0.061 A 
ATOM      2  C   UNL     1       2.031  -2.511  -5.676  0.00  0.00    +0.179 A 
ATOM      3  O   UNL     1       2.853  -3.316  -6.376  0.00  0.00    -0.353 OA
ATOM      4  N   UNL     1       3.922  -3.697  -5.531  0.00  0.00    -0.073 NA
ATOM      5  C   UNL     1       3.756  -3.139  -4.367  0.00  0.00    +0.194 A 
ENDROOT
BRANCH   1   9
ATOM      6  C   UNL     1       0.932  -0.087  -1.214  0.00  0.00    +0.162 A 
ATOM      7  C   UNL     1       1.403   0.548  -2.353  0.00  0.00    +0.050 A 
ATOM      8  C   UNL     1       1.934  -0.193  -3.390  0.00  0.00    +0.012 A 
ATOM      9  C   UNL     1       1.997  -1.583  -3.293  0.00  0.00    -0.008 A 
ATOM     10  C   UNL     1       1.523  -2.221  -2.148  0.00  0.00    +0.058 A 
ATOM     11  C   UNL     1       0.998  -1.474  -1.109  0.00  0.00    +0.162 A 
BRANCH   6  13
ATOM     12  C   UNL     1       0.372   2.065  -0.370  0.00  0.00    +0.277 C 
ATOM     13  O   UNL     1       0.409   0.647  -0.196  0.00  0.00    -0.491 OA
ENDBRANCH   6  13
BRANCH  11  14
ATOM     14  O   UNL     1       0.540  -2.093   0.011  0.00  0.00    -0.491 OA
ATOM     15  C   UNL     1       0.639  -3.518   0.051  0.00  0.00    +0.277 C 
ENDBRANCH  11  14
ENDBRANCH   1   9
BRANCH   2  16
ATOM     16  C   UNL     1       0.792  -1.886  -6.171  0.00  0.00    +0.062 A 
ATOM     17  C   UNL     1      -0.374  -1.935  -5.401  0.00  0.00    +0.019 A 
ATOM     18  C   UNL     1      -1.530  -1.349  -5.867  0.00  0.00    +0.046 A 
ATOM     19  C   UNL     1      -1.543  -0.710  -7.102  0.00  0.00    +0.120 A 
ATOM     20  C   UNL     1      -0.391  -0.657  -7.873  0.00  0.00    +0.091 A 
ATOM     21  C   UNL     1       0.779  -1.236  -7.413  0.00  0.00    +0.131 A 
BRANCH  21  22
ATOM     22  O   UNL     1       1.908  -1.179  -8.164  0.00  0.00    -0.506 OA
ATOM     23  H   UNL     1       2.011  -1.920  -8.776  0.00  0.00    +0.292 HD
ENDBRANCH  21  22
BRANCH  19  24
ATOM     24  O   UNL     1      -2.687  -0.136  -7.554  0.00  0.00    -0.507 OA
ATOM     25  H   UNL     1      -2.793   0.789  -7.295  0.00  0.00    +0.292 HD
ENDBRANCH  19  24
ENDBRANCH   2  16
BRANCH   5  26
ATOM     26  C   UNL     1       4.674  -3.281  -3.180  0.00  0.00    +0.438 C 
ATOM     27  F   UNL     1       4.273  -4.378  -2.410  0.00  0.00    -0.164 F 
ATOM     28  F   UNL     1       5.985  -3.479  -3.626  0.00  0.00    -0.164 F 
ATOM     29  F   UNL     1       4.615  -2.119  -2.403  0.00  0.00    -0.164 F 
ENDBRANCH   5  26
TORSDOF 7
