REMARK  Name = ZINC20437056
REMARK  5 active torsions:
REMARK  status: ('A' for Active; 'I' for Inactive)
REMARK    1  A    between atoms: C_4  and  N_11
REMARK    2  A    between atoms: C_5  and  C_7
REMARK    3  A    between atoms: C_12  and  C_14
REMARK    4  A    between atoms: C_14  and  N_15
REMARK    5  A    between atoms: N_15  and  C_16
REMARK                            x       y       z     vdW  Elec       q    Type
REMARK                         _______ _______ _______ _____ _____    ______ ____
ROOT
ATOM      1  N   UNL     1      -1.900  -2.920  -1.276  0.00  0.00    -0.270 N 
ATOM      2  C   UNL     1      -0.959  -1.981  -0.918  0.00  0.00    +0.136 C 
ATOM      3  N   UNL     1      -1.175  -0.748  -0.471  0.00  0.00    -0.362 N 
ATOM      4  C   UNL     1      -0.026   0.002  -0.014  0.00  0.00    +0.117 C 
ATOM      5  C   UNL     1      -0.054   1.538  -0.008  0.00  0.00    +0.191 C 
ATOM      6  S   UNL     1       1.762   1.904  -0.034  0.00  0.00    -0.028 S 
ATOM      7  O   UNL     1       2.055   2.718  -1.161  0.00  0.00    -0.174 OA
ATOM      8  O   UNL     1       2.168   2.326   1.261  0.00  0.00    -0.174 OA
ATOM      9  C   UNL     1       2.403   0.186  -0.342  0.00  0.00    +0.182 C 
ATOM     10  C   UNL     1       1.161  -0.382  -0.978  0.00  0.00    +0.099 C 
ATOM     11  S   UNL     1       0.834  -2.157  -0.954  0.00  0.00    -0.085 S 
ATOM     12  H   UNL     1      -2.195  -0.338  -0.460  0.00  0.00    +0.162 HD
ENDROOT
BRANCH   1  13
ATOM     13  C   UNL     1      -3.263  -2.614  -1.185  0.00  0.00    +0.071 A 
ATOM     14  C   UNL     1      -3.923  -2.049  -2.269  0.00  0.00    +0.026 A 
ATOM     15  C   UNL     1      -5.268  -1.748  -2.176  0.00  0.00    +0.002 A 
ATOM     16  C   UNL     1      -5.959  -2.009  -1.007  0.00  0.00    +0.003 A 
ATOM     17  C   UNL     1      -5.306  -2.571   0.075  0.00  0.00    +0.040 A 
ATOM     18  C   UNL     1      -3.961  -2.879  -0.012  0.00  0.00    +0.145 A 
ATOM     19  F   UNL     1      -3.324  -3.433   1.043  0.00  0.00    -0.204 F 
ENDBRANCH   1  13
BRANCH   1  20
ATOM     20  C   UNL     1      -1.476  -4.239  -1.751  0.00  0.00    +0.208 C 
BRANCH  20  22
ATOM     21  N   UNL     1      -0.971  -6.456  -0.778  0.00  0.00    -0.284 N 
ATOM     22  C   UNL     1      -1.351  -5.178  -0.580  0.00  0.00    +0.235 C 
ATOM     23  O   UNL     1      -1.593  -4.785   0.542  0.00  0.00    -0.274 OA
ATOM     24  H   UNL     1      -0.823  -6.833  -1.801  0.00  0.00    +0.155 HD
BRANCH  21  28
ATOM     25  C   UNL     1      -0.353  -8.976   2.482  0.00  0.00    +0.001 A 
ATOM     26  C   UNL     1      -1.351  -8.019   2.528  0.00  0.00    +0.002 A 
ATOM     27  C   UNL     1      -1.555  -7.179   1.452  0.00  0.00    +0.024 A 
ATOM     28  C   UNL     1      -0.763  -7.303   0.317  0.00  0.00    +0.045 A 
ATOM     29  C   UNL     1       0.238  -8.264   0.273  0.00  0.00    +0.076 A 
ATOM     30  C   UNL     1       0.440  -9.098   1.356  0.00  0.00    +0.014 A 
BRANCH  29  31
ATOM     31  C   UNL     1       1.103  -8.397  -0.953  0.00  0.00    +0.419 C 
ATOM     32  F   UNL     1       2.031  -9.426  -0.760  0.00  0.00    -0.166 F 
ATOM     33  F   UNL     1       0.301  -8.695  -2.060  0.00  0.00    -0.166 F 
ATOM     34  F   UNL     1       1.780  -7.194  -1.179  0.00  0.00    -0.166 F 
ENDBRANCH  29  31
ENDBRANCH  21  28
ENDBRANCH  20  22
ENDBRANCH   1  20
TORSDOF 5
