REMARK  Name = ZINC02784791
REMARK  5 active torsions:
REMARK  status: ('A' for Active; 'I' for Inactive)
REMARK    1  A    between atoms: C_1  and  C_2
REMARK    2  A    between atoms: C_3  and  C_21
REMARK    3  A    between atoms: C_4  and  C_7
REMARK    4  A    between atoms: N_9  and  N_10
REMARK    5  A    between atoms: C_11  and  C_12
REMARK                            x       y       z     vdW  Elec       q    Type
REMARK                         _______ _______ _______ _____ _____    ______ ____
ROOT
ATOM      1  C   UNL     1      -0.872   3.122  -2.276  0.00  0.00    +0.264 C 
ATOM      2  O   UNL     1       0.201   2.551  -2.344  0.00  0.00    -0.268 OA
ATOM      3  N   UNL     1      -1.282   3.908  -3.292  0.00  0.00    -0.203 N 
ATOM      4  H   UNL     1      -2.137   4.363  -3.238  0.00  0.00    +0.178 HD
ENDROOT
BRANCH   1   8
ATOM      5  C   UNL     1      -2.011   1.258   2.353  0.00  0.00    +0.052 C 
ATOM      6  C   UNL     1      -2.167   2.036   1.072  0.00  0.00    -0.005 A 
ATOM      7  C   UNL     1      -1.309   2.116   0.020  0.00  0.00    +0.004 A 
ATOM      8  C   UNL     1      -1.721   2.954  -1.088  0.00  0.00    +0.053 A 
ATOM      9  C   UNL     1      -2.933   3.579  -0.985  0.00  0.00    +0.059 A 
ATOM     10  S   UNL     1      -3.520   3.077   0.564  0.00  0.00    -0.100 S 
BRANCH   7  11
ATOM     11  C   UNL     1      -0.017   1.390   0.010  0.00  0.00    -0.016 A 
ATOM     12  C   UNL     1       1.184   2.098   0.002  0.00  0.00    +0.008 A 
ATOM     13  C   UNL     1       2.384   1.416  -0.013  0.00  0.00    +0.001 A 
ATOM     14  C   UNL     1       2.396   0.033  -0.021  0.00  0.00    +0.000 A 
ATOM     15  C   UNL     1       1.208  -0.675  -0.013  0.00  0.00    +0.001 A 
ATOM     16  C   UNL     1       0.002  -0.004   0.002  0.00  0.00    +0.008 A 
ENDBRANCH   7  11
ENDBRANCH   1   8
BRANCH   3  17
ATOM     17  N   UNL     1      -0.473   4.068  -4.424  0.00  0.00    -0.187 NA
ATOM     18  C   UNL     1      -0.867   4.825  -5.402  0.00  0.00    +0.138 C 
BRANCH  18  19
ATOM     19  C   UNL     1      -0.016   4.993  -6.594  0.00  0.00    -0.002 A 
ATOM     20  C   UNL     1       1.218   4.343  -6.671  0.00  0.00    +0.013 A 
ATOM     21  C   UNL     1       2.010   4.498  -7.789  0.00  0.00    +0.050 A 
ATOM     22  C   UNL     1       1.591   5.307  -8.835  0.00  0.00    +0.166 A 
ATOM     23  C   UNL     1       0.362   5.963  -8.763  0.00  0.00    +0.167 A 
ATOM     24  C   UNL     1      -0.439   5.808  -7.647  0.00  0.00    +0.059 A 
ATOM     25  O   UNL     1       0.187   6.687  -9.907  0.00  0.00    -0.453 OA
ATOM     26  C   UNL     1       1.128   6.145 -10.852  0.00  0.00    +0.466 C 
ATOM     27  O   UNL     1       2.183   5.622 -10.024  0.00  0.00    -0.453 OA
ENDBRANCH  18  19
ENDBRANCH   3  17
TORSDOF 4
