REMARK  Name = ZINC50659877
REMARK  6 active torsions:
REMARK  status: ('A' for Active; 'I' for Inactive)
REMARK    1  A    between atoms: C_1  and  C_2
REMARK    2  A    between atoms: C_2  and  N_3
REMARK    3  A    between atoms: C_5  and  S_10
REMARK    4  A    between atoms: S_10  and  N_13
REMARK    5  A    between atoms: N_13  and  C_14
REMARK    6  A    between atoms: C_19  and  C_20
REMARK                            x       y       z     vdW  Elec       q    Type
REMARK                         _______ _______ _______ _____ _____    ______ ____
ROOT
ATOM      1  S   UNL     1      -4.273  -1.233   0.024  0.00  0.00    +0.095 S 
ATOM      2  O   UNL     1      -4.020  -0.279  -0.998  0.00  0.00    -0.148 OA
ATOM      3  O   UNL     1      -5.454  -2.023   0.053  0.00  0.00    -0.148 OA
ENDROOT
BRANCH   1   6
ATOM      4  N   UNL     1      -1.372  -0.511   0.012  0.00  0.00    -0.329 N 
ATOM      5  C   UNL     1      -1.608  -1.881   0.007  0.00  0.00    +0.123 A 
ATOM      6  C   UNL     1      -2.916  -2.356   0.011  0.00  0.00    +0.148 A 
ATOM      7  C   UNL     1      -3.135  -3.721   0.006  0.00  0.00    +0.034 A 
ATOM      8  C   UNL     1      -2.036  -4.570  -0.003  0.00  0.00    +0.019 A 
ATOM      9  C   UNL     1      -0.765  -4.030  -0.007  0.00  0.00    +0.084 A 
ATOM     10  N   UNL     1      -0.586  -2.722  -0.007  0.00  0.00    -0.348 N 
ATOM     11  H   UNL     1      -2.118   0.109   0.023  0.00  0.00    +0.147 HD
ATOM     12  H   UNL     1       0.318  -2.369  -0.014  0.00  0.00    +0.167 HD
BRANCH   4  14
ATOM     13  C   UNL     1      -0.019   1.526   0.010  0.00  0.00    +0.024 C 
ATOM     14  C   UNL     1       0.002  -0.004   0.002  0.00  0.00    +0.099 C 
ENDBRANCH   4  14
ENDBRANCH   1   6
BRANCH   1  15
ATOM     15  N   UNL     1      -4.217  -0.413   1.461  0.00  0.00    -0.097 NA
BRANCH  15  16
ATOM     16  C   UNL     1      -5.182   0.555   1.752  0.00  0.00    +0.078 A 
ATOM     17  C   UNL     1      -6.192   0.826   0.838  0.00  0.00    +0.042 A 
ATOM     18  C   UNL     1      -7.146   1.783   1.128  0.00  0.00    +0.020 A 
ATOM     19  C   UNL     1      -7.093   2.471   2.328  0.00  0.00    +0.015 A 
ATOM     20  C   UNL     1      -6.089   2.203   3.239  0.00  0.00    +0.006 A 
ATOM     21  C   UNL     1      -5.136   1.243   2.957  0.00  0.00    -0.026 A 
ATOM     22  C   UNL     1      -4.046   0.948   3.954  0.00  0.00    +0.046 C 
ATOM     23 BR   UNL     1      -8.522   2.154  -0.115  0.00  0.00    -0.050 Br
ENDBRANCH  15  16
ENDBRANCH   1  15
TORSDOF 4
