REMARK  Name = ZINC36351679
REMARK  9 active torsions:
REMARK  status: ('A' for Active; 'I' for Inactive)
REMARK    1  A    between atoms: C_1  and  N_2
REMARK    2  A    between atoms: N_2  and  C_3
REMARK    3  A    between atoms: C_14  and  N_17
REMARK    4  A    between atoms: N_17  and  C_18
REMARK    5  A    between atoms: C_18  and  C_19
REMARK    6  A    between atoms: C_19  and  C_20
REMARK    7  A    between atoms: C_20  and  C_21
REMARK    8  A    between atoms: C_27  and  C_29
REMARK    9  A    between atoms: C_32  and  C_35
REMARK                            x       y       z     vdW  Elec       q    Type
REMARK                         _______ _______ _______ _____ _____    ______ ____
ROOT
ATOM      1  C   UNL     1       0.118  -0.738   1.256  0.00  0.00    +0.095 C 
ATOM      2  C   UNL     1       1.405  -0.293   2.000  0.00  0.00    +0.043 C 
ATOM      3  C   UNL     1       1.044  -0.620   3.470  0.00  0.00    +0.111 C 
ATOM      4  N   UNL     1      -0.389  -0.296   3.588  0.00  0.00    -0.284 N 
ATOM      5  C   UNL     1      -1.004  -0.376   2.252  0.00  0.00    +0.131 C 
ATOM      6  C   UNL     1      -1.032   0.018   4.730  0.00  0.00    +0.305 C 
ATOM      7  O   UNL     1      -0.407   0.139   5.766  0.00  0.00    -0.252 OA
ATOM      8  N   UNL     1      -2.368   0.199   4.724  0.00  0.00    -0.287 N 
ATOM      9  C   UNL     1      -3.230   0.178   3.534  0.00  0.00    +0.108 C 
ATOM     10  C   UNL     1      -4.679   0.401   4.013  0.00  0.00    +0.005 C 
ATOM     11  C   UNL     1      -4.623  -0.030   5.503  0.00  0.00    -0.053 C 
ATOM     12  C   UNL     1      -3.207   0.442   5.912  0.00  0.00    +0.093 C 
ENDROOT
BRANCH   1  14
ATOM     13  C   UNL     1      -0.072   1.470   0.020  0.00  0.00    +0.132 C 
ATOM     14  N   UNL     1      -0.041   0.005   0.004  0.00  0.00    -0.296 N 
ATOM     15  C   UNL     1      -0.157  -0.659  -1.163  0.00  0.00    +0.247 C 
ATOM     16  O   UNL     1      -0.238  -1.872  -1.167  0.00  0.00    -0.270 OA
BRANCH  15  17
ATOM     17  C   UNL     1      -0.187   0.088  -2.438  0.00  0.00    +0.037 A 
ATOM     18  C   UNL     1       0.581   1.246  -2.588  0.00  0.00    +0.013 A 
ATOM     19  C   UNL     1       0.553   1.940  -3.776  0.00  0.00    +0.009 A 
ATOM     20  C   UNL     1      -0.241   1.488  -4.830  0.00  0.00    -0.016 A 
ATOM     21  C   UNL     1      -1.008   0.333  -4.681  0.00  0.00    +0.009 A 
ATOM     22  C   UNL     1      -0.978  -0.366  -3.496  0.00  0.00    +0.013 A 
BRANCH  20  23
ATOM     23  C   UNL     1      -0.271   2.238  -6.109  0.00  0.00    +0.000 A 
ATOM     24  C   UNL     1      -1.067   1.799  -7.172  0.00  0.00    +0.011 A 
ATOM     25  C   UNL     1      -1.060   2.533  -8.345  0.00  0.00    +0.020 A 
ATOM     26  C   UNL     1      -0.272   3.667  -8.428  0.00  0.00    +0.111 A 
ATOM     27  N   UNL     1       0.469   4.057  -7.409  0.00  0.00    -0.263 NA
ATOM     28  C   UNL     1       0.490   3.394  -6.271  0.00  0.00    +0.119 A 
ENDBRANCH  20  23
ENDBRANCH  15  17
ENDBRANCH   1  14
BRANCH  11  29
ATOM     29  N   UNL     1      -5.657   0.655   6.289  0.00  0.00    +0.382 N 
ATOM     30  H   UNL     1      -5.533   0.441   7.267  0.00  0.00    -0.085 HD
ATOM     31  H   UNL     1      -5.580   1.652   6.151  0.00  0.00    -0.085 HD
BRANCH  29  32
ATOM     32  C   UNL     1      -6.984   0.201   5.853  0.00  0.00    -0.082 C 
BRANCH  32  33
ATOM     33  C   UNL     1      -8.062   0.915   6.672  0.00  0.00    -0.014 C 
BRANCH  33  34
ATOM     34  C   UNL     1      -9.444   0.442   6.218  0.00  0.00    +0.033 C 
BRANCH  34  35
ATOM     35  C   UNL     1     -10.506   1.145   7.025  0.00  0.00    -0.047 A 
ATOM     36  C   UNL     1     -10.954   0.590   8.209  0.00  0.00    +0.003 A 
ATOM     37  C   UNL     1     -11.928   1.235   8.949  0.00  0.00    +0.000 A 
ATOM     38  C   UNL     1     -12.452   2.434   8.505  0.00  0.00    +0.000 A 
ATOM     39  C   UNL     1     -12.003   2.989   7.321  0.00  0.00    +0.000 A 
ATOM     40  C   UNL     1     -11.027   2.347   6.583  0.00  0.00    +0.003 A 
ENDBRANCH  34  35
ENDBRANCH  33  34
ENDBRANCH  32  33
ENDBRANCH  29  32
ENDBRANCH  11  29
TORSDOF 8
