REMARK  Name = ZINC17084878
REMARK  4 active torsions:
REMARK  status: ('A' for Active; 'I' for Inactive)
REMARK    1  A    between atoms: C_1  and  O_2
REMARK    2  A    between atoms: O_2  and  C_3
REMARK    3  A    between atoms: C_6  and  C_12
REMARK    4  A    between atoms: C_8  and  N_9
REMARK                            x       y       z     vdW  Elec       q    Type
REMARK                         _______ _______ _______ _____ _____    ______ ____
ROOT
ATOM      1  C   UNL     1      -1.293  -0.774   0.010  0.00  0.00    +0.187 C 
ATOM      2  N   UNL     1      -2.320  -0.011   0.742  0.00  0.00    -0.322 N 
ATOM      3  C   UNL     1      -2.227   0.046   2.133  0.00  0.00    +0.038 A 
ATOM      4  C   UNL     1      -2.777   1.079   2.856  0.00  0.00    +0.023 A 
ATOM      5  C   UNL     1      -2.671   1.100   4.246  0.00  0.00    +0.002 A 
ATOM      6  C   UNL     1      -2.023   0.111   4.923  0.00  0.00    +0.009 A 
ATOM      7  C   UNL     1      -1.445  -0.960   4.219  0.00  0.00    -0.014 A 
ATOM      8  C   UNL     1      -1.551  -0.991   2.810  0.00  0.00    +0.024 A 
ATOM      9  C   UNL     1      -0.977  -2.056   2.086  0.00  0.00    +0.038 A 
ATOM     10  C   UNL     1      -0.316  -3.054   2.762  0.00  0.00    +0.023 A 
ATOM     11  C   UNL     1      -0.215  -3.016   4.152  0.00  0.00    +0.002 A 
ATOM     12  C   UNL     1      -0.762  -1.999   4.875  0.00  0.00    +0.009 A 
ATOM     13  N   UNL     1      -1.100  -2.064   0.695  0.00  0.00    -0.322 N 
ATOM     14  H   UNL     1      -3.039   0.439   0.270  0.00  0.00    +0.148 HD
ATOM     15  H   UNL     1      -1.060  -2.894   0.195  0.00  0.00    +0.148 HD
ENDROOT
BRANCH   1  19
ATOM     16  C   UNL     1       2.380   1.409  -0.013  0.00  0.00    +0.150 A 
ATOM     17  C   UNL     1       2.396   0.022  -0.021  0.00  0.00    +0.048 A 
ATOM     18  C   UNL     1       1.208  -0.681  -0.014  0.00  0.00    +0.011 A 
ATOM     19  C   UNL     1       0.002  -0.004   0.002  0.00  0.00    -0.007 A 
ATOM     20  C   UNL     1      -0.017   1.378   0.010  0.00  0.00    +0.043 A 
ATOM     21  C   UNL     1       1.170   2.086   0.002  0.00  0.00    +0.168 A 
BRANCH  21  22
ATOM     22  N   UNL     1       1.149   3.566   0.010  0.00  0.00    +0.060 N 
ATOM     23  O   UNL     1       0.086   4.160   0.023  0.00  0.00    -0.126 OA
ATOM     24  O   UNL     1       2.195   4.190   0.003  0.00  0.00    -0.126 OA
ENDBRANCH  21  22
BRANCH  16  26
ATOM     25  C   UNL     1       4.756   1.341  -0.036  0.00  0.00    +0.277 C 
ATOM     26  O   UNL     1       3.548   2.104  -0.020  0.00  0.00    -0.493 OA
ENDBRANCH  16  26
ENDBRANCH   1  19
TORSDOF 3
