REMARK  Name = ZINC23761265
REMARK  4 active torsions:
REMARK  status: ('A' for Active; 'I' for Inactive)
REMARK    1  A    between atoms: C_6  and  S_7
REMARK    2  A    between atoms: S_7  and  N_10
REMARK    3  A    between atoms: N_13  and  C_16
REMARK    4  A    between atoms: C_16  and  N_17
REMARK                            x       y       z     vdW  Elec       q    Type
REMARK                         _______ _______ _______ _____ _____    ______ ____
ROOT
ATOM      1  N   UNL     1      -0.897   1.885  -1.312  0.00  0.00    -0.174 NA
ATOM      2  C   UNL     1      -1.887   0.982  -1.919  0.00  0.00    +0.125 C 
ATOM      3  C   UNL     1      -3.215   1.745  -2.057  0.00  0.00    +0.103 C 
ATOM      4  N   UNL     1      -2.981   2.994  -2.793  0.00  0.00    -0.284 NA
ATOM      5  C   UNL     1      -2.076   3.886  -2.056  0.00  0.00    +0.103 C 
ATOM      6  C   UNL     1      -0.706   3.213  -1.915  0.00  0.00    +0.125 C 
ENDROOT
BRANCH   1   7
ATOM      7  S   UNL     1      -0.017   1.417   0.010  0.00  0.00    +0.061 S 
ATOM      8  O   UNL     1       0.002  -0.004   0.002  0.00  0.00    -0.153 OA
ATOM      9  O   UNL     1       1.172   2.195   0.003  0.00  0.00    -0.153 OA
BRANCH   7  15
ATOM     10  C   UNL     1      -0.715   3.145   2.002  0.00  0.00    +0.032 A 
ATOM     11  C   UNL     1      -1.430   3.534   3.121  0.00  0.00    +0.051 A 
ATOM     12  C   UNL     1      -2.350   2.666   3.683  0.00  0.00    +0.162 A 
ATOM     13  C   UNL     1      -2.559   1.414   3.122  0.00  0.00    +0.164 A 
ATOM     14  C   UNL     1      -1.846   1.030   1.999  0.00  0.00    +0.078 A 
ATOM     15  C   UNL     1      -0.927   1.900   1.439  0.00  0.00    +0.109 A 
ATOM     16  O   UNL     1      -3.469   0.566   3.683  0.00  0.00    -0.488 OA
ATOM     17  C   UNL     1      -3.129   0.048   4.971  0.00  0.00    +0.232 C 
ATOM     18  C   UNL     1      -3.528   1.023   6.067  0.00  0.00    +0.082 C 
ATOM     19  C   UNL     1      -2.749   2.327   5.993  0.00  0.00    +0.232 C 
ATOM     20  O   UNL     1      -3.058   3.034   4.790  0.00  0.00    -0.488 OA
ENDBRANCH   7  15
ENDBRANCH   1   7
BRANCH   4  21
ATOM     21  C   UNL     1      -4.250   3.669  -3.100  0.00  0.00    +0.205 C 
BRANCH  21  22
ATOM     22  N   UNL     1      -5.306   2.669  -3.270  0.00  0.00    -0.211 N 
ATOM     23  C   UNL     1      -6.085   2.211  -2.268  0.00  0.00    +0.248 C 
ATOM     24  O   UNL     1      -6.046   2.537  -1.100  0.00  0.00    -0.273 OA
ATOM     25  C   UNL     1      -7.017   1.208  -2.907  0.00  0.00    +0.113 C 
ATOM     26  C   UNL     1      -8.467   1.654  -2.750  0.00  0.00    +0.035 C 
ATOM     27  C   UNL     1      -9.392   0.640  -3.428  0.00  0.00    +0.003 C 
ATOM     28  C   UNL     1      -9.193  -0.736  -2.789  0.00  0.00    +0.000 C 
ATOM     29  C   UNL     1      -7.741  -1.181  -2.976  0.00  0.00    +0.003 C 
ATOM     30  C   UNL     1      -6.809  -0.174  -2.297  0.00  0.00    +0.035 C 
ATOM     31  N   UNL     1      -6.627   1.210  -4.322  0.00  0.00    -0.285 N 
ATOM     32  C   UNL     1      -5.623   2.100  -4.439  0.00  0.00    +0.310 C 
ATOM     33  O   UNL     1      -5.064   2.355  -5.488  0.00  0.00    -0.252 OA
ATOM     34  H   UNL     1      -7.147   0.555  -5.037  0.00  0.00    +0.151 HD
ENDBRANCH  21  22
ENDBRANCH   4  21
TORSDOF 4
