REMARK  Name = ZINC38129047
REMARK  5 active torsions:
REMARK  status: ('A' for Active; 'I' for Inactive)
REMARK    1  A    between atoms: C_3  and  N_17
REMARK    2  A    between atoms: C_6  and  C_7
REMARK    3  A    between atoms: C_7  and  C_8
REMARK    4  A    between atoms: C_8  and  C_10
REMARK    5  A    between atoms: C_8  and  N_16
REMARK                            x       y       z     vdW  Elec       q    Type
REMARK                         _______ _______ _______ _____ _____    ______ ____
ROOT
ATOM      1  C   UNL     1      -1.744  -1.028  -1.429  0.00  0.00    -0.033 C 
ENDROOT
BRANCH   1   2
ATOM      2  C   UNL     1      -2.971  -1.903  -1.424  0.00  0.00    -0.023 A 
ATOM      3  C   UNL     1      -3.069  -3.238  -1.639  0.00  0.00    +0.010 A 
ATOM      4  C   UNL     1      -4.314  -3.837  -1.585  0.00  0.00    +0.023 A 
ATOM      5  C   UNL     1      -5.401  -3.071  -1.318  0.00  0.00    +0.055 A 
ATOM      6  S   UNL     1      -4.673  -1.452  -1.126  0.00  0.00    -0.088 S 
ATOM      7 BR   UNL     1      -7.215  -3.585  -1.178  0.00  0.00    -0.043 Br
ENDBRANCH   1   2
BRANCH   1   8
ATOM      8  N   UNL     1      -2.059   0.252  -2.076  0.00  0.00    +0.383 N 
ATOM      9  H   UNL     1      -1.238   0.838  -2.080  0.00  0.00    -0.089 HD
ATOM     10  H   UNL     1      -2.357   0.085  -3.026  0.00  0.00    -0.089 HD
ATOM     11  H   UNL     1      -2.799   0.713  -1.568  0.00  0.00    -0.089 HD
ENDBRANCH   1   8
BRANCH   1  12
ATOM     12  C   UNL     1      -1.293  -0.775   0.010  0.00  0.00    +0.024 C 
BRANCH  12  18
ATOM     13  C   UNL     1      -0.017   1.378   0.010  0.00  0.00    +0.006 A 
ATOM     14  C   UNL     1       1.171   2.086   0.002  0.00  0.00    +0.033 A 
ATOM     15  C   UNL     1       2.377   1.411  -0.013  0.00  0.00    +0.126 A 
ATOM     16  C   UNL     1       2.396   0.029  -0.020  0.00  0.00    +0.033 A 
ATOM     17  C   UNL     1       1.208  -0.679  -0.012  0.00  0.00    +0.006 A 
ATOM     18  C   UNL     1       0.002  -0.004   0.002  0.00  0.00    -0.048 A 
BRANCH  15  19
ATOM     19  N   UNL     1       3.649   2.168  -0.022  0.00  0.00    +0.056 N 
ATOM     20  O   UNL     1       3.633   3.377  -0.016  0.00  0.00    -0.126 OA
ATOM     21  O   UNL     1       4.704   1.578  -0.035  0.00  0.00    -0.126 OA
ENDBRANCH  15  19
ENDBRANCH  12  18
ENDBRANCH   1  12
TORSDOF 5
