REMARK  Name = ZINC65674659
REMARK  8 active torsions:
REMARK  status: ('A' for Active; 'I' for Inactive)
REMARK    1  A    between atoms: C_1  and  C_2
REMARK    2  A    between atoms: N_6  and  C_8
REMARK    3  A    between atoms: C_8  and  C_9
REMARK    4  A    between atoms: C_9  and  C_10
REMARK    5  A    between atoms: C_9  and  N_11
REMARK    6  A    between atoms: C_12  and  C_14
REMARK    7  A    between atoms: C_16  and  S_21
REMARK    8  A    between atoms: S_21  and  N_24
REMARK                            x       y       z     vdW  Elec       q    Type
REMARK                         _______ _______ _______ _____ _____    ______ ____
ROOT
ATOM      1  N   UNL     1       1.804  -4.642   1.426  0.00  0.00    -0.310 N 
ATOM      2  C   UNL     1       1.286  -5.800   0.972  0.00  0.00    +0.246 C 
ATOM      3  O   UNL     1       0.322  -6.292   1.525  0.00  0.00    -0.270 OA
ATOM      4  H   UNL     1       2.574  -4.249   0.985  0.00  0.00    +0.149 HD
ENDROOT
BRANCH   2   5
ATOM      5  C   UNL     1       1.891  -6.473  -0.197  0.00  0.00    +0.057 A 
ATOM      6  C   UNL     1       3.002  -5.914  -0.830  0.00  0.00    +0.043 A 
ATOM      7  C   UNL     1       3.562  -6.546  -1.920  0.00  0.00    +0.106 A 
ATOM      8  C   UNL     1       3.024  -7.733  -2.388  0.00  0.00    +0.030 A 
ATOM      9  C   UNL     1       1.923  -8.293  -1.766  0.00  0.00    +0.022 A 
ATOM     10  C   UNL     1       1.356  -7.674  -0.669  0.00  0.00    +0.053 A 
ATOM     11 CL   UNL     1      -0.022  -8.382   0.115  0.00  0.00    -0.083 Cl
BRANCH   7  12
ATOM     12  S   UNL     1       4.964  -5.842  -2.721  0.00  0.00    +0.056 S 
ATOM     13  O   UNL     1       4.967  -6.343  -4.051  0.00  0.00    -0.153 OA
ATOM     14  O   UNL     1       4.942  -4.451  -2.430  0.00  0.00    -0.153 OA
BRANCH  12  15
ATOM     15  N   UNL     1       6.311  -6.458  -1.980  0.00  0.00    -0.204 NA
ATOM     16  H   UNL     1       6.217  -7.087  -1.248  0.00  0.00    +0.144 HD
ATOM     17  H   UNL     1       7.194  -6.191  -2.279  0.00  0.00    +0.144 HD
ENDBRANCH  12  15
ENDBRANCH   7  12
ENDBRANCH   2   5
BRANCH   1  18
ATOM     18  C   UNL     1       1.205  -3.975   2.584  0.00  0.00    +0.054 C 
ATOM     19  C   UNL     1       1.839  -4.516   3.868  0.00  0.00    +0.026 C 
BRANCH  18  20
ATOM     20  C   UNL     1       1.452  -2.468   2.490  0.00  0.00    -0.057 C 
BRANCH  20  26
ATOM     21  C   UNL     1      -2.566  -1.837  -0.234  0.00  0.00    +0.005 C 
ATOM     22  C   UNL     1      -1.045  -1.678  -0.198  0.00  0.00    -0.031 C 
ATOM     23  C   UNL     1      -0.679  -0.208  -0.427  0.00  0.00    -0.001 C 
ATOM     24  C   UNL     1       0.839  -0.047  -0.311  0.00  0.00    -0.018 C 
ATOM     25  C   UNL     1       1.297  -0.551   1.059  0.00  0.00    -0.079 C 
ATOM     26  N   UNL     1       0.942  -1.968   1.206  0.00  0.00    +0.381 N 
ATOM     27  C   UNL     1      -0.517  -2.122   1.168  0.00  0.00    -0.076 C 
ATOM     28  H   UNL     1       1.355  -2.497   0.453  0.00  0.00    -0.082 HD
ENDBRANCH  20  26
ENDBRANCH  18  20
ENDBRANCH   1  18
TORSDOF 6
