REMARK  Name = ZINC03321198
REMARK  13 active torsions:
REMARK  status: ('A' for Active; 'I' for Inactive)
REMARK    1  A    between atoms: C_1  and  C_2
REMARK    2  A    between atoms: C_2  and  O_3
REMARK    3  A    between atoms: O_3  and  C_4
REMARK    4  A    between atoms: C_4  and  C_6
REMARK    5  A    between atoms: C_7  and  C_34
REMARK    6  A    between atoms: C_8  and  C_33
REMARK    7  A    between atoms: C_10  and  N_11
REMARK    8  A    between atoms: C_12  and  C_14
REMARK    9  A    between atoms: C_14  and  S_15
REMARK   10  A    between atoms: S_15  and  C_16
REMARK   11  A    between atoms: C_19  and  C_22
REMARK   12  A    between atoms: N_20  and  N_21
REMARK   13  A    between atoms: C_22  and  C_23
REMARK                            x       y       z     vdW  Elec       q    Type
REMARK                         _______ _______ _______ _____ _____    ______ ____
ROOT
ATOM      1  C   UNL     1      -1.400   2.788  -2.905  0.00  0.00    +0.209 A 
ATOM      2  N   UNL     1      -2.102   1.681  -2.837  0.00  0.00    -0.121 NA
ATOM      3  N   UNL     1      -1.706   0.973  -1.841  0.00  0.00    -0.132 NA
ATOM      4  C   UNL     1      -0.742   1.585  -1.213  0.00  0.00    +0.155 A 
ATOM      5  N   UNL     1      -0.510   2.761  -1.871  0.00  0.00    -0.228 N 
ENDROOT
BRANCH   5   6
ATOM      6  N   UNL     1       0.419   3.712  -1.557  0.00  0.00    -0.295 N 
ATOM      7  H   UNL     1       1.294   3.531  -2.026  0.00  0.00    +0.163 HD
ATOM      8  H   UNL     1       0.078   4.637  -1.773  0.00  0.00    +0.163 HD
ENDBRANCH   5   6
BRANCH   1   9
ATOM      9  S   UNL     1      -1.574   4.067  -4.105  0.00  0.00    -0.075 S 
BRANCH   9  10
ATOM     10  C   UNL     1      -2.921   3.382  -5.101  0.00  0.00    +0.173 C 
BRANCH  10  12
ATOM     11  N   UNL     1      -4.229   4.031  -7.098  0.00  0.00    -0.279 N 
ATOM     12  C   UNL     1      -3.251   4.334  -6.222  0.00  0.00    +0.228 C 
ATOM     13  O   UNL     1      -2.636   5.373  -6.336  0.00  0.00    -0.275 OA
ATOM     14  H   UNL     1      -4.721   3.199  -7.007  0.00  0.00    +0.155 HD
BRANCH  11  19
ATOM     15  C   UNL     1      -5.497   4.771  -9.122  0.00  0.00    +0.091 A 
ATOM     16  C   UNL     1      -5.598   5.847 -10.079  0.00  0.00    -0.025 A 
ATOM     17  C   UNL     1      -4.754   6.884  -9.929  0.00  0.00    -0.008 A 
ATOM     18  S   UNL     1      -3.808   6.437  -8.489  0.00  0.00    -0.078 S 
ATOM     19  C   UNL     1      -4.532   4.906  -8.129  0.00  0.00    +0.086 A 
ATOM     20  C   UNL     1      -4.642   8.127 -10.773  0.00  0.00    +0.052 C 
ATOM     21  C   UNL     1      -6.606   5.811 -11.199  0.00  0.00    +0.045 C 
BRANCH  15  22
ATOM     22  C   UNL     1      -6.367   3.595  -9.193  0.00  0.00    +0.342 C 
ATOM     23  O   UNL     1      -7.432   3.590  -8.605  0.00  0.00    -0.245 OA
BRANCH  22  24
ATOM     24  O   UNL     1      -5.988   2.518  -9.910  0.00  0.00    -0.461 OA
BRANCH  24  26
ATOM     25  C   UNL     1      -6.303   0.270 -10.793  0.00  0.00    +0.048 C 
ATOM     26  C   UNL     1      -6.900   1.388  -9.936  0.00  0.00    +0.229 C 
ENDBRANCH  24  26
ENDBRANCH  22  24
ENDBRANCH  15  22
ENDBRANCH  11  19
ENDBRANCH  10  12
ENDBRANCH   9  10
ENDBRANCH   1   9
BRANCH   4  27
ATOM     27  C   UNL     1      -0.013   1.086   0.008  0.00  0.00    +0.113 C 
BRANCH  27  28
ATOM     28  C   UNL     1      -0.718   1.572   1.248  0.00  0.00    -0.032 A 
ATOM     29  C   UNL     1      -0.301   2.708   1.871  0.00  0.00    +0.004 A 
ATOM     30  C   UNL     1      -0.945   3.176   3.014  0.00  0.00    +0.001 A 
ATOM     31  C   UNL     1      -2.002   2.505   3.549  0.00  0.00    +0.008 A 
ATOM     32  C   UNL     1      -2.457   1.324   2.937  0.00  0.00    -0.018 A 
ATOM     33  C   UNL     1      -1.806   0.851   1.770  0.00  0.00    -0.014 A 
ATOM     34  C   UNL     1      -2.260  -0.330   1.158  0.00  0.00    +0.009 A 
ATOM     35  C   UNL     1      -3.316  -1.001   1.693  0.00  0.00    +0.001 A 
ATOM     36  C   UNL     1      -3.956  -0.536   2.841  0.00  0.00    +0.001 A 
ATOM     37  C   UNL     1      -3.543   0.603   3.460  0.00  0.00    +0.008 A 
ENDBRANCH  27  28
ENDBRANCH   4  27
TORSDOF 10
