REMARK  Name = ZINC14459270
REMARK  7 active torsions:
REMARK  status: ('A' for Active; 'I' for Inactive)
REMARK    1  A    between atoms: C_1  and  O_2
REMARK    2  A    between atoms: O_2  and  C_3
REMARK    3  A    between atoms: C_5  and  C_10
REMARK    4  A    between atoms: C_8  and  O_9
REMARK    5  A    between atoms: C_21  and  O_26
REMARK    6  A    between atoms: O_26  and  C_27
REMARK    7  A    between atoms: C_27  and  C_28
REMARK                            x       y       z     vdW  Elec       q    Type
REMARK                         _______ _______ _______ _____ _____    ______ ____
ROOT
ATOM      1  C   UNL     1       3.715  -0.701  -0.037  0.00  0.00    +0.105 C 
ATOM      2  C   UNL     1       4.307  -0.748   1.360  0.00  0.00    +0.029 C 
ATOM      3  C   UNL     1       3.580  -1.614   2.398  0.00  0.00    +0.033 C 
ATOM      4  C   UNL     1       4.732  -2.030   3.314  0.00  0.00    -0.030 C 
ATOM      5  C   UNL     1       5.877  -2.008   2.642  0.00  0.00    -0.023 C 
ATOM      6  C   UNL     1       5.594  -1.616   1.237  0.00  0.00    +0.049 C 
ATOM      7  C   UNL     1       6.574  -0.867   0.421  0.00  0.00    -0.016 A 
ATOM      8  C   UNL     1       7.931  -0.924   0.657  0.00  0.00    +0.051 A 
ATOM      9  C   UNL     1       8.810  -0.215  -0.147  0.00  0.00    +0.121 A 
ATOM     10  C   UNL     1       8.323   0.554  -1.194  0.00  0.00    +0.047 A 
ATOM     11  C   UNL     1       6.965   0.619  -1.430  0.00  0.00    +0.027 A 
ATOM     12  C   UNL     1       6.076  -0.082  -0.625  0.00  0.00    +0.032 A 
ATOM     13  N   UNL     1       4.699   0.033  -0.863  0.00  0.00    -0.336 N 
ATOM     14  H   UNL     1       4.385   0.603  -1.582  0.00  0.00    +0.147 HD
ENDROOT
BRANCH   1  17
ATOM     15  C   UNL     1       0.002  -0.004   0.002  0.00  0.00    +0.162 A 
ATOM     16  C   UNL     1       1.213  -0.677  -0.013  0.00  0.00    +0.054 A 
ATOM     17  C   UNL     1       2.399   0.033  -0.021  0.00  0.00    -0.023 A 
ATOM     18  C   UNL     1       2.380   1.415  -0.013  0.00  0.00    +0.009 A 
ATOM     19  C   UNL     1       1.175   2.093   0.002  0.00  0.00    +0.049 A 
ATOM     20  C   UNL     1      -0.017   1.387   0.010  0.00  0.00    +0.158 A 
BRANCH  15  22
ATOM     21  C   UNL     1      -1.069  -2.127   0.001  0.00  0.00    +0.277 C 
ATOM     22  O   UNL     1      -1.165  -0.702   0.010  0.00  0.00    -0.491 OA
ENDBRANCH  15  22
BRANCH  20  23
ATOM     23  O   UNL     1      -1.203   2.053   0.019  0.00  0.00    -0.503 OA
ATOM     24  H   UNL     1      -1.542   2.240   0.905  0.00  0.00    +0.292 HD
ENDBRANCH  20  23
ENDBRANCH   1  17
BRANCH   9  25
ATOM     25  O   UNL     1      10.148  -0.273   0.090  0.00  0.00    -0.489 OA
BRANCH  25  26
ATOM     26  C   UNL     1      10.994   0.483  -0.778  0.00  0.00    +0.260 C 
BRANCH  26  27
ATOM     27  C   UNL     1      12.454   0.296  -0.358  0.00  0.00    +0.156 C 
ATOM     28  C   UNL     1      13.366   1.198  -1.217  0.00  0.00    +0.037 C 
ATOM     29  C   UNL     1      14.597   0.284  -1.462  0.00  0.00    +0.031 C 
ATOM     30  C   UNL     1      13.919  -1.107  -1.544  0.00  0.00    +0.160 C 
ATOM     31  O   UNL     1      12.853  -1.062  -0.582  0.00  0.00    -0.373 OA
ENDBRANCH  26  27
ENDBRANCH  25  26
ENDBRANCH   9  25
TORSDOF 6
