REMARK  Name = ZINC38085482
REMARK  4 active torsions:
REMARK  status: ('A' for Active; 'I' for Inactive)
REMARK    1  A    between atoms: C_3  and  O_11
REMARK    2  A    between atoms: C_6  and  C_7
REMARK    3  A    between atoms: C_8  and  C_9
REMARK    4  A    between atoms: O_11  and  C_12
REMARK                            x       y       z     vdW  Elec       q    Type
REMARK                         _______ _______ _______ _____ _____    ______ ____
ROOT
ATOM      1  C   UNL     1       0.047   1.445   0.704  0.00  0.00    +0.020 A 
ATOM      2  C   UNL     1       1.218   2.131   0.461  0.00  0.00    +0.047 A 
ATOM      3  C   UNL     1       2.395   1.435   0.218  0.00  0.00    +0.121 A 
ATOM      4  C   UNL     1       2.397   0.046   0.218  0.00  0.00    +0.047 A 
ATOM      5  C   UNL     1       1.230  -0.646   0.460  0.00  0.00    +0.020 A 
ATOM      6  C   UNL     1       0.045   0.050   0.705  0.00  0.00    +0.025 A 
ENDROOT
BRANCH   6   7
ATOM      7  C   UNL     1      -1.169  -0.666   0.957  0.00  0.00    -0.065 C 
ATOM      8  C   UNL     1      -2.165  -1.253   1.163  0.00  0.00    -0.081 C 
BRANCH   8   9
ATOM      9  C   UNL     1      -3.413  -1.989   1.422  0.00  0.00    +0.197 C 
ATOM     10 CL   UNL     1      -3.090  -3.762   1.356  0.00  0.00    -0.112 Cl
ENDBRANCH   8   9
ENDBRANCH   6   7
BRANCH   3  11
ATOM     11  O   UNL     1       3.547   2.114  -0.022  0.00  0.00    -0.487 OA
BRANCH  11  12
ATOM     12  C   UNL     1       3.452   3.537  -0.125  0.00  0.00    +0.196 C 
ATOM     13  C   UNL     1       3.506   4.155   1.282  0.00  0.00    +0.069 C 
ATOM     14  C   UNL     1       3.718   5.688   1.129  0.00  0.00    +0.169 C 
ATOM     15  S   UNL     1       4.944   5.724  -0.245  0.00  0.00    -0.027 S 
ATOM     16  O   UNL     1       4.564   6.726  -1.178  0.00  0.00    -0.174 OA
ATOM     17  O   UNL     1       6.254   5.742   0.305  0.00  0.00    -0.174 OA
ATOM     18  C   UNL     1       4.626   4.069  -0.980  0.00  0.00    +0.210 C 
ENDBRANCH  11  12
ENDBRANCH   3  11
TORSDOF 4
