REMARK  Name = ZINC36613007
REMARK  5 active torsions:
REMARK  status: ('A' for Active; 'I' for Inactive)
REMARK    1  A    between atoms: C_3  and  O_9
REMARK    2  A    between atoms: O_9  and  C_10
REMARK    3  A    between atoms: C_10  and  C_11
REMARK    4  A    between atoms: C_14  and  C_16
REMARK    5  A    between atoms: C_19  and  C_23
REMARK                            x       y       z     vdW  Elec       q    Type
REMARK                         _______ _______ _______ _____ _____    ______ ____
ROOT
ATOM      1  C   UNK     1       4.839   4.127  -0.023  0.00  0.00    +0.142 A 
ATOM      2  C   UNK     1       5.549   4.448  -1.120  0.00  0.00    +0.048 A 
ATOM      3  C   UNK     1       6.783   4.971  -0.670  0.00  0.00    +0.044 A 
ATOM      4  C   UNK     1       6.754   4.939   0.674  0.00  0.00    +0.101 A 
ATOM      5  O   UNK     1       5.571   4.432   1.061  0.00  0.00    -0.462 OA
ENDROOT
BRANCH   4   6
ATOM      6  C   UNK     1       7.857   5.399   1.592  0.00  0.00    +0.056 C 
ATOM      7  N   UNK     1       7.812   4.662   2.874  0.00  0.00    +0.401 N 
ATOM      8  C   UNK     1       7.455   5.452   4.053  0.00  0.00    +0.056 C 
ATOM      9  C   UNK     1       7.948   6.921   3.905  0.00  0.00    +0.063 C 
ATOM     10  S   UNK     1       7.594   7.150   2.100  0.00  0.00    -0.170 S 
ATOM     11  H   UNK     1       7.143   3.913   2.782  0.00  0.00    -0.082 HD
ATOM     12  H   UNK     1       8.720   4.252   3.033  0.00  0.00    -0.082 HD
BRANCH   8  13
ATOM     13  C   UNK     1       8.091   4.838   5.274  0.00  0.00    +0.343 C 
ATOM     14  O   UNK     1       9.147   4.237   5.174  0.00  0.00    -0.248 OA
ATOM     15  O   UNK     1       7.549   4.942   6.361  0.00  0.00    -0.248 OA
ENDBRANCH   8  13
ENDBRANCH   4   6
BRANCH   1  16
ATOM     16  C   UNK     1       3.454   3.533  -0.013  0.00  0.00    +0.303 C 
BRANCH  16  17
ATOM     17  O   UNK     1       3.548   2.107  -0.021  0.00  0.00    -0.483 OA
BRANCH  17  20
ATOM     18  C   UNK     1      -0.017   1.379   0.010  0.00  0.00    +0.023 A 
ATOM     19  C   UNK     1       1.170   2.088   0.002  0.00  0.00    +0.048 A 
ATOM     20  C   UNK     1       2.380   1.411  -0.013  0.00  0.00    +0.139 A 
ATOM     21  C   UNK     1       2.398   0.023  -0.021  0.00  0.00    +0.084 A 
ATOM     22  C   UNK     1       1.209  -0.682  -0.013  0.00  0.00    +0.043 A 
ATOM     23  C   UNK     1       0.002  -0.004   0.002  0.00  0.00    +0.043 A 
ATOM     24 CL   UNK     1      -1.490  -0.891   0.012  0.00  0.00    -0.083 Cl
ATOM     25 CL   UNK     1       3.911  -0.827  -0.040  0.00  0.00    -0.080 Cl
ENDBRANCH  17  20
ENDBRANCH  16  17
ENDBRANCH   1  16
TORSDOF 5
