REMARK  Name = ZINC20569627
REMARK  12 active torsions:
REMARK  status: ('A' for Active; 'I' for Inactive)
REMARK    1  A    between atoms: C_1  and  C_2
REMARK    2  A    between atoms: C_7  and  C_23
REMARK    3  A    between atoms: C_9  and  C_13
REMARK    4  A    between atoms: C_10  and  C_12
REMARK    5  A    between atoms: C_13  and  O_15
REMARK    6  A    between atoms: O_15  and  C_16
REMARK    7  A    between atoms: C_26  and  O_31
REMARK    8  A    between atoms: C_27  and  O_29
REMARK    9  A    between atoms: O_29  and  C_30
REMARK   10  A    between atoms: C_34  and  C_36
REMARK   11  A    between atoms: C_36  and  O_38
REMARK   12  A    between atoms: O_38  and  C_39
REMARK                            x       y       z     vdW  Elec       q    Type
REMARK                         _______ _______ _______ _____ _____    ______ ____
ROOT
ATOM      1  C   UNL     1       2.334   0.076  -1.244  0.00  0.00    +0.009 C 
ATOM      2  C   UNL     1       2.460   0.997  -0.029  0.00  0.00    +0.013 C 
ATOM      3  C   UNL     1       3.757   1.804  -0.126  0.00  0.00    +0.055 C 
ATOM      4  C   UNL     1       3.727   2.663  -1.365  0.00  0.00    +0.016 C 
ATOM      5  C   UNL     1       2.562   3.144  -1.850  0.00  0.00    +0.025 C 
ATOM      6  C   UNL     1       2.541   4.017  -3.079  0.00  0.00    +0.092 C 
ATOM      7  C   UNL     1       3.819   3.884  -3.855  0.00  0.00    +0.065 C 
ATOM      8  C   UNL     1       4.926   3.369  -3.293  0.00  0.00    +0.016 C 
ATOM      9  N   UNL     1       4.910   2.946  -1.993  0.00  0.00    -0.321 N 
ATOM     10  C   UNL     1       6.193   3.258  -4.101  0.00  0.00    +0.061 C 
ATOM     11  C   UNL     1       1.339   2.848  -1.223  0.00  0.00    +0.176 C 
ATOM     12  O   UNL     1       0.309   3.307  -1.679  0.00  0.00    -0.291 OA
ATOM     13  C   UNL     1       1.280   1.975   0.000  0.00  0.00    +0.171 C 
ATOM     14  H   UNL     1       5.861   2.833  -1.452  0.00  0.00    +0.152 HD
ENDROOT
BRANCH   6  15
ATOM     15  C   UNL     1       2.362   5.454  -2.662  0.00  0.00    -0.032 A 
ATOM     16  C   UNL     1       3.295   6.054  -1.836  0.00  0.00    +0.008 A 
ATOM     17  C   UNL     1       3.135   7.372  -1.452  0.00  0.00    +0.049 A 
ATOM     18  C   UNL     1       2.040   8.095  -1.894  0.00  0.00    +0.158 A 
ATOM     19  C   UNL     1       1.101   7.492  -2.725  0.00  0.00    +0.162 A 
ATOM     20  C   UNL     1       1.270   6.172  -3.112  0.00  0.00    +0.054 A 
BRANCH  19  21
ATOM     21  O   UNL     1       0.024   8.197  -3.163  0.00  0.00    -0.491 OA
ATOM     22  C   UNL     1      -0.898   7.513  -4.013  0.00  0.00    +0.277 C 
ENDBRANCH  19  21
BRANCH  18  23
ATOM     23  O   UNL     1       1.882   9.392  -1.517  0.00  0.00    -0.503 OA
ATOM     24  H   UNL     1       1.012   9.966  -1.869  0.00  0.00    +0.292 HD
ENDBRANCH  18  23
ENDBRANCH   6  15
BRANCH   7  25
ATOM     25  C   UNL     1       3.859   4.309  -5.204  0.00  0.00    +0.338 C 
ATOM     26  O   UNL     1       4.889   4.207  -5.843  0.00  0.00    -0.245 OA
BRANCH  25  27
ATOM     27  O   UNL     1       2.755   4.828  -5.781  0.00  0.00    -0.458 OA
BRANCH  27  28
ATOM     28  C   UNL     1       2.867   5.236  -7.146  0.00  0.00    +0.177 C 
ATOM     29  C   UNL     1       3.377   6.691  -7.191  0.00  0.00    +0.044 C 
ATOM     30  C   UNL     1       3.971   6.947  -8.550  0.00  0.00    +0.004 C 
ATOM     31  C   UNL     1       2.959   7.573  -9.528  0.00  0.00    +0.000 C 
ATOM     32  C   UNL     1       1.560   6.936  -9.428  0.00  0.00    +0.000 C 
ATOM     33  C   UNL     1       1.617   5.439  -9.291  0.00  0.00    +0.004 C 
ATOM     34  C   UNL     1       1.572   5.082  -7.792  0.00  0.00    +0.044 C 
ENDBRANCH  27  28
ENDBRANCH  25  27
ENDBRANCH   7  25
BRANCH  13  35
ATOM     35  C   UNL     1      -0.014   1.204   0.009  0.00  0.00    +0.318 C 
ATOM     36  O   UNL     1       0.002  -0.004   0.002  0.00  0.00    -0.250 OA
BRANCH  35  37
ATOM     37  O   UNL     1      -1.186   1.859   0.018  0.00  0.00    -0.467 OA
ATOM     38  C   UNL     1      -2.393   1.052   0.019  0.00  0.00    +0.280 C 
ENDBRANCH  35  37
ENDBRANCH  13  35
TORSDOF 8
