REMARK  Name = ZINC44401433
REMARK  8 active torsions:
REMARK  status: ('A' for Active; 'I' for Inactive)
REMARK    1  A    between atoms: C_1  and  C_2
REMARK    2  A    between atoms: C_2  and  C_3
REMARK    3  A    between atoms: C_3  and  C_5
REMARK    4  A    between atoms: C_3  and  N_26
REMARK    5  A    between atoms: C_5  and  C_6
REMARK    6  A    between atoms: N_13  and  C_25
REMARK    7  A    between atoms: C_14  and  O_15
REMARK    8  A    between atoms: O_15  and  C_16
REMARK                            x       y       z     vdW  Elec       q    Type
REMARK                         _______ _______ _______ _____ _____    ______ ____
ROOT
ATOM      1  C   UNL     1       1.694  -2.682   2.286  0.00  0.00    +0.020 A 
ATOM      2  C   UNL     1       3.154  -2.778   2.322  0.00  0.00    +0.007 A 
ATOM      3  C   UNL     1       4.157  -2.658   1.357  0.00  0.00    +0.010 A 
ATOM      4  C   UNL     1       5.467  -2.806   1.718  0.00  0.00    +0.001 A 
ATOM      5  C   UNL     1       5.808  -3.074   3.036  0.00  0.00    +0.002 A 
ATOM      6  C   UNL     1       4.834  -3.196   4.004  0.00  0.00    +0.026 A 
ATOM      7  C   UNL     1       3.496  -3.050   3.659  0.00  0.00    +0.052 A 
ATOM      8  N   UNL     1       2.319  -3.113   4.378  0.00  0.00    -0.314 N 
ATOM      9  C   UNL     1       1.254  -2.886   3.546  0.00  0.00    +0.206 A 
ATOM     10  C   UNL     1       2.223  -3.378   5.815  0.00  0.00    +0.152 C 
ENDROOT
BRANCH   1  11
ATOM     11  C   UNL     1       0.842  -2.403   1.075  0.00  0.00    +0.025 C 
BRANCH  11  12
ATOM     12  C   UNL     1       0.646  -0.893   0.926  0.00  0.00    -0.071 C 
BRANCH  12  13
ATOM     13  N   UNL     1      -0.125  -0.385   2.068  0.00  0.00    +0.380 N 
ATOM     14  H   UNL     1      -0.254   0.611   1.970  0.00  0.00    -0.090 HD
ATOM     15  H   UNL     1      -1.025  -0.840   2.095  0.00  0.00    -0.090 HD
ATOM     16  H   UNL     1       0.375  -0.577   2.924  0.00  0.00    -0.090 HD
ENDBRANCH  12  13
BRANCH  12  18
ATOM     17  C   UNL     1      -0.199   0.911  -0.583  0.00  0.00    +0.002 C 
ATOM     18  C   UNL     1      -0.111  -0.602  -0.371  0.00  0.00    -0.019 C 
ENDBRANCH  12  18
ENDBRANCH  11  12
ENDBRANCH   1  11
BRANCH   9  19
ATOM     19  O   UNL     1      -0.046  -2.872   3.931  0.00  0.00    -0.438 OA
BRANCH  19  20
ATOM     20  C   UNL     1      -0.727  -4.049   3.923  0.00  0.00    +0.150 A 
ATOM     21  C   UNL     1      -0.064  -5.233   3.635  0.00  0.00    +0.069 A 
ATOM     22  C   UNL     1      -0.758  -6.428   3.627  0.00  0.00    +0.063 A 
ATOM     23  C   UNL     1      -2.114  -6.445   3.907  0.00  0.00    +0.061 A 
ATOM     24  C   UNL     1      -2.777  -5.265   4.194  0.00  0.00    +0.045 A 
ATOM     25  C   UNL     1      -2.085  -4.068   4.209  0.00  0.00    +0.085 A 
ATOM     26 CL   UNL     1      -2.916  -2.589   4.578  0.00  0.00    -0.080 Cl
ATOM     27 CL   UNL     1      -2.983  -7.947   3.897  0.00  0.00    -0.082 Cl
ATOM     28 CL   UNL     1       0.071  -7.910   3.265  0.00  0.00    -0.082 Cl
ENDBRANCH  19  20
ENDBRANCH   9  19
TORSDOF 6
