REMARK  Name = ZINC23449235
REMARK  6 active torsions:
REMARK  status: ('A' for Active; 'I' for Inactive)
REMARK    1  A    between atoms: C_3  and  S_26
REMARK    2  A    between atoms: C_6  and  C_7
REMARK    3  A    between atoms: N_9  and  N_10
REMARK    4  A    between atoms: C_11  and  C_13
REMARK    5  A    between atoms: C_13  and  N_14
REMARK    6  A    between atoms: S_26  and  N_29
REMARK                            x       y       z     vdW  Elec       q    Type
REMARK                         _______ _______ _______ _____ _____    ______ ____
ROOT
ATOM      1  C   UNL     1       2.941   8.061   4.308  0.00  0.00    +0.260 C 
ATOM      2  O   UNL     1       2.827   9.046   3.606  0.00  0.00    -0.269 OA
ATOM      3  N   UNL     1       2.876   6.831   3.759  0.00  0.00    -0.230 N 
ATOM      4  H   UNL     1       2.979   5.939   4.395  0.00  0.00    +0.173 HD
ENDROOT
BRANCH   1  10
ATOM      5  C   UNL     1       3.277   7.080   6.574  0.00  0.00    +0.015 A 
ATOM      6  C   UNL     1       3.478   7.227   7.931  0.00  0.00    +0.029 A 
ATOM      7  C   UNL     1       3.544   8.490   8.491  0.00  0.00    +0.106 A 
ATOM      8  C   UNL     1       3.415   9.614   7.694  0.00  0.00    +0.029 A 
ATOM      9  C   UNL     1       3.219   9.482   6.335  0.00  0.00    +0.015 A 
ATOM     10  C   UNL     1       3.151   8.210   5.764  0.00  0.00    +0.038 A 
BRANCH   7  11
ATOM     11  S   UNL     1       3.795   8.668  10.226  0.00  0.00    +0.061 S 
ATOM     12  O   UNL     1       4.430   7.477  10.669  0.00  0.00    -0.153 OA
ATOM     13  O   UNL     1       4.366   9.955  10.424  0.00  0.00    -0.153 OA
BRANCH  11  14
ATOM     14  N   UNL     1       2.300   8.700  10.936  0.00  0.00    -0.177 NA
ATOM     15  C   UNL     1       1.498   9.905  11.192  0.00  0.00    +0.109 C 
ATOM     16  C   UNL     1       0.197   9.451  11.888  0.00  0.00    +0.018 C 
ATOM     17  C   UNL     1       0.594   8.082  12.502  0.00  0.00    +0.018 C 
ATOM     18  C   UNL     1       1.555   7.524  11.422  0.00  0.00    +0.109 C 
ENDBRANCH  11  14
ENDBRANCH   7  11
ENDBRANCH   1  10
BRANCH   3  19
ATOM     19  N   UNL     1       2.677   6.690   2.380  0.00  0.00    -0.233 N 
ATOM     20  C   UNL     1       2.612   5.460   1.831  0.00  0.00    +0.247 C 
ATOM     21  O   UNL     1       2.725   4.477   2.531  0.00  0.00    -0.273 OA
ATOM     22  H   UNL     1       2.574   7.582   1.744  0.00  0.00    +0.173 HD
BRANCH  20  23
ATOM     23  C   UNL     1       2.397   5.308   0.347  0.00  0.00    +0.211 C 
BRANCH  23  24
ATOM     24  N   UNL     1       2.364   3.885   0.002  0.00  0.00    -0.256 N 
ATOM     25  C   UNL     1       1.153   3.179   0.009  0.00  0.00    +0.080 A 
ATOM     26  C   UNL     1      -0.058   3.851   0.023  0.00  0.00    +0.047 A 
ATOM     27  C   UNL     1      -1.242   3.136   0.030  0.00  0.00    +0.043 A 
ATOM     28  C   UNL     1      -1.219   1.752   0.017  0.00  0.00    +0.024 A 
ATOM     29  C   UNL     1      -0.013   1.076   0.008  0.00  0.00    +0.049 A 
ATOM     30  C   UNL     1       1.176   1.785   0.000  0.00  0.00    +0.143 A 
ATOM     31  O   UNL     1       2.371   1.136  -0.017  0.00  0.00    -0.481 OA
ATOM     32  C   UNL     1       3.441   1.777  -0.716  0.00  0.00    +0.325 C 
ATOM     33  C   UNL     1       3.500   3.232  -0.327  0.00  0.00    +0.258 C 
ATOM     34  O   UNL     1       4.564   3.815  -0.311  0.00  0.00    -0.271 OA
ATOM     35 CL   UNL     1      -2.761   3.976   0.049  0.00  0.00    -0.083 Cl
ENDBRANCH  23  24
ENDBRANCH  20  23
ENDBRANCH   3  19
TORSDOF 6
