REMARK  Name = ZINC06405679
REMARK  7 active torsions:
REMARK  status: ('A' for Active; 'I' for Inactive)
REMARK    1  A    between atoms: C_1  and  C_2
REMARK    2  A    between atoms: C_5  and  N_8
REMARK    3  A    between atoms: C_9  and  C_28
REMARK    4  A    between atoms: C_11  and  C_14
REMARK    5  A    between atoms: C_12  and  C_13
REMARK    6  A    between atoms: N_15  and  N_16
REMARK    7  A    between atoms: C_17  and  C_27
REMARK                            x       y       z     vdW  Elec       q    Type
REMARK                         _______ _______ _______ _____ _____    ______ ____
ROOT
ATOM      1  N   UNL     1       0.349  -4.208  -0.589  0.00  0.00    -0.317 N 
ATOM      2  C   UNL     1      -0.667  -5.000  -1.044  0.00  0.00    +0.022 A 
ATOM      3  C   UNL     1      -0.405  -6.278  -0.713  0.00  0.00    +0.032 A 
ATOM      4  C   UNL     1       0.874  -6.270   0.004  0.00  0.00    +0.016 A 
ATOM      5  C   UNL     1       1.285  -4.967   0.040  0.00  0.00    +0.030 A 
ATOM      6  C   UNL     1       2.555  -4.458   0.672  0.00  0.00    +0.064 C 
ATOM      7  C   UNL     1      -1.882  -4.521  -1.795  0.00  0.00    +0.064 C 
ENDROOT
BRANCH   1  12
ATOM      8  C   UNL     1       0.626   1.422  -1.244  0.00  0.00    +0.044 C 
ATOM      9  C   UNL     1       0.553  -0.073  -1.070  0.00  0.00    -0.050 A 
ATOM     10  C   UNL     1       0.599  -0.900  -2.178  0.00  0.00    +0.005 A 
ATOM     11  C   UNL     1       0.532  -2.270  -2.021  0.00  0.00    +0.026 A 
ATOM     12  C   UNL     1       0.418  -2.818  -0.750  0.00  0.00    +0.047 A 
ATOM     13  C   UNL     1       0.372  -1.985   0.360  0.00  0.00    +0.026 A 
ATOM     14  C   UNL     1       0.445  -0.615   0.197  0.00  0.00    +0.005 A 
ENDBRANCH   1  12
BRANCH   4  15
ATOM     15  C   UNL     1       1.578  -7.434   0.567  0.00  0.00    +0.143 C 
ATOM     16  N   UNL     1       2.712  -7.274   1.181  0.00  0.00    -0.170 NA
BRANCH  16  17
ATOM     17  N   UNL     1       3.435  -8.390   1.622  0.00  0.00    -0.182 N 
ATOM     18  C   UNL     1       3.598  -8.603   2.954  0.00  0.00    +0.132 A 
ATOM     19  N   UNL     1       4.254  -9.614   3.440  0.00  0.00    -0.232 NA
ATOM     20  C   UNL     1       4.830 -10.540   2.635  0.00  0.00    +0.078 A 
ATOM     21  C   UNL     1       5.536 -11.628   3.155  0.00  0.00    +0.028 A 
ATOM     22  C   UNL     1       6.103 -12.542   2.296  0.00  0.00    +0.002 A 
ATOM     23  C   UNL     1       5.982 -12.397   0.920  0.00  0.00    +0.001 A 
ATOM     24  C   UNL     1       5.296 -11.340   0.387  0.00  0.00    +0.015 A 
ATOM     25  C   UNL     1       4.712 -10.400   1.234  0.00  0.00    +0.067 A 
ATOM     26  C   UNL     1       3.959  -9.249   0.717  0.00  0.00    +0.282 A 
ATOM     27  O   UNL     1       3.816  -9.073  -0.479  0.00  0.00    -0.265 OA
ATOM     28  C   UNL     1       2.987  -7.618   3.917  0.00  0.00    +0.088 C 
ENDBRANCH  16  17
ENDBRANCH   4  15
TORSDOF 3
