REMARK  Name = ZINC48953920
REMARK  5 active torsions:
REMARK  status: ('A' for Active; 'I' for Inactive)
REMARK    1  A    between atoms: C_1  and  C_2
REMARK    2  A    between atoms: C_3  and  C_21
REMARK    3  A    between atoms: C_9  and  C_11
REMARK    4  A    between atoms: C_11  and  N_12
REMARK    5  A    between atoms: C_16  and  O_19
REMARK                            x       y       z     vdW  Elec       q    Type
REMARK                         _______ _______ _______ _____ _____    ______ ____
ROOT
ATOM      1  C   UNL     1      -0.018   1.503   0.010  0.00  0.00    +0.045 C 
ATOM      2  C   UNL     1       0.002  -0.004   0.002  0.00  0.00    -0.028 A 
ATOM      3  C   UNL     1       0.006  -0.676  -1.158  0.00  0.00    -0.008 A 
ATOM      4  S   UNL     1       0.031  -2.385  -0.653  0.00  0.00    -0.074 S 
ATOM      5  C   UNL     1       0.036  -2.154   1.105  0.00  0.00    +0.114 A 
ATOM      6  C   UNL     1       0.024  -0.746   1.252  0.00  0.00    +0.048 A 
ATOM      7  C   UNL     1       0.030  -0.274   2.585  0.00  0.00    +0.141 A 
ATOM      8  N   UNL     1       0.051  -1.142   3.576  0.00  0.00    -0.222 NA
ATOM      9  C   UNL     1       0.067  -2.447   3.371  0.00  0.00    +0.116 A 
ATOM     10  N   UNL     1       0.051  -2.951   2.152  0.00  0.00    -0.227 NA
ATOM     11 CL   UNL     1       0.010   1.431   2.912  0.00  0.00    -0.061 Cl
ATOM     12  C   UNL     1      -0.009  -0.118  -2.558  0.00  0.00    +0.052 C 
ENDROOT
BRANCH   9  13
ATOM     13  C   UNL     1       0.090  -3.379   4.555  0.00  0.00    -0.001 C 
BRANCH  13  14
ATOM     14  N   UNL     1      -1.287  -3.701   4.952  0.00  0.00    +0.386 N 
ATOM     15  C   UNL     1      -1.944  -4.447   3.873  0.00  0.00    -0.078 C 
ATOM     16  C   UNL     1      -3.404  -4.714   4.248  0.00  0.00    -0.016 C 
ATOM     17  C   UNL     1      -3.450  -5.535   5.541  0.00  0.00    +0.027 C 
ATOM     18  C   UNL     1      -2.697  -4.781   6.640  0.00  0.00    +0.098 C 
ATOM     19  C   UNL     1      -1.264  -4.511   6.176  0.00  0.00    -0.047 C 
ATOM     20  H   UNL     1      -1.794  -2.846   5.125  0.00  0.00    -0.081 HD
BRANCH  18  21
ATOM     21  O   UNL     1      -2.673  -5.571   7.830  0.00  0.00    -0.394 OA
ATOM     22  H   UNL     1      -3.550  -5.783   8.179  0.00  0.00    +0.210 HD
ENDBRANCH  18  21
ENDBRANCH  13  14
ENDBRANCH   9  13
TORSDOF 3
