REMARK  Name = ZINC40688482
REMARK  5 active torsions:
REMARK  status: ('A' for Active; 'I' for Inactive)
REMARK    1  A    between atoms: C_1  and  C_2
REMARK    2  A    between atoms: C_2  and  C_3
REMARK    3  A    between atoms: C_6  and  N_9
REMARK    4  A    between atoms: C_11  and  N_24
REMARK    5  A    between atoms: C_12  and  N_16
REMARK                            x       y       z     vdW  Elec       q    Type
REMARK                         _______ _______ _______ _____ _____    ______ ____
ROOT
ATOM      1  N   UNL     1      -5.314  -1.989   0.043  0.00  0.00    -0.298 N 
ATOM      2  C   UNL     1      -6.012  -2.126  -1.151  0.00  0.00    +0.149 A 
ATOM      3  C   UNL     1      -7.359  -2.497  -1.147  0.00  0.00    +0.106 A 
ATOM      4  C   UNL     1      -8.013  -2.619  -2.374  0.00  0.00    +0.150 A 
ATOM      5  N   UNL     1      -7.333  -2.379  -3.493  0.00  0.00    -0.219 NA
ATOM      6  C   UNL     1      -6.063  -2.031  -3.453  0.00  0.00    +0.225 A 
ATOM      7  N   UNL     1      -5.410  -1.899  -2.316  0.00  0.00    -0.219 NA
ATOM      8  H   UNL     1      -5.737  -2.227   0.883  0.00  0.00    +0.154 HD
ENDROOT
BRANCH   4   9
ATOM      9  N   UNL     1      -9.353  -2.987  -2.426  0.00  0.00    -0.283 N 
ATOM     10  C   UNL     1      -9.966  -3.211  -3.656  0.00  0.00    +0.124 A 
ATOM     11  C   UNL     1     -11.273  -3.685  -3.698  0.00  0.00    +0.045 A 
ATOM     12  C   UNL     1     -11.870  -3.903  -4.926  0.00  0.00    +0.025 A 
ATOM     13  C   UNL     1     -11.137  -3.639  -6.076  0.00  0.00    +0.059 A 
ATOM     14  C   UNL     1      -9.843  -3.169  -5.960  0.00  0.00    +0.132 A 
ATOM     15  N   UNL     1      -9.301  -2.966  -4.774  0.00  0.00    -0.239 NA
ATOM     16 CL   UNL     1     -11.839  -3.896  -7.643  0.00  0.00    -0.082 Cl
ATOM     17  H   UNL     1      -9.861  -3.087  -1.606  0.00  0.00    +0.155 HD
ENDBRANCH   4   9
BRANCH   1  21
ATOM     18  C   UNL     1      -1.403  -0.556   0.016  0.00  0.00    -0.048 A 
ATOM     19  C   UNL     1      -2.310  -0.105  -0.926  0.00  0.00    +0.005 A 
ATOM     20  C   UNL     1      -3.607  -0.579  -0.920  0.00  0.00    +0.023 A 
ATOM     21  C   UNL     1      -4.001  -1.508   0.034  0.00  0.00    +0.032 A 
ATOM     22  C   UNL     1      -3.088  -1.959   0.979  0.00  0.00    +0.023 A 
ATOM     23  C   UNL     1      -1.791  -1.486   0.964  0.00  0.00    +0.005 A 
BRANCH  18  25
ATOM     24  C   UNL     1       0.875  -0.930  -0.887  0.00  0.00    +0.009 C 
ATOM     25  C   UNL     1       0.011  -0.038   0.006  0.00  0.00    +0.032 C 
ENDBRANCH  18  25
ENDBRANCH   1  21
BRANCH   3  26
ATOM     26  N   UNL     1      -8.036  -2.741   0.059  0.00  0.00    -0.353 N 
ATOM     27  H   UNL     1      -7.568  -2.652   0.904  0.00  0.00    +0.143 HD
ATOM     28  H   UNL     1      -8.971  -2.998   0.046  0.00  0.00    +0.143 HD
ENDBRANCH   3  26
TORSDOF 4
