REMARK  Name = ZINC07372027
REMARK  6 active torsions:
REMARK  status: ('A' for Active; 'I' for Inactive)
REMARK    1  A    between atoms: C_1  and  N_2
REMARK    2  A    between atoms: C_3  and  C_23
REMARK    3  A    between atoms: C_6  and  S_7
REMARK    4  A    between atoms: S_7  and  C_8
REMARK    5  A    between atoms: C_8  and  C_9
REMARK    6  A    between atoms: N_15  and  C_16
REMARK                            x       y       z     vdW  Elec       q    Type
REMARK                         _______ _______ _______ _____ _____    ______ ____
ROOT
ATOM      1  C   UNL     1       0.556   5.715   0.033  0.00  0.00    +0.146 A 
ATOM      2  N   UNL     1       0.807   6.358   1.161  0.00  0.00    -0.199 NA
ATOM      3  C   UNL     1       0.970   7.678   1.153  0.00  0.00    +0.217 A 
ATOM      4  N   UNL     1       0.870   8.352   0.013  0.00  0.00    -0.181 NA
ATOM      5  C   UNL     1       0.612   7.703  -1.118  0.00  0.00    +0.224 A 
ATOM      6  N   UNL     1       0.456   6.381  -1.103  0.00  0.00    -0.198 NA
ATOM      7  N   UNL     1       0.508   8.399  -2.306  0.00  0.00    -0.284 N 
ATOM      8  N   UNL     1       1.238   8.348   2.330  0.00  0.00    -0.327 N 
ATOM      9  H   UNL     1       0.400   7.918  -3.142  0.00  0.00    +0.155 HD
ATOM     10  H   UNL     1       1.353   9.311   2.324  0.00  0.00    +0.145 HD
ATOM     11  H   UNL     1       1.310   7.856   3.162  0.00  0.00    +0.145 HD
ENDROOT
BRANCH   7  12
ATOM     12  C   UNL     1       0.558   9.796  -2.305  0.00  0.00    +0.034 A 
ATOM     13  C   UNL     1       0.034  10.511  -1.236  0.00  0.00    +0.023 A 
ATOM     14  C   UNL     1       0.090  11.891  -1.235  0.00  0.00    +0.002 A 
ATOM     15  C   UNL     1       0.657  12.562  -2.303  0.00  0.00    +0.000 A 
ATOM     16  C   UNL     1       1.175  11.854  -3.372  0.00  0.00    +0.002 A 
ATOM     17  C   UNL     1       1.127  10.473  -3.376  0.00  0.00    +0.023 A 
ENDBRANCH   7  12
BRANCH   1  18
ATOM     18  C   UNL     1       0.377   4.218   0.045  0.00  0.00    +0.153 C 
BRANCH  18  19
ATOM     19  S   UNL     1       1.980   3.418  -0.216  0.00  0.00    -0.078 S 
BRANCH  19  25
ATOM     20  C   UNL     1       3.752   0.643  -0.524  0.00  0.00    +0.153 C 
ATOM     21  N   UNL     1       2.304   0.640  -0.297  0.00  0.00    -0.302 N 
ATOM     22  C   UNL     1       1.489  -0.452  -0.181  0.00  0.00    +0.238 A 
ATOM     23  N   UNL     1       0.278  -0.013   0.014  0.00  0.00    -0.124 NA
ATOM     24  N   UNL     1       0.272   1.272   0.029  0.00  0.00    -0.122 NA
ATOM     25  C   UNL     1       1.490   1.726  -0.157  0.00  0.00    +0.192 A 
BRANCH  22  26
ATOM     26  C   UNL     1       1.913  -1.896  -0.264  0.00  0.00    +0.452 C 
ATOM     27  F   UNL     1       0.784  -2.704  -0.441  0.00  0.00    -0.163 F 
ATOM     28  F   UNL     1       2.782  -2.065  -1.347  0.00  0.00    -0.163 F 
ATOM     29  F   UNL     1       2.565  -2.259   0.919  0.00  0.00    -0.163 F 
ENDBRANCH  22  26
ENDBRANCH  19  25
ENDBRANCH  18  19
ENDBRANCH   1  18
TORSDOF 5
