REMARK  Name = ZINC03947416
REMARK  12 active torsions:
REMARK  status: ('A' for Active; 'I' for Inactive)
REMARK    1  A    between atoms: C_1  and  C_2
REMARK    2  A    between atoms: C_5  and  C_30
REMARK    3  A    between atoms: C_8  and  C_26
REMARK    4  A    between atoms: C_8  and  O_29
REMARK    5  A    between atoms: C_11  and  O_14
REMARK    6  A    between atoms: O_14  and  C_15
REMARK    7  A    between atoms: C_15  and  C_17
REMARK    8  A    between atoms: C_20  and  O_25
REMARK    9  A    between atoms: C_21  and  O_23
REMARK   10  A    between atoms: O_23  and  C_24
REMARK   11  A    between atoms: C_26  and  C_27
REMARK   12  A    between atoms: C_26  and  C_28
REMARK                            x       y       z     vdW  Elec       q    Type
REMARK                         _______ _______ _______ _____ _____    ______ ____
ROOT
ATOM      1  C   UNL     1       2.547   2.026  -3.467  0.00  0.00    +0.039 C 
ATOM      2  C   UNL     1       3.320   2.053  -2.174  0.00  0.00    -0.073 C 
ATOM      3  C   UNL     1       3.437   0.935  -1.526  0.00  0.00    -0.027 C 
ATOM      4  C   UNL     1       4.102   0.832  -0.190  0.00  0.00    +0.034 C 
ATOM      5  C   UNL     1       5.490   1.482  -0.213  0.00  0.00    -0.020 C 
ATOM      6  C   UNL     1       6.321   0.839   0.940  0.00  0.00    +0.010 C 
ATOM      7  C   UNL     1       5.701   1.488   2.204  0.00  0.00    +0.036 C 
ATOM      8  C   UNL     1       5.413   2.944   1.780  0.00  0.00    +0.075 C 
ATOM      9  C   UNL     1       5.321   2.940   0.248  0.00  0.00    +0.068 C 
ATOM     10  C   UNL     1       3.959   3.464  -0.211  0.00  0.00    +0.187 C 
ATOM     11  C   UNL     1       3.892   3.371  -1.739  0.00  0.00    +0.075 C 
ATOM     12  C   UNL     1       6.179   1.373  -1.575  0.00  0.00    +0.012 C 
ENDROOT
BRANCH   8  13
ATOM     13  C   UNL     1       4.087   3.414   2.384  0.00  0.00    +0.015 C 
ATOM     14  C   UNL     1       4.001   2.957   3.842  0.00  0.00    +0.010 C 
ATOM     15  C   UNL     1       4.012   4.941   2.323  0.00  0.00    +0.010 C 
ENDBRANCH   8  13
BRANCH   8  16
ATOM     16  O   UNL     1       6.476   3.799   2.206  0.00  0.00    -0.388 OA
ATOM     17  H   UNL     1       6.585   3.844   3.166  0.00  0.00    +0.210 HD
ENDBRANCH   8  16
BRANCH  10  18
ATOM     18  O   UNL     1       2.903   2.657   0.373  0.00  0.00    -0.457 OA
BRANCH  18  19
ATOM     19  C   UNL     1       1.727   3.269   0.613  0.00  0.00    +0.340 C 
ATOM     20  O   UNL     1       1.587   4.445   0.341  0.00  0.00    -0.245 OA
BRANCH  19  21
ATOM     21  C   UNL     1       0.609   2.512   1.206  0.00  0.00    +0.063 A 
ATOM     22  C   UNL     1       0.767   1.159   1.519  0.00  0.00    +0.019 A 
ATOM     23  C   UNL     1      -0.278   0.453   2.072  0.00  0.00    +0.050 A 
ATOM     24  C   UNL     1      -1.493   1.081   2.315  0.00  0.00    +0.158 A 
ATOM     25  C   UNL     1      -1.657   2.431   2.009  0.00  0.00    +0.162 A 
ATOM     26  C   UNL     1      -0.613   3.145   1.454  0.00  0.00    +0.064 A 
BRANCH  25  27
ATOM     27  O   UNL     1      -2.846   3.044   2.253  0.00  0.00    -0.491 OA
ATOM     28  C   UNL     1      -2.945   4.428   1.910  0.00  0.00    +0.277 C 
ENDBRANCH  25  27
BRANCH  24  29
ATOM     29  O   UNL     1      -2.522   0.379   2.855  0.00  0.00    -0.503 OA
ATOM     30  H   UNL     1      -2.545   0.396   3.822  0.00  0.00    +0.292 HD
ENDBRANCH  24  29
ENDBRANCH  19  21
ENDBRANCH  18  19
ENDBRANCH  10  18
TORSDOF 7
