REMARK  Name = ZINC16852224
REMARK  6 active torsions:
REMARK  status: ('A' for Active; 'I' for Inactive)
REMARK    1  A    between atoms: C_1  and  C_2
REMARK    2  A    between atoms: C_2  and  C_3
REMARK    3  A    between atoms: C_6  and  C_13
REMARK    4  A    between atoms: C_13  and  C_15
REMARK    5  A    between atoms: C_13  and  N_18
REMARK    6  A    between atoms: N_18  and  C_19
REMARK                            x       y       z     vdW  Elec       q    Type
REMARK                         _______ _______ _______ _____ _____    ______ ____
ROOT
ATOM      1  C   UNL     1      -1.229  -0.874   0.009  0.00  0.00    +0.188 C 
ENDROOT
BRANCH   1   4
ATOM      2  C   UNL     1       2.183   0.719  -0.015  0.00  0.00    +0.042 C 
ATOM      3  C   UNL     1       1.242  -0.462  -0.012  0.00  0.00    -0.012 C 
ATOM      4  C   UNL     1       0.002  -0.004   0.002  0.00  0.00    -0.014 C 
ATOM      5  C   UNL     1      -0.018   1.470   0.010  0.00  0.00    -0.016 A 
ATOM      6  C   UNL     1       1.297   1.940   0.000  0.00  0.00    -0.033 A 
ATOM      7  C   UNL     1       1.555   3.291   0.005  0.00  0.00    +0.005 A 
ATOM      8  C   UNL     1       0.506   4.196   0.021  0.00  0.00    +0.000 A 
ATOM      9  C   UNL     1      -0.801   3.742   0.031  0.00  0.00    +0.001 A 
ATOM     10  C   UNL     1      -1.070   2.389   0.030  0.00  0.00    +0.008 A 
BRANCH   2  12
ATOM     11  C   UNL     1       3.980  -0.505  -1.246  0.00  0.00    +0.005 C 
ATOM     12  C   UNL     1       3.046   0.706  -1.279  0.00  0.00    +0.009 C 
ENDBRANCH   2  12
ENDBRANCH   1   4
BRANCH   1  13
ATOM     13  C   UNL     1      -1.973  -0.680   1.305  0.00  0.00    +0.235 C 
ATOM     14  O   UNL     1      -3.115  -0.272   1.293  0.00  0.00    -0.274 OA
ATOM     15  N   UNL     1      -1.370  -0.960   2.477  0.00  0.00    -0.328 N 
ATOM     16  H   UNL     1      -0.456  -1.287   2.487  0.00  0.00    +0.145 HD
ATOM     17  H   UNL     1      -1.849  -0.836   3.311  0.00  0.00    +0.145 HD
ENDBRANCH   1  13
BRANCH   1  18
ATOM     18  N   UNL     1      -2.095  -0.502  -1.112  0.00  0.00    -0.329 N 
ATOM     19  H   UNL     1      -2.048   0.391  -1.487  0.00  0.00    +0.147 HD
BRANCH  18  20
ATOM     20  C   UNL     1      -2.990  -1.435  -1.642  0.00  0.00    +0.028 A 
ATOM     21  C   UNL     1      -3.055  -2.717  -1.111  0.00  0.00    +0.024 A 
ATOM     22  C   UNL     1      -3.945  -3.635  -1.633  0.00  0.00    +0.017 A 
ATOM     23  C   UNL     1      -4.763  -3.283  -2.692  0.00  0.00    +0.018 A 
ATOM     24  C   UNL     1      -4.696  -2.009  -3.227  0.00  0.00    +0.017 A 
ATOM     25  C   UNL     1      -3.813  -1.085  -2.705  0.00  0.00    +0.024 A 
ATOM     26 BR   UNL     1      -5.974  -4.546  -3.409  0.00  0.00    -0.050 Br
ENDBRANCH  18  20
ENDBRANCH   1  18
TORSDOF 5
