REMARK  Name = ZINC14415511
REMARK  15 active torsions:
REMARK  status: ('A' for Active; 'I' for Inactive)
REMARK    1  A    between atoms: C_1  and  C_2
REMARK    2  A    between atoms: C_2  and  C_3
REMARK    3  A    between atoms: C_3  and  C_4
REMARK    4  A    between atoms: C_4  and  C_5
REMARK    5  A    between atoms: C_5  and  C_6
REMARK    6  A    between atoms: C_10  and  O_35
REMARK    7  A    between atoms: C_11  and  C_12
REMARK    8  A    between atoms: C_14  and  C_18
REMARK    9  A    between atoms: N_20  and  C_34
REMARK   10  A    between atoms: C_21  and  C_25
REMARK   11  A    between atoms: C_25  and  C_27
REMARK   12  A    between atoms: C_25  and  O_33
REMARK   13  A    between atoms: C_27  and  C_28
REMARK   14  A    between atoms: C_27  and  C_29
REMARK   15  A    between atoms: C_27  and  C_30
REMARK                            x       y       z     vdW  Elec       q    Type
REMARK                         _______ _______ _______ _____ _____    ______ ____
ROOT
ATOM      1  C   UNL     1      -3.454  -5.542   3.810  0.00  0.00    +0.103 C 
ATOM      2  N   UNL     1      -4.462  -4.934   4.367  0.00  0.00    -0.270 NA
ATOM      3  C   UNL     1      -4.349  -4.343   5.688  0.00  0.00    +0.144 C 
ATOM      4  C   UNL     1      -2.861  -4.131   6.081  0.00  0.00    +0.105 C 
ATOM      5  S   UNL     1      -2.111  -5.408   4.979  0.00  0.00    -0.103 S 
ENDROOT
BRANCH   1  11
ATOM      6  C   UNL     1      -3.071  -5.488   1.349  0.00  0.00    -0.034 A 
ATOM      7  C   UNL     1      -3.044  -6.116   0.121  0.00  0.00    +0.004 A 
ATOM      8  C   UNL     1      -3.375  -7.455   0.014  0.00  0.00    +0.004 A 
ATOM      9  C   UNL     1      -3.735  -8.177   1.136  0.00  0.00    +0.046 A 
ATOM     10  C   UNL     1      -3.768  -7.561   2.377  0.00  0.00    +0.127 A 
ATOM     11  C   UNL     1      -3.428  -6.207   2.490  0.00  0.00    +0.051 A 
BRANCH  10  12
ATOM     12  O   UNL     1      -4.122  -8.268   3.480  0.00  0.00    -0.506 OA
ATOM     13  H   UNL     1      -3.379  -8.693   3.931  0.00  0.00    +0.292 HD
ENDBRANCH  10  12
BRANCH   6  14
ATOM     14  C   UNL     1      -2.709  -4.029   1.459  0.00  0.00    +0.036 C 
BRANCH  14  15
ATOM     15  C   UNL     1      -1.230  -3.897   1.826  0.00  0.00    +0.005 C 
BRANCH  15  16
ATOM     16  C   UNL     1      -0.863  -2.416   1.938  0.00  0.00    +0.000 C 
BRANCH  16  18
ATOM     17  C   UNL     1       0.984  -0.802   2.417  0.00  0.00    +0.004 C 
ATOM     18  C   UNL     1       0.617  -2.284   2.305  0.00  0.00    -0.003 C 
ENDBRANCH  16  18
ENDBRANCH  15  16
ENDBRANCH  14  15
ENDBRANCH   6  14
ENDBRANCH   1  11
BRANCH   3  19
ATOM     19  C   UNL     1      -5.066  -2.991   5.697  0.00  0.00    +0.140 C 
ATOM     20  N   UNL     1      -6.523  -3.159   5.478  0.00  0.00    -0.286 NA
ATOM     21  C   UNL     1      -7.399  -2.303   6.268  0.00  0.00    +0.097 C 
ATOM     22  C   UNL     1      -6.657  -1.354   7.241  0.00  0.00    +0.092 C 
ATOM     23  S   UNL     1      -5.039  -2.237   7.383  0.00  0.00    -0.138 S 
ATOM     24  C   UNL     1      -6.915  -4.570   5.601  0.00  0.00    +0.106 C 
BRANCH  21  25
ATOM     25  C   UNL     1      -8.239  -1.454   5.312  0.00  0.00    +0.149 C 
BRANCH  25  26
ATOM     26  C   UNL     1      -9.111  -2.368   4.450  0.00  0.00    +0.094 C 
ATOM     27  C   UNL     1     -10.021  -3.204   5.353  0.00  0.00    +0.025 C 
ATOM     28  C   UNL     1      -9.969  -1.517   3.511  0.00  0.00    +0.025 C 
BRANCH  26  29
ATOM     29  C   UNL     1      -8.232  -3.283   3.638  0.00  0.00    +0.364 C 
ATOM     30  O   UNL     1      -8.557  -4.445   3.463  0.00  0.00    -0.246 OA
ATOM     31  O   UNL     1      -7.195  -2.861   3.155  0.00  0.00    -0.246 OA
ENDBRANCH  26  29
ENDBRANCH  25  26
BRANCH  25  32
ATOM     32  O   UNL     1      -7.374  -0.689   4.470  0.00  0.00    -0.389 OA
ATOM     33  H   UNL     1      -6.680  -1.209   4.043  0.00  0.00    +0.210 HD
ENDBRANCH  25  32
ENDBRANCH  21  25
ENDBRANCH   3  19
TORSDOF 11
