REMARK  Name = ZINC15015987
REMARK  6 active torsions:
REMARK  status: ('A' for Active; 'I' for Inactive)
REMARK    1  A    between atoms: C_1  and  C_2
REMARK    2  A    between atoms: C_5  and  C_8
REMARK    3  A    between atoms: C_8  and  S_9
REMARK    4  A    between atoms: S_9  and  C_10
REMARK    5  A    between atoms: C_23  and  C_26
REMARK    6  A    between atoms: C_30  and  O_33
REMARK                            x       y       z     vdW  Elec       q    Type
REMARK                         _______ _______ _______ _____ _____    ______ ____
ROOT
ATOM      1  C   UNL     1      -0.627   5.387   2.106  0.00  0.00    +0.213 A 
ATOM      2  N   UNL     1      -0.220   4.123   2.043  0.00  0.00    -0.184 NA
ATOM      3  C   UNL     1      -0.921   3.253   1.336  0.00  0.00    +0.248 A 
ATOM      4  C   UNL     1      -2.081   3.701   0.664  0.00  0.00    +0.156 A 
ATOM      5  N   UNL     1      -2.433   4.973   0.770  0.00  0.00    -0.141 NA
ATOM      6  N   UNL     1      -1.723   5.787   1.472  0.00  0.00    -0.122 NA
ATOM      7  C   UNL     1      -2.873   2.747  -0.140  0.00  0.00    +0.028 A 
ATOM      8  C   UNL     1      -4.257   2.679  -0.033  0.00  0.00    +0.012 A 
ATOM      9  C   UNL     1      -4.964   1.796  -0.825  0.00  0.00    +0.001 A 
ATOM     10  C   UNL     1      -4.303   0.978  -1.725  0.00  0.00    +0.002 A 
ATOM     11  C   UNL     1      -2.925   1.030  -1.837  0.00  0.00    +0.024 A 
ATOM     12  C   UNL     1      -2.203   1.905  -1.047  0.00  0.00    +0.039 A 
ATOM     13  N   UNL     1      -0.808   1.974  -1.123  0.00  0.00    -0.305 N 
ATOM     14  C   UNL     1      -0.018   1.503   0.010  0.00  0.00    +0.295 C 
ATOM     15  O   UNL     1      -0.554   1.952   1.250  0.00  0.00    -0.449 OA
ATOM     16  H   UNL     1      -0.374   2.329  -1.914  0.00  0.00    +0.150 HD
ENDROOT
BRANCH  14  17
ATOM     17  C   UNL     1       0.002  -0.004   0.002  0.00  0.00    +0.033 A 
ATOM     18  C   UNL     1      -0.914  -0.712   0.759  0.00  0.00    +0.010 A 
ATOM     19  C   UNL     1      -0.898  -2.094   0.753  0.00  0.00    +0.004 A 
ATOM     20  C   UNL     1       0.034  -2.773  -0.009  0.00  0.00    +0.047 A 
ATOM     21  C   UNL     1       0.953  -2.066  -0.770  0.00  0.00    +0.136 A 
ATOM     22  C   UNL     1       0.932  -0.678  -0.767  0.00  0.00    +0.091 A 
ATOM     23 CL   UNL     1       2.077   0.210  -1.722  0.00  0.00    -0.079 Cl
BRANCH  21  24
ATOM     24  O   UNL     1       1.870  -2.732  -1.521  0.00  0.00    -0.505 OA
ATOM     25  H   UNL     1       1.574  -2.928  -2.420  0.00  0.00    +0.292 HD
ENDBRANCH  21  24
ENDBRANCH  14  17
BRANCH   1  26
ATOM     26  S   UNL     1       0.302   6.551   3.048  0.00  0.00    -0.080 S 
BRANCH  26  27
ATOM     27  C   UNL     1      -0.691   8.040   2.776  0.00  0.00    +0.112 C 
BRANCH  27  32
ATOM     28  C   UNL     1       1.698  12.487   5.588  0.00  0.00    +0.044 C 
ATOM     29  C   UNL     1       1.074  11.328   4.855  0.00  0.00    -0.050 A 
ATOM     30  C   UNL     1       1.444  11.056   3.551  0.00  0.00    +0.003 A 
ATOM     31  C   UNL     1       0.873   9.992   2.878  0.00  0.00    +0.005 A 
ATOM     32  C   UNL     1      -0.068   9.200   3.510  0.00  0.00    -0.037 A 
ATOM     33  C   UNL     1      -0.442   9.475   4.812  0.00  0.00    +0.005 A 
ATOM     34  C   UNL     1       0.133  10.536   5.486  0.00  0.00    +0.003 A 
ENDBRANCH  27  32
ENDBRANCH  26  27
ENDBRANCH   1  26
TORSDOF 5
