REMARK  Name = ZINC61432616
REMARK  12 active torsions:
REMARK  status: ('A' for Active; 'I' for Inactive)
REMARK    1  A    between atoms: C_1  and  C_2
REMARK    2  A    between atoms: C_2  and  O_3
REMARK    3  A    between atoms: O_3  and  C_4
REMARK    4  A    between atoms: C_4  and  C_5
REMARK    5  A    between atoms: C_5  and  C_6
REMARK    6  A    between atoms: C_6  and  N_7
REMARK    7  A    between atoms: N_10  and  N_11
REMARK    8  A    between atoms: C_12  and  C_14
REMARK    9  A    between atoms: C_14  and  C_15
REMARK   10  A    between atoms: C_14  and  N_18
REMARK   11  A    between atoms: C_15  and  C_16
REMARK   12  A    between atoms: C_15  and  C_17
REMARK                            x       y       z     vdW  Elec       q    Type
REMARK                         _______ _______ _______ _____ _____    ______ ____
ROOT
ATOM      1  N   UNL     1       3.567  -4.776  -6.221  0.00  0.00    -0.231 N 
ATOM      2  C   UNL     1       4.212  -5.109  -7.357  0.00  0.00    +0.252 C 
ATOM      3  O   UNL     1       4.462  -6.272  -7.593  0.00  0.00    -0.272 OA
ATOM      4  H   UNL     1       3.432  -3.842  -5.996  0.00  0.00    +0.173 HD
ENDROOT
BRANCH   1   8
ATOM      5  N   UNL     1       2.260  -4.148  -3.917  0.00  0.00    -0.298 N 
ATOM      6  C   UNL     1       2.449  -5.446  -4.229  0.00  0.00    +0.316 C 
ATOM      7  O   UNL     1       2.038  -6.316  -3.485  0.00  0.00    -0.251 OA
ATOM      8  N   UNL     1       3.094  -5.779  -5.364  0.00  0.00    -0.218 N 
ATOM      9  H   UNL     1       2.588  -3.454  -4.510  0.00  0.00    +0.150 HD
ATOM     10  H   UNL     1       3.230  -6.713  -5.589  0.00  0.00    +0.174 HD
BRANCH   5  11
ATOM     11  C   UNL     1       1.560  -3.786  -2.682  0.00  0.00    +0.108 C 
BRANCH  11  12
ATOM     12  C   UNL     1       1.481  -2.262  -2.568  0.00  0.00    +0.047 C 
BRANCH  12  13
ATOM     13  C   UNL     1       0.749  -1.884  -1.279  0.00  0.00    +0.161 C 
BRANCH  13  14
ATOM     14  O   UNL     1       0.675  -0.461  -1.173  0.00  0.00    -0.380 OA
BRANCH  14  16
ATOM     15  C   UNL     1      -0.012   1.530   0.011  0.00  0.00    +0.034 C 
ATOM     16  C   UNL     1       0.007   0.000   0.003  0.00  0.00    +0.156 C 
ENDBRANCH  14  16
ENDBRANCH  13  14
ENDBRANCH  12  13
ENDBRANCH  11  12
ENDBRANCH   5  11
ENDBRANCH   1   8
BRANCH   2  17
ATOM     17  C   UNL     1       4.621  -4.037  -8.333  0.00  0.00    +0.178 C 
BRANCH  17  18
ATOM     18  N   UNL     1       6.008  -3.644  -8.074  0.00  0.00    -0.318 N 
ATOM     19  C   UNL     1       7.100  -4.454  -8.131  0.00  0.00    +0.201 A 
ATOM     20  N   UNL     1       8.174  -3.778  -7.844  0.00  0.00    -0.236 NA
ATOM     21  C   UNL     1       7.845  -2.487  -7.582  0.00  0.00    +0.092 A 
ATOM     22  C   UNL     1       6.452  -2.381  -7.731  0.00  0.00    +0.072 A 
ATOM     23  C   UNL     1       5.823  -1.160  -7.530  0.00  0.00    +0.069 A 
ATOM     24  C   UNL     1       6.570  -0.051  -7.186  0.00  0.00    +0.160 A 
ATOM     25  C   UNL     1       7.950  -0.150  -7.040  0.00  0.00    +0.161 A 
ATOM     26  C   UNL     1       8.587  -1.357  -7.228  0.00  0.00    +0.071 A 
ATOM     27  F   UNL     1       8.669   0.943  -6.702  0.00  0.00    -0.202 F 
ATOM     28  F   UNL     1       5.957   1.137  -6.990  0.00  0.00    -0.202 F 
ENDBRANCH  17  18
BRANCH  17  29
ATOM     29  C   UNL     1       4.502  -4.574  -9.761  0.00  0.00    +0.015 C 
ATOM     30  C   UNL     1       3.033  -4.867 -10.074  0.00  0.00    +0.010 C 
ATOM     31  C   UNL     1       5.034  -3.531 -10.745  0.00  0.00    +0.010 C 
ENDBRANCH  17  29
ENDBRANCH   2  17
TORSDOF 9
