REMARK  Name = ZINC44324771
REMARK  14 active torsions:
REMARK  status: ('A' for Active; 'I' for Inactive)
REMARK    1  A    between atoms: C_1  and  N_2
REMARK    2  A    between atoms: N_2  and  C_3
REMARK    3  A    between atoms: N_2  and  C_4
REMARK    4  A    between atoms: C_4  and  C_5
REMARK    5  A    between atoms: C_7  and  C_14
REMARK    6  A    between atoms: C_8  and  O_13
REMARK    7  A    between atoms: C_9  and  O_11
REMARK    8  A    between atoms: O_11  and  C_12
REMARK    9  A    between atoms: C_14  and  CA_15
REMARK   10  A    between atoms: CA_15  and  C_17
REMARK   11  A    between atoms: CA_15  and  N_20
REMARK   12  A    between atoms: C_21  and  O_23
REMARK   13  A    between atoms: O_23  and  C_24
REMARK   14  A    between atoms: C_24  and  C_25
REMARK                            x       y       z     vdW  Elec       q    Type
REMARK                         _______ _______ _______ _____ _____    ______ ____
ROOT
ATOM      1  CA  UNL     1       0.012  -4.911  -3.327  0.00  0.00    +0.193 C 
ENDROOT
BRANCH   1   2
ATOM      2  N   UNL     1       0.558  -6.008  -2.525  0.00  0.00    -0.267 N 
ATOM      3  C   UNL     1       1.891  -6.192  -2.454  0.00  0.00    +0.401 C 
ATOM      4  O   UNL     1       2.640  -5.448  -3.055  0.00  0.00    -0.226 OA
ATOM      5  H   UNL     1      -0.040  -6.602  -2.044  0.00  0.00    +0.153 HD
BRANCH   3   6
ATOM      6  O   UNL     1       2.394  -7.200  -1.716  0.00  0.00    -0.449 OA
BRANCH   6   7
ATOM      7  C   UNL     1       3.816  -7.336  -1.686  0.00  0.00    +0.246 C 
BRANCH   7   8
ATOM      8  C   UNL     1       4.196  -8.527  -0.803  0.00  0.00    +0.088 C 
ATOM      9  C   UNL     1       3.766  -9.817  -1.458  0.00  0.00    -0.029 A 
ATOM     10  C   UNL     1       2.530 -10.298  -1.833  0.00  0.00    +0.005 A 
ATOM     11  C   UNL     1       2.421 -11.542  -2.428  0.00  0.00    +0.000 A 
ATOM     12  C   UNL     1       3.553 -12.306  -2.648  0.00  0.00    +0.001 A 
ATOM     13  C   UNL     1       4.795 -11.833  -2.277  0.00  0.00    +0.009 A 
ATOM     14  C   UNL     1       4.911 -10.578  -1.676  0.00  0.00    -0.014 A 
ATOM     15  C   UNL     1       6.099  -9.836  -1.186  0.00  0.00    -0.014 A 
ATOM     16  C   UNL     1       5.696  -8.611  -0.662  0.00  0.00    -0.029 A 
ATOM     17  C   UNL     1       6.627  -7.737  -0.140  0.00  0.00    +0.005 A 
ATOM     18  C   UNL     1       7.968  -8.076  -0.137  0.00  0.00    +0.000 A 
ATOM     19  C   UNL     1       8.379  -9.290  -0.656  0.00  0.00    +0.001 A 
ATOM     20  C   UNL     1       7.454 -10.171  -1.179  0.00  0.00    +0.009 A 
ENDBRANCH   7   8
ENDBRANCH   6   7
ENDBRANCH   3   6
ENDBRANCH   1   2
BRANCH   1  21
ATOM     21  C   UNL     1      -0.150  -5.366  -4.755  0.00  0.00    +0.376 C 
ATOM     22  O   UNL     1      -0.053  -4.561  -5.665  0.00  0.00    -0.244 OA
ATOM     23  OXT UNL     1      -0.379  -6.538  -4.999  0.00  0.00    -0.244 OA
ENDBRANCH   1  21
BRANCH   1  24
ATOM     24  C   UNL     1      -1.350  -4.498  -2.766  0.00  0.00    +0.073 C 
BRANCH  24  27
ATOM     25  C   UNL     1      -1.204  -4.187   0.995  0.00  0.00    -0.060 A 
ATOM     26  C   UNL     1      -1.369  -4.714  -0.272  0.00  0.00    +0.009 A 
ATOM     27  C   UNL     1      -1.170  -3.920  -1.386  0.00  0.00    +0.000 A 
ATOM     28  C   UNL     1      -0.805  -2.592  -1.233  0.00  0.00    +0.162 A 
ATOM     29  C   UNL     1      -0.639  -2.061   0.042  0.00  0.00    +0.162 A 
ATOM     30  C   UNL     1      -0.844  -2.862   1.155  0.00  0.00    +0.051 A 
BRANCH  29  31
ATOM     31  O   UNL     1      -0.281  -0.758   0.197  0.00  0.00    -0.491 OA
ATOM     32  C   UNL     1      -0.128  -0.282   1.536  0.00  0.00    +0.277 C 
ENDBRANCH  29  31
BRANCH  28  33
ATOM     33  O   UNL     1      -0.608  -1.809  -2.328  0.00  0.00    -0.503 OA
ATOM     34  H   UNL     1      -1.383  -1.291  -2.585  0.00  0.00    +0.292 HD
ENDBRANCH  28  33
BRANCH  25  35
ATOM     35  C   UNL     1      -1.422  -5.058   2.206  0.00  0.00    -0.044 C 
BRANCH  35  37
ATOM     36  C   UNL     1      -3.069  -5.919   3.722  0.00  0.00    -0.096 C 
ATOM     37  N   UNL     1      -2.830  -4.980   2.618  0.00  0.00    +0.379 N 
ATOM     38  C   UNL     1      -3.136  -3.614   3.061  0.00  0.00    -0.096 C 
ATOM     39  H   UNL     1      -3.422  -5.221   1.837  0.00  0.00    -0.082 HD
ENDBRANCH  35  37
ENDBRANCH  25  35
ENDBRANCH  24  27
ENDBRANCH   1  24
TORSDOF 11
