REMARK  Name = ZINC43225745
REMARK  12 active torsions:
REMARK  status: ('A' for Active; 'I' for Inactive)
REMARK    1  A    between atoms: C_1  and  C_2
REMARK    2  A    between atoms: C_2  and  C_3
REMARK    3  A    between atoms: C_3  and  C_4
REMARK    4  A    between atoms: C_4  and  C_5
REMARK    5  A    between atoms: C_5  and  C_6
REMARK    6  A    between atoms: C_7  and  C_24
REMARK    7  A    between atoms: C_8  and  C_21
REMARK    8  A    between atoms: C_9  and  C_20
REMARK    9  A    between atoms: N_10  and  C_11
REMARK   10  A    between atoms: C_11  and  C_12
REMARK   11  A    between atoms: C_12  and  C_13
REMARK   12  A    between atoms: C_16  and  O_19
REMARK                            x       y       z     vdW  Elec       q    Type
REMARK                         _______ _______ _______ _____ _____    ______ ____
ROOT
ATOM      1  C   UNL     1       1.476  -4.028  -2.532  0.00  0.00    +0.027 A 
ATOM      2  C   UNL     1       2.444  -4.809  -1.989  0.00  0.00    +0.015 A 
ATOM      3  C   UNL     1       2.033  -6.202  -2.243  0.00  0.00    +0.065 A 
ATOM      4  C   UNL     1       0.848  -6.129  -2.919  0.00  0.00    +0.029 A 
ATOM      5  N   UNL     1       0.522  -4.832  -3.081  0.00  0.00    -0.346 N 
ATOM      6  C   UNL     1       0.037  -7.305  -3.398  0.00  0.00    +0.064 C 
ENDROOT
BRANCH   2   7
ATOM      7  C   UNL     1       3.666  -4.354  -1.284  0.00  0.00    -0.015 A 
ATOM      8  C   UNL     1       4.644  -3.637  -1.972  0.00  0.00    +0.010 A 
ATOM      9  C   UNL     1       5.780  -3.216  -1.312  0.00  0.00    +0.020 A 
ATOM     10  C   UNL     1       5.950  -3.504   0.031  0.00  0.00    +0.041 A 
ATOM     11  C   UNL     1       4.982  -4.216   0.719  0.00  0.00    +0.020 A 
ATOM     12  C   UNL     1       3.839  -4.636   0.070  0.00  0.00    +0.010 A 
ATOM     13 CL   UNL     1       7.381  -2.971   0.856  0.00  0.00    -0.084 Cl
ENDBRANCH   2   7
BRANCH   3  14
ATOM     14  C   UNL     1       2.753  -7.422  -1.847  0.00  0.00    +0.244 C 
ATOM     15  O   UNL     1       2.528  -7.939  -0.770  0.00  0.00    -0.270 OA
ATOM     16  N   UNL     1       3.662  -7.968  -2.680  0.00  0.00    -0.325 N 
ATOM     17  H   UNL     1       3.841  -7.556  -3.539  0.00  0.00    +0.145 HD
ATOM     18  H   UNL     1       4.136  -8.773  -2.420  0.00  0.00    +0.145 HD
ENDBRANCH   3  14
BRANCH   1  19
ATOM     19  C   UNL     1       1.455  -2.521  -2.524  0.00  0.00    +0.054 C 
BRANCH  19  20
ATOM     20  C   UNL     1       0.739  -2.027  -1.265  0.00  0.00    +0.006 C 
BRANCH  20  21
ATOM     21  C   UNL     1       0.718  -0.497  -1.257  0.00  0.00    +0.000 C 
BRANCH  21  23
ATOM     22  C   UNL     1      -0.019   1.526   0.010  0.00  0.00    +0.004 C 
ATOM     23  C   UNL     1       0.002  -0.004   0.002  0.00  0.00    -0.003 C 
ENDBRANCH  21  23
ENDBRANCH  20  21
ENDBRANCH  19  20
ENDBRANCH   1  19
BRANCH   5  24
ATOM     24  C   UNL     1      -0.686  -4.353  -3.756  0.00  0.00    +0.126 C 
BRANCH  24  25
ATOM     25  C   UNL     1      -0.398  -4.169  -5.248  0.00  0.00    +0.056 C 
BRANCH  25  26
ATOM     26  C   UNL     1      -1.641  -3.676  -5.942  0.00  0.00    -0.045 A 
ATOM     27  C   UNL     1      -2.548  -4.582  -6.460  0.00  0.00    +0.007 A 
ATOM     28  C   UNL     1      -3.688  -4.133  -7.097  0.00  0.00    +0.045 A 
ATOM     29  C   UNL     1      -3.923  -2.771  -7.218  0.00  0.00    +0.117 A 
ATOM     30  C   UNL     1      -3.012  -1.864  -6.697  0.00  0.00    +0.045 A 
ATOM     31  C   UNL     1      -1.876  -2.318  -6.056  0.00  0.00    +0.007 A 
BRANCH  29  32
ATOM     32  O   UNL     1      -5.044  -2.327  -7.845  0.00  0.00    -0.507 OA
ATOM     33  H   UNL     1      -5.802  -2.205  -7.257  0.00  0.00    +0.292 HD
ENDBRANCH  29  32
ENDBRANCH  25  26
ENDBRANCH  24  25
ENDBRANCH   5  24
TORSDOF 10
