REMARK  Name = ZINC39865253
REMARK  6 active torsions:
REMARK  status: ('A' for Active; 'I' for Inactive)
REMARK    1  A    between atoms: C_1  and  C_2
REMARK    2  A    between atoms: C_2  and  N_3
REMARK    3  A    between atoms: C_7  and  C_8
REMARK    4  A    between atoms: C_12  and  O_14
REMARK    5  A    between atoms: N_17  and  C_18
REMARK    6  A    between atoms: C_20  and  C_23
REMARK                            x       y       z     vdW  Elec       q    Type
REMARK                         _______ _______ _______ _____ _____    ______ ____
ROOT
ATOM      1  N   UNL     1      -1.114  -1.517   0.116  0.00  0.00    -0.246 N 
ATOM      2  C   UNL     1      -1.806  -1.415   1.238  0.00  0.00    +0.259 C 
ATOM      3  O   UNL     1      -1.265  -1.170   2.300  0.00  0.00    -0.269 OA
ATOM      4  C   UNL     1      -3.267  -1.612   1.142  0.00  0.00    +0.078 C 
ATOM      5  C   UNL     1      -4.208  -1.565   2.118  0.00  0.00    +0.028 C 
ATOM      6  S   UNL     1      -3.461  -1.929  -0.606  0.00  0.00    -0.049 S 
ATOM      7  C   UNL     1      -1.744  -1.789  -1.077  0.00  0.00    +0.171 C 
ATOM      8  N   UNL     1      -1.211  -1.918  -2.274  0.00  0.00    -0.199 NA
ENDROOT
BRANCH   5   9
ATOM      9  C   UNL     1      -5.593  -1.957   1.823  0.00  0.00    -0.020 A 
ATOM     10  C   UNL     1      -5.884  -2.700   0.673  0.00  0.00    +0.008 A 
ATOM     11  C   UNL     1      -7.185  -3.065   0.400  0.00  0.00    +0.004 A 
ATOM     12  C   UNL     1      -8.206  -2.699   1.260  0.00  0.00    +0.045 A 
ATOM     13  C   UNL     1      -7.929  -1.962   2.404  0.00  0.00    +0.117 A 
ATOM     14  C   UNL     1      -6.627  -1.594   2.693  0.00  0.00    +0.053 A 
BRANCH  13  15
ATOM     15  O   UNL     1      -8.937  -1.607   3.243  0.00  0.00    -0.507 OA
ATOM     16  H   UNL     1      -9.114  -2.253   3.941  0.00  0.00    +0.292 HD
ENDBRANCH  13  15
ENDBRANCH   5   9
BRANCH   8  17
ATOM     17  C   UNL     1      -2.002  -2.189  -3.344  0.00  0.00    +0.195 A 
ATOM     18  N   UNL     1      -1.667  -2.361  -4.619  0.00  0.00    -0.226 NA
ATOM     19  C   UNL     1      -2.579  -2.621  -5.532  0.00  0.00    +0.048 A 
ATOM     20  C   UNL     1      -3.884  -2.718  -5.176  0.00  0.00    +0.071 A 
ATOM     21  S   UNL     1      -3.774  -2.421  -3.416  0.00  0.00    -0.056 S 
ATOM     22  C   UNL     1      -2.174  -2.810  -6.971  0.00  0.00    +0.066 C 
ENDBRANCH   8  17
BRANCH   1  24
ATOM     23  C   UNL     1       0.670   0.144  -0.079  0.00  0.00    +0.025 C 
ATOM     24  C   UNL     1       0.340  -1.333   0.142  0.00  0.00    +0.112 C 
ENDBRANCH   1  24
TORSDOF 4
