REMARK  Name = ZINC58988463
REMARK  10 active torsions:
REMARK  status: ('A' for Active; 'I' for Inactive)
REMARK    1  A    between atoms: C_2  and  C_3
REMARK    2  A    between atoms: C_3  and  C_4
REMARK    3  A    between atoms: C_8  and  C_11
REMARK    4  A    between atoms: C_9  and  O_10
REMARK    5  A    between atoms: N_12  and  N_13
REMARK    6  A    between atoms: C_14  and  C_16
REMARK    7  A    between atoms: C_16  and  S_17
REMARK    8  A    between atoms: S_17  and  C_18
REMARK    9  A    between atoms: C_21  and  C_24
REMARK   10  A    between atoms: N_22  and  N_23
REMARK                            x       y       z     vdW  Elec       q    Type
REMARK                         _______ _______ _______ _____ _____    ______ ____
ROOT
ATOM      1  N   UNL     1       1.069  -6.805  -0.847  0.00  0.00    -0.206 N 
ATOM      2  C   UNL     1       1.742  -7.147   0.269  0.00  0.00    +0.242 C 
ATOM      3  O   UNL     1       1.902  -6.333   1.155  0.00  0.00    -0.273 OA
ATOM      4  H   UNL     1       0.941  -7.456  -1.555  0.00  0.00    +0.177 HD
ENDROOT
BRANCH   1   6
ATOM      5  C   UNL     1      -0.095  -5.181  -2.060  0.00  0.00    +0.142 C 
ATOM      6  N   UNL     1       0.553  -5.510  -0.985  0.00  0.00    -0.188 NA
BRANCH   5  11
ATOM      7  C   UNL     1      -0.969  -1.597  -1.331  0.00  0.00    -0.002 A 
ATOM      8  C   UNL     1      -1.658  -1.254  -2.480  0.00  0.00    +0.007 A 
ATOM      9  C   UNL     1      -1.840  -2.182  -3.490  0.00  0.00    +0.001 A 
ATOM     10  C   UNL     1      -1.335  -3.459  -3.360  0.00  0.00    +0.013 A 
ATOM     11  C   UNL     1      -0.637  -3.818  -2.205  0.00  0.00    +0.036 A 
ATOM     12  C   UNL     1      -0.451  -2.873  -1.187  0.00  0.00    +0.129 A 
BRANCH  12  13
ATOM     13  O   UNL     1       0.232  -3.209  -0.062  0.00  0.00    -0.506 OA
ATOM     14  H   UNL     1      -0.325  -3.569   0.642  0.00  0.00    +0.292 HD
ENDBRANCH  12  13
BRANCH   7  15
ATOM     15  C   UNL     1      -0.777  -0.579  -0.237  0.00  0.00    +0.065 C 
BRANCH  15  17
ATOM     16  C   UNL     1       0.623   1.406  -0.492  0.00  0.00    +0.004 C 
ATOM     17  C   UNL     1       0.557   0.100  -0.411  0.00  0.00    -0.030 C 
ENDBRANCH  15  17
ENDBRANCH   7  15
ENDBRANCH   5  11
ENDBRANCH   1   6
BRANCH   2  18
ATOM     18  C   UNL     1       2.297  -8.541   0.418  0.00  0.00    +0.174 C 
BRANCH  18  19
ATOM     19  S   UNL     1       3.142  -8.688   2.016  0.00  0.00    -0.075 S 
BRANCH  19  20
ATOM     20  C   UNL     1       3.726 -10.350   2.038  0.00  0.00    +0.209 A 
ATOM     21  N   UNL     1       3.569 -11.244   1.087  0.00  0.00    -0.121 NA
ATOM     22  N   UNL     1       4.120 -12.354   1.430  0.00  0.00    -0.127 NA
ATOM     23  C   UNL     1       4.662 -12.236   2.619  0.00  0.00    +0.183 A 
ATOM     24  N   UNL     1       4.432 -10.948   3.043  0.00  0.00    -0.224 N 
BRANCH  23  25
ATOM     25  C   UNL     1       5.389 -13.289   3.361  0.00  0.00    +0.035 A 
ATOM     26  C   UNL     1       5.091 -13.533   4.703  0.00  0.00    +0.013 A 
ATOM     27  C   UNL     1       5.772 -14.516   5.390  0.00  0.00    +0.001 A 
ATOM     28  C   UNL     1       6.749 -15.261   4.752  0.00  0.00    +0.001 A 
ATOM     29  C   UNL     1       7.050 -15.024   3.422  0.00  0.00    +0.016 A 
ATOM     30  C   UNL     1       6.372 -14.046   2.721  0.00  0.00    +0.029 A 
ATOM     31 BR   UNL     1       6.778 -13.730   0.902  0.00  0.00    -0.050 Br
ENDBRANCH  23  25
BRANCH  24  32
ATOM     32  N   UNL     1       4.825 -10.384   4.223  0.00  0.00    -0.295 N 
ATOM     33  H   UNL     1       4.163 -10.586   4.958  0.00  0.00    +0.163 HD
ATOM     34  H   UNL     1       5.753 -10.689   4.479  0.00  0.00    +0.163 HD
ENDBRANCH  24  32
ENDBRANCH  19  20
ENDBRANCH  18  19
ENDBRANCH   2  18
TORSDOF 10
