REMARK  Name = ZINC27820960
REMARK  5 active torsions:
REMARK  status: ('A' for Active; 'I' for Inactive)
REMARK    1  A    between atoms: C_4  and  S_20
REMARK    2  A    between atoms: C_5  and  N_7
REMARK    3  A    between atoms: C_8  and  C_10
REMARK    4  A    between atoms: S_20  and  C_21
REMARK    5  A    between atoms: C_21  and  C_22
REMARK                            x       y       z     vdW  Elec       q    Type
REMARK                         _______ _______ _______ _____ _____    ______ ____
ROOT
ATOM      1  N   UNL     1      -3.564   3.354   3.991  0.00  0.00    -0.281 N 
ATOM      2  C   UNL     1      -4.401   3.260   5.043  0.00  0.00    +0.248 C 
ATOM      3  O   UNL     1      -5.602   3.343   4.873  0.00  0.00    -0.270 OA
ATOM      4  H   UNL     1      -2.485   3.188   4.130  0.00  0.00    +0.155 HD
ENDROOT
BRANCH   2   5
ATOM      5  C   UNL     1      -3.860   3.056   6.401  0.00  0.00    +0.042 A 
ATOM      6  C   UNL     1      -4.726   2.964   7.493  0.00  0.00    +0.062 A 
ATOM      7  C   UNL     1      -4.217   2.768   8.762  0.00  0.00    +0.168 A 
ATOM      8  C   UNL     1      -2.838   2.673   8.953  0.00  0.00    +0.184 A 
ATOM      9  C   UNL     1      -1.977   2.770   7.867  0.00  0.00    +0.087 A 
ATOM     10  C   UNL     1      -2.481   2.960   6.598  0.00  0.00    +0.037 A 
ATOM     11 CL   UNL     1      -0.262   2.652   8.110  0.00  0.00    -0.080 Cl
ATOM     12  O   UNL     1      -2.595   2.488  10.282  0.00  0.00    -0.451 OA
ATOM     13  C   UNL     1      -3.848   2.061  10.848  0.00  0.00    +0.466 C 
ATOM     14  O   UNL     1      -4.834   2.642   9.973  0.00  0.00    -0.453 OA
ENDBRANCH   2   5
BRANCH   1  19
ATOM     15  C   UNL     1      -5.758   4.656   1.340  0.00  0.00    +0.002 A 
ATOM     16  C   UNL     1      -5.066   4.268   0.207  0.00  0.00    +0.001 A 
ATOM     17  C   UNL     1      -3.873   3.579   0.322  0.00  0.00    +0.016 A 
ATOM     18  C   UNL     1      -3.366   3.275   1.577  0.00  0.00    +0.029 A 
ATOM     19  C   UNL     1      -4.067   3.662   2.721  0.00  0.00    +0.047 A 
ATOM     20  C   UNL     1      -5.260   4.357   2.595  0.00  0.00    +0.024 A 
BRANCH  18  21
ATOM     21  S   UNL     1      -1.846   2.397   1.728  0.00  0.00    -0.119 S 
BRANCH  21  22
ATOM     22  C   UNL     1      -1.331   2.115   0.011  0.00  0.00    +0.110 C 
BRANCH  22  23
ATOM     23  C   UNL     1      -0.025   1.363  -0.004  0.00  0.00    -0.030 A 
ATOM     24  C   UNL     1       1.177   2.044  -0.007  0.00  0.00    +0.012 A 
ATOM     25  C   UNL     1       2.333   1.336  -0.027  0.00  0.00    +0.045 A 
ATOM     26  S   UNL     1       1.737  -0.346  -0.042  0.00  0.00    -0.105 S 
ATOM     27  C   UNL     1      -0.013   0.007  -0.021  0.00  0.00    +0.049 A 
ENDBRANCH  22  23
ENDBRANCH  21  22
ENDBRANCH  18  21
ENDBRANCH   1  19
TORSDOF 5
