REMARK  Name = ZINC11060337
REMARK  12 active torsions:
REMARK  status: ('A' for Active; 'I' for Inactive)
REMARK    1  A    between atoms: C_1  and  O_2
REMARK    2  A    between atoms: O_2  and  C_3
REMARK    3  A    between atoms: C_5  and  O_28
REMARK    4  A    between atoms: C_6  and  C_11
REMARK    5  A    between atoms: C_7  and  O_9
REMARK    6  A    between atoms: O_9  and  C_10
REMARK    7  A    between atoms: C_16  and  C_17
REMARK    8  A    between atoms: C_16  and  N_64
REMARK    9  A    between atoms: N_19  and  C_20
REMARK   10  A    between atoms: C_20  and  C_21
REMARK   11  A    between atoms: C_21  and  C_22
REMARK   12  A    between atoms: O_28  and  C_29
REMARK                            x       y       z     vdW  Elec       q    Type
REMARK                         _______ _______ _______ _____ _____    ______ ____
ROOT
ATOM      1  C   UNL     1      -2.524   3.876   0.046  0.00  0.00    -0.041 C 
ATOM      2  C   UNL     1      -3.085   4.192  -1.101  0.00  0.00    -0.041 C 
ATOM      3  C   UNL     1      -4.386   4.934  -1.199  0.00  0.00    -0.050 C 
ATOM      4  C   UNL     1      -4.211   5.298   1.179  0.00  0.00    -0.073 C 
ATOM      5  C   UNL     1      -3.142   4.218   1.373  0.00  0.00    +0.017 C 
ATOM      6  N   UNL     1      -5.103   4.856   0.087  0.00  0.00    +0.388 N 
ATOM      7  H   UNL     1      -5.383   3.883   0.257  0.00  0.00    -0.081 HD
ENDROOT
BRANCH   1  11
ATOM      8  C   UNL     1       1.181   1.784   0.000  0.00  0.00    +0.127 A 
ATOM      9  C   UNL     1      -0.013   1.076   0.008  0.00  0.00    +0.092 A 
ATOM     10  C   UNL     1      -1.221   1.750   0.017  0.00  0.00    +0.134 A 
ATOM     11  C   UNL     1      -1.238   3.150   0.030  0.00  0.00    +0.061 A 
ATOM     12  C   UNL     1      -0.031   3.859   0.023  0.00  0.00    +0.134 A 
ATOM     13  C   UNL     1       1.171   3.172   0.008  0.00  0.00    +0.092 A 
BRANCH   8  15
ATOM     14  C   UNL     1       3.554   1.907  -0.022  0.00  0.00    +0.277 C 
ATOM     15  O   UNL     1       2.364   1.117  -0.015  0.00  0.00    -0.495 OA
ENDBRANCH   8  15
BRANCH  12  16
ATOM     16  O   UNL     1      -0.039   5.217   0.030  0.00  0.00    -0.494 OA
ATOM     17  C   UNL     1       1.231   5.873   0.022  0.00  0.00    +0.277 C 
ENDBRANCH  12  16
BRANCH  10  18
ATOM     18  O   UNL     1      -2.388   1.055   0.019  0.00  0.00    -0.494 OA
ATOM     19  C   UNL     1      -2.294  -0.371   0.011  0.00  0.00    +0.277 C 
ENDBRANCH  10  18
ENDBRANCH   1  11
BRANCH   6  20
ATOM     20  C   UNL     1      -6.314   5.706   0.045  0.00  0.00    +0.019 C 
BRANCH  20  21
ATOM     21  C   UNL     1      -5.930   7.157  -0.090  0.00  0.00    +0.196 C 
ATOM     22  O   UNL     1      -4.761   7.472  -0.149  0.00  0.00    -0.278 OA
ATOM     23  N   UNL     1      -6.887   8.105  -0.146  0.00  0.00    -0.317 N 
ATOM     24  H   UNL     1      -7.822   7.853  -0.099  0.00  0.00    +0.149 HD
BRANCH  23  25
ATOM     25  C   UNL     1      -6.513   9.516  -0.277  0.00  0.00    +0.108 C 
BRANCH  25  26
ATOM     26  C   UNL     1      -7.778  10.376  -0.317  0.00  0.00    +0.049 C 
BRANCH  26  27
ATOM     27  C   UNL     1      -7.394  11.827  -0.452  0.00  0.00    -0.072 C 
ATOM     28  C   UNL     1      -7.367  12.339  -1.641  0.00  0.00    -0.028 C 
ATOM     29  C   UNL     1      -6.995  13.764  -1.934  0.00  0.00    +0.027 C 
ATOM     30  C   UNL     1      -7.075  14.603  -0.657  0.00  0.00    +0.004 C 
ATOM     31  C   UNL     1      -6.309  13.872   0.453  0.00  0.00    +0.005 C 
ATOM     32  C   UNL     1      -7.073  12.590   0.800  0.00  0.00    +0.030 C 
ENDBRANCH  26  27
ENDBRANCH  25  26
ENDBRANCH  23  25
ENDBRANCH  20  21
ENDBRANCH   6  20
TORSDOF 9
