REMARK  Name = ZINC15222905
REMARK  6 active torsions:
REMARK  status: ('A' for Active; 'I' for Inactive)
REMARK    1  A    between atoms: C_1  and  C_2
REMARK    2  A    between atoms: C_2  and  C_4
REMARK    3  A    between atoms: C_23  and  C_33
REMARK    4  A    between atoms: C_26  and  O_29
REMARK    5  A    between atoms: O_29  and  C_30
REMARK    6  A    between atoms: C_30  and  C_32
REMARK                            x       y       z     vdW  Elec       q    Type
REMARK                         _______ _______ _______ _____ _____    ______ ____
ROOT
ATOM      1  C   UNL     1      -0.142  -0.527  -0.024  0.00  0.00    +0.059 C 
ATOM      2  C   UNL     1      -0.065   1.011  -0.122  0.00  0.00    +0.011 C 
ATOM      3  C   UNL     1       1.433   1.366  -0.256  0.00  0.00    +0.005 C 
ATOM      4  C   UNL     1       2.162   0.150   0.393  0.00  0.00    -0.003 C 
ATOM      5  C   UNL     1       1.306  -1.023  -0.118  0.00  0.00    +0.010 C 
ATOM      6  C   UNL     1       1.541  -2.317   0.625  0.00  0.00    +0.079 C 
ATOM      7  C   UNL     1       1.595  -2.104   2.112  0.00  0.00    +0.138 C 
ATOM      8  O   UNL     1       0.949  -2.796   2.862  0.00  0.00    -0.297 OA
ATOM      9  C   UNL     1       2.460  -0.972   2.625  0.00  0.00    +0.065 C 
ATOM     10  C   UNL     1       2.021   0.304   1.908  0.00  0.00    +0.003 C 
ATOM     11  C   UNL     1       2.878   1.471   2.400  0.00  0.00    +0.005 C 
ATOM     12  C   UNL     1       2.664   1.652   3.905  0.00  0.00    +0.004 C 
ATOM     13  C   UNL     1       3.087   0.374   4.630  0.00  0.00    -0.001 C 
ATOM     14  C   UNL     1       2.248  -0.805   4.130  0.00  0.00    -0.019 C 
ATOM     15  C   UNL     1       2.679  -2.082   4.853  0.00  0.00    +0.011 C 
ATOM     16  C   UNL     1       2.469  -1.911   6.359  0.00  0.00    +0.045 C 
ATOM     17  C   UNL     1       3.307  -0.733   6.861  0.00  0.00    +0.177 C 
ATOM     18  C   UNL     1       2.878   0.544   6.136  0.00  0.00    +0.048 C 
ATOM     19  C   UNL     1       0.768  -0.533   4.411  0.00  0.00    +0.012 C 
ENDROOT
BRANCH   1  21
ATOM     20  C   UNL     1      -1.411  -2.280   1.436  0.00  0.00    +0.086 C 
ATOM     21  C   UNL     1      -0.746  -0.935   1.295  0.00  0.00    +0.134 C 
ATOM     22  O   UNL     1      -0.698  -0.183   2.239  0.00  0.00    -0.297 OA
ENDBRANCH   1  21
BRANCH  17  23
ATOM     23  O   UNL     1       4.711  -0.991   6.596  0.00  0.00    -0.462 OA
BRANCH  23  24
ATOM     24  C   UNL     1       5.405  -1.629   7.552  0.00  0.00    +0.304 C 
ATOM     25  O   UNL     1       4.857  -1.960   8.577  0.00  0.00    -0.251 OA
ATOM     26  C   UNL     1       6.867  -1.931   7.348  0.00  0.00    +0.136 C 
ENDBRANCH  23  24
ENDBRANCH  17  23
TORSDOF 3
