REMARK  Name = ZINC55476012
REMARK  4 active torsions:
REMARK  status: ('A' for Active; 'I' for Inactive)
REMARK    1  A    between atoms: C_1  and  C_2
REMARK    2  A    between atoms: C_7  and  C_8
REMARK    3  A    between atoms: N_10  and  C_11
REMARK    4  A    between atoms: N_20  and  C_22
REMARK                            x       y       z     vdW  Elec       q    Type
REMARK                         _______ _______ _______ _____ _____    ______ ____
ROOT
ATOM      1  C   UNL     1       0.032  -0.391   2.496  0.00  0.00    +0.261 C 
ATOM      2  O   UNL     1       0.019   0.795   2.765  0.00  0.00    -0.269 OA
ATOM      3  N   UNL     1       0.055  -1.306   3.486  0.00  0.00    -0.307 N 
ATOM      4  H   UNL     1       0.065  -2.252   3.271  0.00  0.00    +0.149 HD
ENDROOT
BRANCH   1  11
ATOM      5  C   UNL     1      -0.018   1.503   0.010  0.00  0.00    +0.047 C 
ATOM      6  C   UNL     1       0.002  -0.004   0.002  0.00  0.00    -0.010 A 
ATOM      7  C   UNL     1       0.008  -0.834  -1.125  0.00  0.00    +0.042 A 
ATOM      8  C   UNL     1       0.026  -2.155  -0.678  0.00  0.00    +0.027 A 
ATOM      9  N   UNL     1       0.034  -2.137   0.655  0.00  0.00    -0.354 N 
ATOM     10  H   UNL     1       0.048  -2.920   1.227  0.00  0.00    +0.166 HD
ATOM     11  C   UNL     1       0.024  -0.827   1.094  0.00  0.00    +0.106 A 
ATOM     12  C   UNL     1       0.031  -3.337  -1.615  0.00  0.00    +0.054 C 
ATOM     13  C   UNL     1      -0.488  -2.895  -2.987  0.00  0.00    +0.014 C 
ATOM     14  C   UNL     1       0.287  -1.674  -3.491  0.00  0.00    +0.080 C 
ATOM     15  C   UNL     1       0.002  -0.505  -2.559  0.00  0.00    +0.165 C 
ATOM     16  O   UNL     1      -0.215   0.616  -2.969  0.00  0.00    -0.292 OA
ENDBRANCH   1  11
BRANCH   3  17
ATOM     17  C   UNL     1       0.063  -0.873   4.881  0.00  0.00    +0.076 C 
ATOM     18  C   UNL     1       1.495  -0.609   5.352  0.00  0.00    -0.007 C 
ATOM     19  C   UNL     1       2.344  -1.860   5.174  0.00  0.00    +0.003 C 
ATOM     20  C   UNL     1       1.758  -3.078   5.868  0.00  0.00    +0.001 C 
ATOM     21  C   UNL     1       0.269  -3.255   5.620  0.00  0.00    +0.003 C 
ATOM     22  C   UNL     1      -0.519  -1.963   5.784  0.00  0.00    -0.007 C 
ATOM     23  C   UNL     1      -0.518  -1.483   7.229  0.00  0.00    -0.073 C 
ATOM     24  N   UNL     1       0.805  -1.080   7.696  0.00  0.00    +0.382 N 
ATOM     25  C   UNL     1       1.477  -0.143   6.802  0.00  0.00    -0.073 C 
ATOM     26  H   UNL     1       1.383  -1.891   7.852  0.00  0.00    -0.081 HD
BRANCH  24  27
ATOM     27  C   UNL     1       0.647  -0.427   9.002  0.00  0.00    -0.069 C 
ATOM     28  C   UNL     1       1.523  -0.927  10.153  0.00  0.00    -0.017 C 
ATOM     29  C   UNL     1       0.028  -1.251  10.133  0.00  0.00    -0.017 C 
ENDBRANCH  24  27
ENDBRANCH   3  17
TORSDOF 3
