REMARK  Name = ZINC03101562
REMARK  10 active torsions:
REMARK  status: ('A' for Active; 'I' for Inactive)
REMARK    1  A    between atoms: C_1  and  C_2
REMARK    2  A    between atoms: C_5  and  O_9
REMARK    3  A    between atoms: C_6  and  C_8
REMARK    4  A    between atoms: O_9  and  C_10
REMARK    5  A    between atoms: C_10  and  C_11
REMARK    6  A    between atoms: N_13  and  N_14
REMARK    7  A    between atoms: C_15  and  C_16
REMARK    8  A    between atoms: C_18  and  O_24
REMARK    9  A    between atoms: C_19  and  O_23
REMARK   10  A    between atoms: O_24  and  C_25
REMARK                            x       y       z     vdW  Elec       q    Type
REMARK                         _______ _______ _______ _____ _____    ______ ____
ROOT
ATOM      1  C   UNL     1       3.714  -0.858  -0.038  0.00  0.00    +0.270 C 
ATOM      2  O   UNL     1       4.665  -0.105  -0.043  0.00  0.00    -0.270 OA
ATOM      3  N   UNL     1       3.910  -2.192  -0.047  0.00  0.00    -0.204 N 
ATOM      4  H   UNL     1       3.150  -2.794  -0.043  0.00  0.00    +0.177 HD
ENDROOT
BRANCH   3   5
ATOM      5  N   UNL     1       5.213  -2.707  -0.062  0.00  0.00    -0.188 NA
ATOM      6  C   UNL     1       5.402  -3.991  -0.071  0.00  0.00    +0.138 C 
BRANCH   6   7
ATOM      7  C   UNL     1       6.773  -4.534  -0.087  0.00  0.00    -0.001 A 
ATOM      8  C   UNL     1       6.979  -5.917  -0.090  0.00  0.00    +0.059 A 
ATOM      9  C   UNL     1       8.265  -6.420  -0.110  0.00  0.00    +0.163 A 
ATOM     10  C   UNL     1       9.354  -5.551  -0.116  0.00  0.00    +0.172 A 
ATOM     11  C   UNL     1       9.151  -4.179  -0.107  0.00  0.00    +0.059 A 
ATOM     12  C   UNL     1       7.869  -3.668  -0.093  0.00  0.00    +0.027 A 
ATOM     13  I   UNL     1      10.793  -2.878  -0.117  0.00  0.00    -0.040 I 
BRANCH  10  14
ATOM     14  O   UNL     1      10.619  -6.049  -0.131  0.00  0.00    -0.503 OA
ATOM     15  H   UNL     1      10.994  -6.197   0.749  0.00  0.00    +0.292 HD
ENDBRANCH  10  14
BRANCH   9  16
ATOM     16  O   UNL     1       8.469  -7.765  -0.119  0.00  0.00    -0.491 OA
ATOM     17  C   UNL     1       7.307  -8.597  -0.112  0.00  0.00    +0.277 C 
ENDBRANCH   9  16
ENDBRANCH   6   7
ENDBRANCH   3   5
BRANCH   1  18
ATOM     18  C   UNL     1       2.313  -0.303  -0.022  0.00  0.00    +0.326 C 
BRANCH  18  19
ATOM     19  O   UNL     1       2.366   1.125  -0.015  0.00  0.00    -0.482 OA
BRANCH  19  24
ATOM     20  C   UNL     1      -2.553   3.867   0.046  0.00  0.00    +0.044 C 
ATOM     21  C   UNL     1      -1.237   3.133   0.030  0.00  0.00    -0.050 A 
ATOM     22  C   UNL     1      -1.218   1.751   0.017  0.00  0.00    +0.007 A 
ATOM     23  C   UNL     1      -0.013   1.076   0.008  0.00  0.00    +0.046 A 
ATOM     24  C   UNL     1       1.179   1.786   0.000  0.00  0.00    +0.124 A 
ATOM     25  C   UNL     1       1.157   3.173   0.008  0.00  0.00    -0.009 A 
ATOM     26  C   UNL     1      -0.051   3.844   0.022  0.00  0.00    +0.010 A 
ATOM     27  C   UNL     1       2.449   3.948  -0.000  0.00  0.00    +0.047 C 
ENDBRANCH  19  24
ENDBRANCH  18  19
ENDBRANCH   1  18
TORSDOF 7
