REMARK  Name = ZINC19201987
REMARK  8 active torsions:
REMARK  status: ('A' for Active; 'I' for Inactive)
REMARK    1  A    between atoms: C_1  and  C_2
REMARK    2  A    between atoms: C_2  and  O_3
REMARK    3  A    between atoms: O_3  and  C_4
REMARK    4  A    between atoms: C_4  and  C_6
REMARK    5  A    between atoms: C_7  and  C_29
REMARK    6  A    between atoms: C_11  and  C_13
REMARK    7  A    between atoms: C_25  and  C_27
REMARK    8  A    between atoms: C_25  and  C_28
REMARK                            x       y       z     vdW  Elec       q    Type
REMARK                         _______ _______ _______ _____ _____    ______ ____
ROOT
ATOM      1  C   UNL     1      -0.061   1.249  -0.009  0.00  0.00    +0.065 C 
ATOM      2  C   UNL     1       0.057  -0.090   0.013  0.00  0.00    +0.016 C 
ATOM      3  N   UNL     1       1.292  -0.676   0.022  0.00  0.00    -0.321 N 
ATOM      4  C   UNL     1       2.399   0.034   0.403  0.00  0.00    +0.016 C 
ATOM      5  C   UNL     1       2.379   1.384   0.406  0.00  0.00    +0.024 C 
ATOM      6  C   UNL     1       1.148   2.137  -0.029  0.00  0.00    +0.096 C 
ATOM      7  C   UNL     1       3.504   2.125   0.811  0.00  0.00    +0.162 C 
ATOM      8  O   UNL     1       3.456   3.339   0.794  0.00  0.00    -0.292 OA
ATOM      9  C   UNL     1       4.765   1.442   1.264  0.00  0.00    +0.086 C 
ATOM     10  C   UNL     1       4.407   0.078   1.863  0.00  0.00    -0.023 C 
ATOM     11  C   UNL     1       3.636  -0.726   0.814  0.00  0.00    +0.058 C 
ATOM     12  C   UNL     1       3.534   0.275   3.104  0.00  0.00    +0.011 C 
ATOM     13  C   UNL     1       5.685  -0.671   2.247  0.00  0.00    +0.011 C 
ATOM     14  C   UNL     1      -1.180  -0.951   0.026  0.00  0.00    +0.061 C 
ATOM     15  H   UNL     1       1.404  -1.728  -0.279  0.00  0.00    +0.152 HD
ENDROOT
BRANCH   6  16
ATOM     16  C   UNL     1       1.355   2.659  -1.428  0.00  0.00    +0.014 A 
ATOM     17  C   UNL     1       1.566   1.777  -2.470  0.00  0.00    +0.023 A 
ATOM     18  C   UNL     1       1.756   2.254  -3.754  0.00  0.00    +0.019 A 
ATOM     19  C   UNL     1       1.736   3.616  -3.998  0.00  0.00    +0.034 A 
ATOM     20  C   UNL     1       1.525   4.502  -2.959  0.00  0.00    +0.066 A 
ATOM     21  C   UNL     1       1.329   4.024  -1.670  0.00  0.00    +0.197 A 
ATOM     22  O   UNL     1       1.116   4.893  -0.647  0.00  0.00    -0.286 OA
ATOM     23 BR   UNL     1       1.496   6.363  -3.292  0.00  0.00    -0.046 Br
ATOM     24 BR   UNL     1       2.045   1.044  -5.178  0.00  0.00    -0.050 Br
ENDBRANCH   6  16
BRANCH   1  25
ATOM     25  C   UNL     1      -1.351   1.831  -0.018  0.00  0.00    +0.338 C 
ATOM     26  O   UNL     1      -2.337   1.125  -0.114  0.00  0.00    -0.245 OA
BRANCH  25  27
ATOM     27  O   UNL     1      -1.487   3.170   0.080  0.00  0.00    -0.462 OA
BRANCH  27  29
ATOM     28  C   UNL     1      -2.772   5.214   0.183  0.00  0.00    +0.048 C 
ATOM     29  C   UNL     1      -2.818   3.690   0.064  0.00  0.00    +0.229 C 
ENDBRANCH  27  29
ENDBRANCH  25  27
ENDBRANCH   1  25
TORSDOF 4
