REMARK  Name = ZINC23557797
REMARK  9 active torsions:
REMARK  status: ('A' for Active; 'I' for Inactive)
REMARK    1  A    between atoms: C_1  and  C_2
REMARK    2  A    between atoms: C_2  and  O_3
REMARK    3  A    between atoms: O_3  and  C_4
REMARK    4  A    between atoms: C_9  and  N_10
REMARK    5  A    between atoms: C_14  and  S_16
REMARK    6  A    between atoms: S_16  and  C_17
REMARK    7  A    between atoms: C_17  and  C_18
REMARK    8  A    between atoms: N_20  and  C_21
REMARK    9  A    between atoms: C_22  and  C_30
REMARK                            x       y       z     vdW  Elec       q    Type
REMARK                         _______ _______ _______ _____ _____    ______ ____
ROOT
ATOM      1  C   UNL     1      -0.011   0.048   0.521  0.00  0.00    +0.172 C 
ENDROOT
BRANCH   1   2
ATOM      2  C   UNL     1      -1.424  -0.473   0.542  0.00  0.00    +0.228 C 
ATOM      3  O   UNL     1      -2.350   0.277   0.315  0.00  0.00    -0.275 OA
ATOM      4  N   UNL     1      -1.660  -1.772   0.813  0.00  0.00    -0.279 N 
ATOM      5  H   UNL     1      -0.820  -2.452   1.019  0.00  0.00    +0.155 HD
BRANCH   4   6
ATOM      6  C   UNL     1      -2.961  -2.252   0.832  0.00  0.00    +0.084 A 
ATOM      7  C   UNL     1      -3.400  -3.544   1.082  0.00  0.00    +0.068 A 
ATOM      8  C   UNL     1      -4.832  -3.786   1.044  0.00  0.00    -0.023 A 
ATOM      9  C   UNL     1      -5.590  -2.706   0.755  0.00  0.00    -0.004 A 
ATOM     10  S   UNL     1      -4.432  -1.384   0.542  0.00  0.00    -0.077 S 
ATOM     11  C   UNL     1      -7.083  -2.655   0.642  0.00  0.00    +0.043 C 
ATOM     12  C   UNL     1      -7.610  -4.093   0.535  0.00  0.00    +0.005 C 
ATOM     13  C   UNL     1      -6.950  -4.942   1.626  0.00  0.00    +0.005 C 
ATOM     14  C   UNL     1      -5.469  -5.146   1.302  0.00  0.00    +0.037 C 
BRANCH   7  15
ATOM     15  C   UNL     1      -2.454  -4.625   1.376  0.00  0.00    +0.244 C 
ATOM     16  O   UNL     1      -2.128  -4.852   2.527  0.00  0.00    -0.270 OA
ATOM     17  N   UNL     1      -1.944  -5.366   0.373  0.00  0.00    -0.325 N 
ATOM     18  H   UNL     1      -1.234  -6.177   0.594  0.00  0.00    +0.145 HD
ATOM     19  H   UNL     1      -2.238  -5.161  -0.667  0.00  0.00    +0.145 HD
ENDBRANCH   7  15
ENDBRANCH   4   6
ENDBRANCH   1   2
BRANCH   1  20
ATOM     20  S   UNL     1      -0.025   1.820   0.130  0.00  0.00    -0.088 S 
BRANCH  20  25
ATOM     21  N   UNL     1       5.288   4.136  -0.025  0.00  0.00    -0.289 N 
ATOM     22  C   UNL     1       4.130   3.372   0.066  0.00  0.00    +0.187 A 
ATOM     23  N   UNL     1       3.995   2.089   0.340  0.00  0.00    -0.125 NA
ATOM     24  N   UNL     1       2.740   1.527   0.385  0.00  0.00    -0.133 NA
ATOM     25  C   UNL     1       1.678   2.273   0.144  0.00  0.00    +0.160 A 
ATOM     26  S   UNL     1       2.428   3.866  -0.158  0.00  0.00    -0.024 S 
ATOM     27  H   UNL     1       5.219   5.225  -0.169  0.00  0.00    +0.154 HD
BRANCH  21  33
ATOM     28  C   UNL     1       7.696   4.296   0.159  0.00  0.00    +0.142 A 
ATOM     29  C   UNL     1       8.933   3.681   0.254  0.00  0.00    +0.047 A 
ATOM     30  C   UNL     1       9.022   2.301   0.247  0.00  0.00    +0.004 A 
ATOM     31  C   UNL     1       7.878   1.531   0.150  0.00  0.00    +0.002 A 
ATOM     32  C   UNL     1       6.639   2.136   0.059  0.00  0.00    +0.027 A 
ATOM     33  C   UNL     1       6.541   3.520   0.066  0.00  0.00    +0.075 A 
BRANCH  28  34
ATOM     34  O   UNL     1       7.607   5.653   0.161  0.00  0.00    -0.490 OA
BRANCH  34  36
ATOM     35  C   UNL     1       8.533   7.883   0.245  0.00  0.00    +0.048 C 
ATOM     36  C   UNL     1       8.831   6.383   0.258  0.00  0.00    +0.226 C 
ENDBRANCH  34  36
ENDBRANCH  28  34
ENDBRANCH  21  33
ENDBRANCH  20  25
ENDBRANCH   1  20
TORSDOF 8
