REMARK  Name = ZINC19569173
REMARK  7 active torsions:
REMARK  status: ('A' for Active; 'I' for Inactive)
REMARK    1  A    between atoms: C_1  and  O_2
REMARK    2  A    between atoms: O_2  and  C_3
REMARK    3  A    between atoms: C_8  and  C_9
REMARK    4  A    between atoms: C_9  and  N_14
REMARK    5  A    between atoms: N_14  and  C_15
REMARK    6  A    between atoms: C_15  and  C_16
REMARK    7  A    between atoms: C_17  and  C_21
REMARK                            x       y       z     vdW  Elec       q    Type
REMARK                         _______ _______ _______ _____ _____    ______ ____
ROOT
ATOM      1  N   UNL     1      -2.879   1.507  -1.357  0.00  0.00    +0.389 N 
ATOM      2  H   UNL     1      -2.387   0.809  -2.050  0.00  0.00    -0.084 HD
ATOM      3  H   UNL     1      -3.020   2.478  -1.853  0.00  0.00    -0.084 HD
ENDROOT
BRANCH   1   4
ATOM      4  C   UNL     1      -4.187   0.964  -0.963  0.00  0.00    -0.038 C 
ATOM      5  C   UNL     1      -4.023  -0.474  -0.429  0.00  0.00    -0.008 C 
ATOM      6  C   UNL     1      -5.282  -1.215  -0.946  0.00  0.00    -0.001 C 
ATOM      7  C   UNL     1      -5.479  -0.612  -2.359  0.00  0.00    -0.001 C 
ATOM      8  C   UNL     1      -5.112   0.877  -2.189  0.00  0.00    -0.008 C 
BRANCH   4  14
ATOM      9  C   UNL     1      -4.973   3.197  -0.137  0.00  0.00    +0.122 A 
ATOM     10  C   UNL     1      -5.549   4.000   0.838  0.00  0.00    +0.046 A 
ATOM     11  C   UNL     1      -5.959   3.445   2.034  0.00  0.00    +0.004 A 
ATOM     12  C   UNL     1      -5.796   2.091   2.261  0.00  0.00    +0.000 A 
ATOM     13  C   UNL     1      -5.228   1.288   1.290  0.00  0.00    +0.006 A 
ATOM     14  C   UNL     1      -4.811   1.839   0.093  0.00  0.00    -0.017 A 
BRANCH   9  16
ATOM     15  C   UNL     1      -4.767   5.146  -1.483  0.00  0.00    +0.277 C 
ATOM     16  O   UNL     1      -4.569   3.741  -1.315  0.00  0.00    -0.495 OA
ENDBRANCH   9  16
ENDBRANCH   4  14
ENDBRANCH   1   4
BRANCH   1  17
ATOM     17  C   UNL     1      -2.014   1.696  -0.185  0.00  0.00    -0.021 C 
BRANCH  17  18
ATOM     18  C   UNL     1      -1.265   0.419   0.098  0.00  0.00    +0.076 A 
ATOM     19  C   UNL     1      -0.162  -0.048  -0.557  0.00  0.00    +0.116 A 
ATOM     20  N   UNL     1       0.155  -1.216   0.030  0.00  0.00    -0.128 NA
ATOM     21  N   UNL     1      -0.685  -1.446   0.976  0.00  0.00    -0.042 NA
ATOM     22  N   UNL     1      -1.547  -0.494   1.053  0.00  0.00    -0.134 NA
BRANCH  19  23
ATOM     23  C   UNL     1       0.542   0.600  -1.692  0.00  0.00    +0.004 A 
ATOM     24  C   UNL     1      -0.187   1.181  -2.727  0.00  0.00    +0.010 A 
ATOM     25  C   UNL     1       0.473   1.786  -3.777  0.00  0.00    +0.001 A 
ATOM     26  C   UNL     1       1.856   1.807  -3.808  0.00  0.00    +0.000 A 
ATOM     27  C   UNL     1       2.585   1.227  -2.786  0.00  0.00    +0.001 A 
ATOM     28  C   UNL     1       1.935   0.624  -1.728  0.00  0.00    +0.010 A 
ENDBRANCH  19  23
ENDBRANCH  17  18
ENDBRANCH   1  17
TORSDOF 6
