REMARK  Name = ZINC13033713
REMARK  7 active torsions:
REMARK  status: ('A' for Active; 'I' for Inactive)
REMARK    1  A    between atoms: C_3  and  C_7
REMARK    2  A    between atoms: C_7  and  N_65
REMARK    3  A    between atoms: C_8  and  C_9
REMARK    4  A    between atoms: C_8  and  N_65
REMARK    5  A    between atoms: C_25  and  C_26
REMARK    6  A    between atoms: C_25  and  N_65
REMARK    7  A    between atoms: N_30  and  C_31
REMARK                            x       y       z     vdW  Elec       q    Type
REMARK                         _______ _______ _______ _____ _____    ______ ____
ROOT
ATOM      1  N   UNL     1       2.932   4.472  -1.411  0.00  0.00    +0.390 N 
ATOM      2  H   UNL     1       1.957   4.787  -1.480  0.00  0.00    -0.080 HD
ENDROOT
BRANCH   1   3
ATOM      3  C   UNL     1       3.162   3.915  -0.062  0.00  0.00    -0.040 C 
BRANCH   3   6
ATOM      4  C   UNL     1       6.867   3.520   0.535  0.00  0.00    +0.020 A 
ATOM      5  C   UNL     1       5.612   4.104   0.459  0.00  0.00    +0.005 A 
ATOM      6  C   UNL     1       4.546   3.325   0.037  0.00  0.00    -0.046 A 
ATOM      7  C   UNL     1       4.767   2.001  -0.290  0.00  0.00    +0.112 A 
ATOM      8  N   UNL     1       5.975   1.478  -0.205  0.00  0.00    -0.263 NA
ATOM      9  C   UNL     1       7.013   2.191   0.186  0.00  0.00    +0.111 A 
ENDBRANCH   3   6
ENDBRANCH   1   3
BRANCH   1  10
ATOM     10  C   UNL     1       3.827   5.625  -1.641  0.00  0.00    -0.036 C 
BRANCH  10  11
ATOM     11  C   UNL     1       3.234   6.837  -0.972  0.00  0.00    +0.001 A 
ATOM     12  C   UNL     1       3.699   7.236   0.240  0.00  0.00    +0.017 A 
ATOM     13  C   UNL     1       3.106   8.419   0.862  0.00  0.00    +0.002 A 
ATOM     14  C   UNL     1       3.548   8.878   2.108  0.00  0.00    +0.059 A 
ATOM     15  C   UNL     1       2.967   9.995   2.672  0.00  0.00    +0.163 A 
ATOM     16  C   UNL     1       1.940  10.667   2.004  0.00  0.00    +0.164 A 
ATOM     17  C   UNL     1       1.496  10.220   0.771  0.00  0.00    +0.075 A 
ATOM     18  C   UNL     1       2.070   9.097   0.190  0.00  0.00    +0.053 A 
ATOM     19  N   UNL     1       1.639   8.636  -1.038  0.00  0.00    -0.322 N 
ATOM     20  H   UNL     1       0.926   9.103  -1.500  0.00  0.00    +0.169 HD
ATOM     21  C   UNL     1       2.195   7.550  -1.603  0.00  0.00    +0.251 A 
ATOM     22  O   UNL     1       1.789   7.172  -2.688  0.00  0.00    -0.268 OA
ATOM     23  O   UNL     1       1.364  11.772   2.551  0.00  0.00    -0.485 OA
ATOM     24  C   UNL     1       1.570  11.978   3.953  0.00  0.00    +0.270 C 
ATOM     25  C   UNL     1       3.060  11.766   4.256  0.00  0.00    +0.270 C 
ATOM     26  O   UNL     1       3.406  10.427   3.887  0.00  0.00    -0.485 OA
ENDBRANCH  10  11
ENDBRANCH   1  10
BRANCH   1  27
ATOM     27  C   UNL     1       3.173   3.433  -2.434  0.00  0.00    +0.001 C 
BRANCH  27  28
ATOM     28  C   UNL     1       1.976   2.519  -2.486  0.00  0.00    +0.135 A 
ATOM     29  N   UNL     1       1.765   1.462  -1.740  0.00  0.00    -0.115 NA
ATOM     30  N   UNL     1       0.633   0.952  -2.083  0.00  0.00    -0.023 NA
ATOM     31  N   UNL     1       0.119   1.651  -3.034  0.00  0.00    -0.044 NA
ATOM     32  N   UNL     1       0.917   2.626  -3.311  0.00  0.00    -0.228 N 
BRANCH  32  33
ATOM     33  C   UNL     1       0.711   3.657  -4.332  0.00  0.00    +0.111 C 
ATOM     34  C   UNL     1      -0.574   4.429  -4.025  0.00  0.00    +0.027 C 
ATOM     35  C   UNL     1      -0.789   5.505  -5.091  0.00  0.00    +0.002 C 
ATOM     36  C   UNL     1      -0.907   4.844  -6.466  0.00  0.00    +0.000 C 
ATOM     37  C   UNL     1       0.377   4.072  -6.773  0.00  0.00    +0.002 C 
ATOM     38  C   UNL     1       0.593   2.996  -5.707  0.00  0.00    +0.027 C 
ENDBRANCH  32  33
ENDBRANCH  27  28
ENDBRANCH   1  27
TORSDOF 7
