REMARK  Name = ZINC27754500
REMARK  8 active torsions:
REMARK  status: ('A' for Active; 'I' for Inactive)
REMARK    1  A    between atoms: C_1  and  O_2
REMARK    2  A    between atoms: O_2  and  C_3
REMARK    3  A    between atoms: C_5  and  C_10
REMARK    4  A    between atoms: C_8  and  O_9
REMARK    5  A    between atoms: C_12  and  C_27
REMARK    6  A    between atoms: C_14  and  C_19
REMARK    7  A    between atoms: C_14  and  O_26
REMARK    8  A    between atoms: C_27  and  C_29
REMARK                            x       y       z     vdW  Elec       q    Type
REMARK                         _______ _______ _______ _____ _____    ______ ____
ROOT
ATOM      1  C   UNL     1      -1.297   1.665   0.017  0.00  0.00    +0.120 C 
ATOM      2  C   UNL     1      -0.723   2.968   0.593  0.00  0.00    +0.144 C 
ATOM      3  C   UNL     1       0.525   3.345  -0.212  0.00  0.00    +0.172 C 
ATOM      4  N   UNL     1       1.468   2.225  -0.189  0.00  0.00    -0.267 N 
ATOM      5  C   UNL     1       1.043   0.958  -0.076  0.00  0.00    +0.302 C 
ATOM      6  O   UNL     1       1.867   0.064  -0.073  0.00  0.00    -0.253 OA
ATOM      7  N   UNL     1      -0.255   0.637   0.033  0.00  0.00    -0.292 N 
ATOM      8  H   UNL     1       2.549   2.415  -0.265  0.00  0.00    +0.153 HD
ATOM      9  H   UNL     1      -0.530  -0.423   0.136  0.00  0.00    +0.151 HD
ENDROOT
BRANCH   3  10
ATOM     10  C   UNL     1       1.171   4.560   0.401  0.00  0.00    +0.003 A 
ATOM     11  C   UNL     1       0.739   5.825   0.048  0.00  0.00    +0.011 A 
ATOM     12  C   UNL     1       1.327   6.940   0.613  0.00  0.00    +0.039 A 
ATOM     13  C   UNL     1       2.358   6.791   1.525  0.00  0.00    +0.123 A 
ATOM     14  C   UNL     1       2.794   5.524   1.874  0.00  0.00    +0.039 A 
ATOM     15  C   UNL     1       2.200   4.410   1.312  0.00  0.00    +0.011 A 
ATOM     16  F   UNL     1       2.938   7.880   2.075  0.00  0.00    -0.205 F 
ENDBRANCH   3  10
BRANCH   1  19
ATOM     17  C   UNL     1      -3.424   2.660  -2.942  0.00  0.00    +0.162 A 
ATOM     18  C   UNL     1      -3.002   2.444  -1.640  0.00  0.00    +0.055 A 
ATOM     19  C   UNL     1      -1.756   1.895  -1.399  0.00  0.00    -0.023 A 
ATOM     20  C   UNL     1      -0.933   1.551  -2.456  0.00  0.00    +0.009 A 
ATOM     21  C   UNL     1      -1.350   1.760  -3.757  0.00  0.00    +0.049 A 
ATOM     22  C   UNL     1      -2.595   2.314  -4.005  0.00  0.00    +0.158 A 
BRANCH  17  24
ATOM     23  C   UNL     1      -5.444   3.535  -2.041  0.00  0.00    +0.277 C 
ATOM     24  O   UNL     1      -4.647   3.205  -3.180  0.00  0.00    -0.491 OA
ENDBRANCH  17  24
BRANCH  22  25
ATOM     25  O   UNL     1      -3.007   2.521  -5.285  0.00  0.00    -0.503 OA
ATOM     26  H   UNL     1      -2.351   2.247  -6.125  0.00  0.00    +0.292 HD
ENDBRANCH  22  25
ENDBRANCH   1  19
BRANCH   3  27
ATOM     27  O   UNL     1       0.154   3.629  -1.562  0.00  0.00    -0.367 OA
ATOM     28  H   UNL     1       0.923   3.920  -2.294  0.00  0.00    +0.212 HD
ENDBRANCH   3  27
BRANCH   2  29
ATOM     29  C   UNL     1      -0.351   2.766   2.039  0.00  0.00    +0.245 C 
ATOM     30  O   UNL     1       0.779   2.460   2.335  0.00  0.00    -0.287 OA
BRANCH  29  31
ATOM     31  C   UNL     1      -1.389   2.947   3.117  0.00  0.00    +0.451 C 
ATOM     32  F   UNL     1      -0.810   2.708   4.367  0.00  0.00    -0.163 F 
ATOM     33  F   UNL     1      -1.883   4.255   3.074  0.00  0.00    -0.163 F 
ATOM     34  F   UNL     1      -2.438   2.045   2.909  0.00  0.00    -0.163 F 
ENDBRANCH  29  31
ENDBRANCH   2  29
TORSDOF 7
