REMARK  Name = ZINC14199968
REMARK  9 active torsions:
REMARK  status: ('A' for Active; 'I' for Inactive)
REMARK    1  A    between atoms: C_1  and  C_2
REMARK    2  A    between atoms: C_2  and  C_3
REMARK    3  A    between atoms: C_2  and  C_4
REMARK    4  A    between atoms: C_4  and  C_6
REMARK    5  A    between atoms: C_4  and  N_21
REMARK    6  A    between atoms: N_8  and  C_9
REMARK    7  A    between atoms: C_9  and  C_10
REMARK    8  A    between atoms: C_10  and  C_11
REMARK    9  A    between atoms: C_22  and  C_24
REMARK                            x       y       z     vdW  Elec       q    Type
REMARK                         _______ _______ _______ _____ _____    ______ ____
ROOT
ATOM      1  C   UNL     1      -2.130   7.391  -0.824  0.00  0.00    +0.161 C 
ENDROOT
BRANCH   1   2
ATOM      2  C   UNL     1      -3.342   7.781  -1.630  0.00  0.00    +0.234 C 
ATOM      3  O   UNL     1      -4.129   6.931  -1.992  0.00  0.00    -0.274 OA
ATOM      4  N   UNL     1      -3.553   9.073  -1.949  0.00  0.00    -0.313 N 
ATOM      5  H   UNL     1      -2.968   9.761  -1.595  0.00  0.00    +0.149 HD
BRANCH   4   6
ATOM      6  C   UNL     1      -4.666   9.438  -2.829  0.00  0.00    +0.109 C 
BRANCH   6   7
ATOM      7  C   UNL     1      -4.681  10.955  -3.029  0.00  0.00    +0.056 C 
BRANCH   7   8
ATOM      8  C   UNL     1      -5.826  11.331  -3.934  0.00  0.00    -0.021 A 
ATOM      9  C   UNL     1      -5.765  11.520  -5.262  0.00  0.00    +0.087 A 
ATOM     10  N   UNL     1      -7.003  11.848  -5.744  0.00  0.00    -0.360 N 
ATOM     11  H   UNL     1      -7.209  12.029  -6.675  0.00  0.00    +0.165 HD
ATOM     12  C   UNL     1      -7.912  11.888  -4.711  0.00  0.00    +0.047 A 
ATOM     13  C   UNL     1      -7.215  11.565  -3.532  0.00  0.00    +0.003 A 
ATOM     14  C   UNL     1      -7.891  11.527  -2.311  0.00  0.00    +0.010 A 
ATOM     15  C   UNL     1      -9.229  11.803  -2.268  0.00  0.00    +0.001 A 
ATOM     16  C   UNL     1      -9.921  12.122  -3.427  0.00  0.00    +0.002 A 
ATOM     17  C   UNL     1      -9.273  12.165  -4.643  0.00  0.00    +0.026 A 
ENDBRANCH   7   8
ENDBRANCH   6   7
ENDBRANCH   4   6
ENDBRANCH   1   2
BRANCH   1  18
ATOM     18  N   UNL     1      -2.333   6.059  -0.249  0.00  0.00    -0.303 N 
ATOM     19  C   UNL     1      -1.673   5.701   0.870  0.00  0.00    +0.220 C 
ATOM     20  O   UNL     1      -0.911   6.481   1.401  0.00  0.00    -0.275 OA
ATOM     21  H   UNL     1      -2.942   5.435  -0.674  0.00  0.00    +0.149 HD
BRANCH  19  22
ATOM     22  C   UNL     1      -1.882   4.331   1.462  0.00  0.00    +0.048 C 
ATOM     23  C   UNL     1      -1.479   3.267   0.439  0.00  0.00    +0.019 C 
ATOM     24  C   UNL     1      -1.691   1.876   1.039  0.00  0.00    -0.009 C 
ATOM     25  C   UNL     1      -0.831   1.726   2.296  0.00  0.00    +0.007 C 
ATOM     26  C   UNL     1      -1.234   2.790   3.319  0.00  0.00    -0.009 C 
ATOM     27  C   UNL     1      -1.022   4.181   2.718  0.00  0.00    +0.019 C 
ATOM     28  C   UNL     1      -2.708   2.612   3.686  0.00  0.00    +0.007 C 
ATOM     29  C   UNL     1      -3.568   2.762   2.430  0.00  0.00    -0.009 C 
ATOM     30  C   UNL     1      -3.166   1.698   1.407  0.00  0.00    +0.007 C 
ATOM     31  C   UNL     1      -3.356   4.153   1.829  0.00  0.00    +0.019 C 
ENDBRANCH  19  22
ENDBRANCH   1  18
BRANCH   1  33
ATOM     32  C   UNL     1       0.349   7.091  -0.893  0.00  0.00    +0.009 C 
ATOM     33  C   UNL     1      -0.899   7.373  -1.732  0.00  0.00    +0.012 C 
ATOM     34  C   UNL     1      -1.060   6.278  -2.789  0.00  0.00    +0.009 C 
ENDBRANCH   1  33
TORSDOF 7
