REMARK  Name = ZINC62047732
REMARK  7 active torsions:
REMARK  status: ('A' for Active; 'I' for Inactive)
REMARK    1  A    between atoms: C_8  and  C_10
REMARK    2  A    between atoms: C_10  and  N_11
REMARK    3  A    between atoms: N_14  and  C_15
REMARK    4  A    between atoms: C_15  and  C_16
REMARK    5  A    between atoms: C_16  and  N_17
REMARK    6  A    between atoms: N_17  and  C_18
REMARK    7  A    between atoms: C_21  and  N_24
REMARK                            x       y       z     vdW  Elec       q    Type
REMARK                         _______ _______ _______ _____ _____    ______ ____
ROOT
ATOM      1  N   UNL     1       4.059  -3.755  -1.439  0.00  0.00    -0.292 N 
ATOM      2  C   UNL     1       4.801  -4.849  -1.698  0.00  0.00    +0.300 C 
ATOM      3  O   UNL     1       5.254  -5.508  -0.782  0.00  0.00    -0.253 OA
ATOM      4  N   UNL     1       5.041  -5.214  -2.974  0.00  0.00    -0.298 N 
ATOM      5  H   UNL     1       3.698  -3.229  -2.170  0.00  0.00    +0.151 HD
ATOM      6  H   UNL     1       4.679  -4.689  -3.704  0.00  0.00    +0.150 HD
ENDROOT
BRANCH   1   7
ATOM      7  C   UNL     1       3.799  -3.358  -0.053  0.00  0.00    +0.180 C 
BRANCH   7  15
ATOM      8  C   UNL     1      -0.017   1.363   0.009  0.00  0.00    +0.001 A 
ATOM      9  C   UNL     1       1.170   2.082   0.002  0.00  0.00    +0.004 A 
ATOM     10  C   UNL     1       2.386   1.432  -0.013  0.00  0.00    +0.047 A 
ATOM     11  C   UNL     1       2.427   0.043  -0.021  0.00  0.00    +0.135 A 
ATOM     12  C   UNL     1       1.222  -0.679  -0.013  0.00  0.00    +0.020 A 
ATOM     13  C   UNL     1       0.002  -0.004   0.002  0.00  0.00    +0.011 A 
ATOM     14  C   UNL     1       1.613  -2.093  -0.025  0.00  0.00    +0.055 A 
ATOM     15  C   UNL     1       2.952  -2.111  -0.038  0.00  0.00    +0.123 A 
ATOM     16  O   UNL     1       3.432  -0.855  -0.036  0.00  0.00    -0.458 OA
ENDBRANCH   7  15
ENDBRANCH   1   7
BRANCH   4  17
ATOM     17  C   UNL     1       5.847  -6.405  -3.256  0.00  0.00    +0.124 C 
BRANCH  17  18
ATOM     18  C   UNL     1       5.965  -6.593  -4.769  0.00  0.00    +0.120 C 
BRANCH  18  19
ATOM     19  N   UNL     1       6.772  -7.784  -5.051  0.00  0.00    -0.342 N 
ATOM     20  H   UNL     1       7.133  -8.309  -4.320  0.00  0.00    +0.146 HD
BRANCH  19  21
ATOM     21  C   UNL     1       7.020  -8.162  -6.373  0.00  0.00    +0.027 A 
ATOM     22  C   UNL     1       6.508  -7.407  -7.421  0.00  0.00    +0.025 A 
ATOM     23  C   UNL     1       6.756  -7.784  -8.726  0.00  0.00    +0.034 A 
ATOM     24  C   UNL     1       7.513  -8.911  -8.991  0.00  0.00    +0.126 A 
ATOM     25  C   UNL     1       8.024  -9.664  -7.950  0.00  0.00    +0.034 A 
ATOM     26  C   UNL     1       7.784  -9.290  -6.642  0.00  0.00    +0.025 A 
BRANCH  24  27
ATOM     27  N   UNL     1       7.776  -9.311 -10.391  0.00  0.00    +0.056 N 
ATOM     28  O   UNL     1       7.330  -8.654 -11.302  0.00  0.00    -0.126 OA
ATOM     29  O   UNL     1       8.438 -10.296 -10.623  0.00  0.00    -0.126 OA
ENDBRANCH  24  27
ENDBRANCH  19  21
ENDBRANCH  18  19
ENDBRANCH  17  18
ENDBRANCH   4  17
TORSDOF 7
