REMARK  Name = ZINC00803164
REMARK  2 active torsions:
REMARK  status: ('A' for Active; 'I' for Inactive)
REMARK    1  A    between atoms: C_3  and  C_6
REMARK    2  A    between atoms: C_9  and  C_18
REMARK                            x       y       z     vdW  Elec       q    Type
REMARK                         _______ _______ _______ _____ _____    ______ ____
ROOT
ATOM      1  C   UNL     1       3.761   1.845  -0.024  0.00  0.00    +0.149 C 
ATOM      2  C   UNL     1       4.479   1.340  -1.282  0.00  0.00    +0.059 C 
ATOM      3  C   UNL     1       5.981   1.619  -1.167  0.00  0.00    +0.107 C 
ATOM      4  N   UNL     1       6.513   0.867  -0.013  0.00  0.00    -0.307 N 
ATOM      5  C   UNL     1       5.746   0.896   1.144  0.00  0.00    +0.216 A 
ATOM      6  N   UNL     1       4.468   1.351   1.157  0.00  0.00    -0.223 N 
ATOM      7  N   UNL     1       4.016   1.242   2.472  0.00  0.00    -0.132 NA
ATOM      8  C   UNL     1       5.009   0.741   3.174  0.00  0.00    +0.233 A 
ATOM      9  N   UNL     1       6.059   0.529   2.358  0.00  0.00    -0.180 NA
ATOM     10  N   UNL     1       4.977   0.469   4.542  0.00  0.00    -0.326 N 
ATOM     11  H   UNL     1       7.350   0.380  -0.061  0.00  0.00    +0.149 HD
ATOM     12  H   UNL     1       4.174   0.651   5.055  0.00  0.00    +0.145 HD
ATOM     13  H   UNL     1       5.759   0.099   4.981  0.00  0.00    +0.145 HD
ENDROOT
BRANCH   3  14
ATOM     14  C   UNL     1       6.676   1.174  -2.428  0.00  0.00    -0.009 A 
ATOM     15  C   UNL     1       7.246  -0.084  -2.497  0.00  0.00    +0.008 A 
ATOM     16  C   UNL     1       7.883  -0.492  -3.653  0.00  0.00    +0.020 A 
ATOM     17  C   UNL     1       7.951   0.357  -4.743  0.00  0.00    +0.042 A 
ATOM     18  C   UNL     1       7.381   1.615  -4.675  0.00  0.00    +0.040 A 
ATOM     19  C   UNL     1       6.739   2.022  -3.519  0.00  0.00    +0.047 A 
ATOM     20 CL   UNL     1       6.018   3.599  -3.436  0.00  0.00    -0.083 Cl
ATOM     21 CL   UNL     1       8.752  -0.156  -6.195  0.00  0.00    -0.083 Cl
ENDBRANCH   3  14
BRANCH   1  24
ATOM     22  C   UNL     1      -0.016   1.351   0.009  0.00  0.00    +0.008 A 
ATOM     23  C   UNL     1       1.183   2.038   0.002  0.00  0.00    +0.013 A 
ATOM     24  C   UNL     1       2.343   1.336  -0.013  0.00  0.00    +0.014 A 
ATOM     25  S   UNL     1       1.754  -0.349  -0.017  0.00  0.00    -0.099 S 
ATOM     26  C   UNL     1       0.002  -0.004   0.002  0.00  0.00    +0.045 A 
ENDBRANCH   1  24
TORSDOF 2
