REMARK  Name = ZINC62440650
REMARK  7 active torsions:
REMARK  status: ('A' for Active; 'I' for Inactive)
REMARK    1  A    between atoms: C_6  and  C_7
REMARK    2  A    between atoms: C_7  and  C_9
REMARK    3  A    between atoms: C_7  and  N_20
REMARK    4  A    between atoms: C_9  and  N_10
REMARK    5  A    between atoms: N_10  and  S_11
REMARK    6  A    between atoms: S_11  and  N_14
REMARK    7  A    between atoms: N_14  and  C_15
REMARK                            x       y       z     vdW  Elec       q    Type
REMARK                         _______ _______ _______ _____ _____    ______ ____
ROOT
ATOM      1  C   UNL     1      -1.257  -0.654   0.117  0.00  0.00    -0.022 C 
ENDROOT
BRANCH   1   7
ATOM      2  C   UNL     1       0.131   1.425   0.228  0.00  0.00    +0.006 A 
ATOM      3  C   UNL     1       1.347   2.080   0.171  0.00  0.00    +0.050 A 
ATOM      4  C   UNL     1       2.510   1.364  -0.063  0.00  0.00    +0.166 A 
ATOM      5  C   UNL     1       2.450  -0.017  -0.239  0.00  0.00    +0.166 A 
ATOM      6  C   UNL     1       1.228  -0.666  -0.180  0.00  0.00    +0.051 A 
ATOM      7  C   UNL     1       0.071   0.055   0.054  0.00  0.00    -0.056 A 
ATOM      8  O   UNL     1       3.714  -0.484  -0.451  0.00  0.00    -0.453 OA
ATOM      9  C   UNL     1       4.496   0.670  -0.810  0.00  0.00    +0.466 C 
ATOM     10  O   UNL     1       3.812   1.760  -0.165  0.00  0.00    -0.453 OA
ENDBRANCH   1   7
BRANCH   1  11
ATOM     11  N   UNL     1      -2.278   0.158  -0.558  0.00  0.00    +0.385 N 
ATOM     12  C   UNL     1      -1.975   0.260  -2.009  0.00  0.00    -0.078 C 
ATOM     13  C   UNL     1      -3.347   0.614  -2.634  0.00  0.00    -0.020 C 
ATOM     14  C   UNL     1      -4.338  -0.218  -1.788  0.00  0.00    -0.020 C 
ATOM     15  C   UNL     1      -3.598  -0.504  -0.468  0.00  0.00    -0.078 C 
ATOM     16  H   UNL     1      -2.321   1.078  -0.145  0.00  0.00    -0.081 HD
ENDBRANCH   1  11
BRANCH   1  17
ATOM     17  C   UNL     1      -1.655  -0.860   1.580  0.00  0.00    +0.096 C 
BRANCH  17  18
ATOM     18  N   UNL     1      -0.678  -1.736   2.233  0.00  0.00    -0.181 NA
ATOM     19  H   UNL     1      -0.069  -2.267   1.697  0.00  0.00    +0.149 HD
BRANCH  18  20
ATOM     20  S   UNL     1      -0.615  -1.817   3.886  0.00  0.00    +0.095 S 
ATOM     21  O   UNL     1       0.401  -2.758   4.207  0.00  0.00    -0.141 OA
ATOM     22  O   UNL     1      -0.589  -0.477   4.358  0.00  0.00    -0.141 OA
BRANCH  20  23
ATOM     23  N   UNL     1      -2.046  -2.473   4.399  0.00  0.00    -0.177 NA
ATOM     24  H   UNL     1      -2.659  -1.942   4.932  0.00  0.00    +0.149 HD
BRANCH  23  25
ATOM     25  C   UNL     1      -2.388  -3.853   4.048  0.00  0.00    +0.078 C 
ATOM     26  C   UNL     1      -2.040  -4.798   5.217  0.00  0.00    +0.020 C 
ATOM     27  C   UNL     1      -3.373  -4.951   5.991  0.00  0.00    +0.002 C 
ATOM     28  C   UNL     1      -4.425  -4.995   4.854  0.00  0.00    +0.002 C 
ATOM     29  C   UNL     1      -3.904  -3.979   3.817  0.00  0.00    +0.020 C 
ENDBRANCH  23  25
ENDBRANCH  20  23
ENDBRANCH  18  20
ENDBRANCH  17  18
ENDBRANCH   1  17
TORSDOF 7
