REMARK  Name = ZINC13500100
REMARK  10 active torsions:
REMARK  status: ('A' for Active; 'I' for Inactive)
REMARK    1  A    between atoms: C_1  and  C_2
REMARK    2  A    between atoms: C_2  and  C_3
REMARK    3  A    between atoms: C_3  and  C_4
REMARK    4  A    between atoms: C_4  and  C_6
REMARK    5  A    between atoms: C_4  and  N_72
REMARK    6  A    between atoms: N_10  and  C_11
REMARK    7  A    between atoms: C_17  and  C_18
REMARK    8  A    between atoms: C_17  and  N_72
REMARK    9  A    between atoms: C_24  and  C_30
REMARK   10  A    between atoms: C_31  and  N_72
REMARK                            x       y       z     vdW  Elec       q    Type
REMARK                         _______ _______ _______ _____ _____    ______ ____
ROOT
ATOM      1  N   UNL     1       1.089  -2.949   5.357  0.00  0.00    +0.391 N 
ATOM      2  H   UNL     1       1.609  -3.266   4.531  0.00  0.00    -0.080 HD
ENDROOT
BRANCH   1   3
ATOM      3  C   UNL     1       1.342  -1.507   5.559  0.00  0.00    -0.067 C 
ATOM      4  C   UNL     1       0.727  -1.016   6.886  0.00  0.00    -0.015 C 
ATOM      5  C   UNL     1       0.210   0.408   6.560  0.00  0.00    -0.002 C 
ATOM      6  C   UNL     1      -0.336   0.253   5.119  0.00  0.00    -0.002 C 
ATOM      7  C   UNL     1       0.667  -0.700   4.436  0.00  0.00    -0.015 C 
ENDBRANCH   1   3
BRANCH   1   8
ATOM      8  C   UNL     1       1.548  -3.712   6.536  0.00  0.00    +0.003 C 
BRANCH   8   9
ATOM      9  C   UNL     1       2.798  -3.076   7.087  0.00  0.00    +0.138 A 
ATOM     10  N   UNL     1       3.809  -2.611   6.396  0.00  0.00    -0.115 NA
ATOM     11  N   UNL     1       4.679  -2.146   7.226  0.00  0.00    -0.023 NA
ATOM     12  N   UNL     1       4.251  -2.310   8.429  0.00  0.00    -0.044 NA
ATOM     13  N   UNL     1       3.095  -2.880   8.386  0.00  0.00    -0.228 N 
BRANCH  13  14
ATOM     14  C   UNL     1       2.261  -3.245   9.533  0.00  0.00    +0.111 C 
ATOM     15  C   UNL     1       1.921  -1.988  10.337  0.00  0.00    +0.027 C 
ATOM     16  C   UNL     1       1.050  -2.370  11.536  0.00  0.00    +0.002 C 
ATOM     17  C   UNL     1       1.811  -3.355  12.426  0.00  0.00    +0.000 C 
ATOM     18  C   UNL     1       2.151  -4.611  11.623  0.00  0.00    +0.002 C 
ATOM     19  C   UNL     1       3.022  -4.230  10.424  0.00  0.00    +0.027 C 
ENDBRANCH  13  14
ENDBRANCH   8   9
BRANCH   8  20
ATOM     20  C   UNL     1       1.855  -5.146   6.100  0.00  0.00    -0.008 C 
BRANCH  20  22
ATOM     21  C   UNL     1       0.990  -7.120   4.837  0.00  0.00    +0.004 C 
ATOM     22  C   UNL     1       0.735  -5.654   5.191  0.00  0.00    -0.005 C 
ENDBRANCH  20  22
ENDBRANCH   8  20
ENDBRANCH   1   8
BRANCH   1  23
ATOM     23  C   UNL     1      -0.354  -3.182   5.135  0.00  0.00    -0.036 C 
BRANCH  23  24
ATOM     24  C   UNL     1      -1.132  -2.920   6.398  0.00  0.00    +0.001 A 
ATOM     25  C   UNL     1      -1.887  -1.798   6.506  0.00  0.00    +0.017 A 
ATOM     26  C   UNL     1      -2.631  -1.573   7.746  0.00  0.00    -0.001 A 
ATOM     27  C   UNL     1      -3.427  -0.435   7.916  0.00  0.00    +0.010 A 
ATOM     28  C   UNL     1      -4.108  -0.253   9.086  0.00  0.00    +0.001 A 
ATOM     29  C   UNL     1      -4.024  -1.192  10.105  0.00  0.00    +0.005 A 
ATOM     30  C   UNL     1      -3.242  -2.318   9.963  0.00  0.00    -0.026 A 
ATOM     31  C   UNL     1      -2.538  -2.523   8.780  0.00  0.00    +0.052 A 
ATOM     32  N   UNL     1      -1.752  -3.643   8.608  0.00  0.00    -0.322 N 
ATOM     33  H   UNL     1      -1.690  -4.297   9.321  0.00  0.00    +0.169 HD
ATOM     34  C   UNL     1      -1.073  -3.842   7.465  0.00  0.00    +0.251 A 
ATOM     35  O   UNL     1      -0.388  -4.843   7.347  0.00  0.00    -0.268 OA
ATOM     36  C   UNL     1      -3.154  -3.325  11.080  0.00  0.00    +0.046 C 
ENDBRANCH  23  24
ENDBRANCH   1  23
TORSDOF 8
