REMARK  Name = ZINC23847051
REMARK  7 active torsions:
REMARK  status: ('A' for Active; 'I' for Inactive)
REMARK    1  A    between atoms: C_1  and  C_2
REMARK    2  A    between atoms: C_2  and  N_3
REMARK    3  A    between atoms: N_3  and  C_4
REMARK    4  A    between atoms: N_3  and  C_17
REMARK    5  A    between atoms: C_4  and  C_5
REMARK    6  A    between atoms: C_17  and  C_18
REMARK    7  A    between atoms: C_31  and  C_33
REMARK                            x       y       z     vdW  Elec       q    Type
REMARK                         _______ _______ _______ _____ _____    ______ ____
ROOT
ATOM      1  N   UNL     1       5.719   3.851   0.009  0.00  0.00    -0.287 NA
ENDROOT
BRANCH   1   3
ATOM      2  C   UNL     1       6.012   3.235   2.361  0.00  0.00    +0.020 C 
ATOM      3  C   UNL     1       5.087   3.892   1.334  0.00  0.00    +0.082 C 
ENDBRANCH   1   3
BRANCH   1   4
ATOM      4  C   UNL     1       5.996   2.467  -0.399  0.00  0.00    +0.159 C 
BRANCH   4   5
ATOM      5  C   UNL     1       4.696   1.732  -0.599  0.00  0.00    +0.125 A 
ATOM      6  N   UNL     1       4.744   0.429  -0.981  0.00  0.00    -0.309 N 
ATOM      7  C   UNL     1       3.605  -0.276  -1.173  0.00  0.00    +0.259 A 
ATOM      8  O   UNL     1       3.634  -1.444  -1.516  0.00  0.00    -0.267 OA
ATOM      9  C   UNL     1       2.331   0.424  -0.954  0.00  0.00    +0.065 A 
ATOM     10  C   UNL     1       1.102  -0.210  -1.125  0.00  0.00    +0.017 A 
ATOM     11  C   UNL     1      -0.054   0.486  -0.908  0.00  0.00    +0.021 A 
ATOM     12  C   UNL     1      -0.017   1.820  -0.518  0.00  0.00    +0.043 A 
ATOM     13  C   UNL     1       1.185   2.470  -0.341  0.00  0.00    +0.048 A 
ATOM     14  C   UNL     1       2.379   1.779  -0.557  0.00  0.00    +0.080 A 
ATOM     15  N   UNL     1       3.587   2.376  -0.397  0.00  0.00    -0.232 NA
ATOM     16 CL   UNL     1      -1.503   2.676  -0.249  0.00  0.00    -0.083 Cl
ATOM     17  H   UNL     1       5.716  -0.063  -1.136  0.00  0.00    +0.170 HD
ENDBRANCH   4   5
ENDBRANCH   1   4
BRANCH   1  18
ATOM     18  C   UNL     1       6.943   4.662  -0.017  0.00  0.00    +0.181 C 
BRANCH  18  19
ATOM     19  C   UNL     1       6.577   6.124   0.025  0.00  0.00    +0.234 C 
ATOM     20  O   UNL     1       5.413   6.460  -0.032  0.00  0.00    -0.274 OA
ATOM     21  N   UNL     1       7.544   7.058   0.127  0.00  0.00    -0.265 N 
ATOM     22  C   UNL     1       8.893   6.686   0.200  0.00  0.00    +0.058 A 
ATOM     23  C   UNL     1       9.551   6.207  -0.928  0.00  0.00    +0.025 A 
ATOM     24  C   UNL     1      10.891   5.877  -0.852  0.00  0.00    +0.002 A 
ATOM     25  C   UNL     1      11.579   6.023   0.339  0.00  0.00    +0.002 A 
ATOM     26  C   UNL     1      10.928   6.487   1.467  0.00  0.00    +0.025 A 
ATOM     27  C   UNL     1       9.582   6.807   1.402  0.00  0.00    +0.055 A 
ATOM     28  N   UNL     1       8.891   7.249   2.536  0.00  0.00    -0.284 N 
ATOM     29  C   UNL     1       8.116   8.355   2.481  0.00  0.00    +0.219 C 
ATOM     30  O   UNL     1       7.464   8.682   3.450  0.00  0.00    -0.275 OA
ATOM     31  C   UNL     1       8.057   9.185   1.226  0.00  0.00    +0.118 C 
ATOM     32  C   UNL     1       7.205   8.481   0.169  0.00  0.00    +0.087 C 
ATOM     33  C   UNL     1       7.476   9.108  -1.200  0.00  0.00    +0.029 C 
ATOM     34  H   UNL     1       8.976   6.695   3.483  0.00  0.00    +0.155 HD
ENDBRANCH  18  19
ENDBRANCH   1  18
TORSDOF 5
