REMARK  Name = ZINC39969002
REMARK  10 active torsions:
REMARK  status: ('A' for Active; 'I' for Inactive)
REMARK    1  A    between atoms: C_1  and  O_2
REMARK    2  A    between atoms: O_2  and  C_3
REMARK    3  A    between atoms: C_8  and  C_13
REMARK    4  A    between atoms: C_13  and  C_33
REMARK    5  A    between atoms: C_14  and  C_15
REMARK    6  A    between atoms: C_18  and  O_23
REMARK    7  A    between atoms: C_19  and  O_21
REMARK    8  A    between atoms: O_21  and  C_22
REMARK    9  A    between atoms: O_23  and  C_24
REMARK   10  A    between atoms: C_24  and  C_25
REMARK                            x       y       z     vdW  Elec       q    Type
REMARK                         _______ _______ _______ _____ _____    ______ ____
ROOT
ATOM      1  C   UNL     1       3.008  -6.309   5.255  0.00  0.00    -0.020 A 
ATOM      2  C   UNL     1       1.702  -5.808   5.306  0.00  0.00    +0.012 A 
ATOM      3  C   UNL     1       0.804  -6.320   6.216  0.00  0.00    +0.050 A 
ATOM      4  C   UNL     1       1.190  -7.331   7.085  0.00  0.00    +0.162 A 
ATOM      5  C   UNL     1       2.489  -7.835   7.041  0.00  0.00    +0.162 A 
ATOM      6  C   UNL     1       3.395  -7.332   6.127  0.00  0.00    +0.057 A 
ENDROOT
BRANCH   1   8
ATOM      7  C   UNL     1       3.973  -4.445   4.005  0.00  0.00    +0.072 C 
ATOM      8  C   UNL     1       3.969  -5.765   4.283  0.00  0.00    +0.026 C 
BRANCH   7  14
ATOM      9  C   UNL     1       1.953   0.751   3.487  0.00  0.00    +0.122 A 
ATOM     10  C   UNL     1       3.107   1.077   4.315  0.00  0.00    +0.048 A 
ATOM     11  C   UNL     1       3.819   0.126   4.948  0.00  0.00    +0.031 A 
ATOM     12  C   UNL     1       3.434  -1.287   4.812  0.00  0.00    +0.061 A 
ATOM     13  N   UNL     1       3.937  -2.382   5.304  0.00  0.00    -0.359 N 
ATOM     14  C   UNL     1       3.122  -3.501   4.815  0.00  0.00    +0.216 C 
ATOM     15  N   UNL     1       2.075  -2.914   3.971  0.00  0.00    -0.359 N 
ATOM     16  C   UNL     1       2.256  -1.621   3.968  0.00  0.00    +0.064 A 
ATOM     17  C   UNL     1       1.533  -0.526   3.317  0.00  0.00    +0.073 A 
ATOM     18  H   UNL     1       4.709  -2.447   5.888  0.00  0.00    +0.162 HD
ATOM     19  H   UNL     1       1.377  -3.397   3.501  0.00  0.00    +0.162 HD
BRANCH   9  21
ATOM     20  C   UNL     1       1.759   3.084   3.083  0.00  0.00    +0.277 C 
ATOM     21  O   UNL     1       1.278   1.755   2.873  0.00  0.00    -0.495 OA
ENDBRANCH   9  21
ENDBRANCH   7  14
BRANCH   7  22
ATOM     22  C   UNL     1       4.786  -3.940   2.940  0.00  0.00    +0.099 C 
ATOM     23  N   UNL     1       5.432  -3.540   2.095  0.00  0.00    -0.191 NA
ENDBRANCH   7  22
ENDBRANCH   1   8
BRANCH   5  24
ATOM     24  O   UNL     1       2.864  -8.826   7.894  0.00  0.00    -0.491 OA
ATOM     25  C   UNL     1       4.210  -9.295   7.793  0.00  0.00    +0.277 C 
ENDBRANCH   5  24
BRANCH   4  26
ATOM     26  O   UNL     1       0.300  -7.831   7.982  0.00  0.00    -0.484 OA
BRANCH  26  27
ATOM     27  C   UNL     1      -1.014  -7.269   7.974  0.00  0.00    +0.264 C 
BRANCH  27  28
ATOM     28  C   UNL     1      -1.855  -7.942   9.027  0.00  0.00    -0.009 A 
ATOM     29  C   UNL     1      -2.582  -9.075   8.711  0.00  0.00    +0.008 A 
ATOM     30  C   UNL     1      -3.354  -9.693   9.676  0.00  0.00    +0.022 A 
ATOM     31  C   UNL     1      -3.399  -9.180  10.960  0.00  0.00    +0.059 A 
ATOM     32  C   UNL     1      -2.670  -8.046  11.277  0.00  0.00    +0.060 A 
ATOM     33  C   UNL     1      -1.894  -7.431  10.311  0.00  0.00    +0.028 A 
ATOM     34 CL   UNL     1      -2.726  -7.400  12.887  0.00  0.00    -0.082 Cl
ATOM     35 CL   UNL     1      -4.369  -9.956  12.172  0.00  0.00    -0.082 Cl
ENDBRANCH  27  28
ENDBRANCH  26  27
ENDBRANCH   4  26
TORSDOF 8
