REMARK  Name = ZINC39700689
REMARK  2 active torsions:
REMARK  status: ('A' for Active; 'I' for Inactive)
REMARK    1  A    between atoms: C_1  and  C_2
REMARK    2  A    between atoms: N_12  and  N_13
REMARK                            x       y       z     vdW  Elec       q    Type
REMARK                         _______ _______ _______ _____ _____    ______ ____
ROOT
ATOM      1  N   UNL     1       0.079  -4.025   4.301  0.00  0.00    -0.246 N 
ATOM      2  C   UNL     1       0.099  -5.276   4.754  0.00  0.00    +0.231 C 
ATOM      3  N   UNL     1       0.115  -6.335   3.851  0.00  0.00    -0.288 N 
ATOM      4  C   UNL     1      -0.521  -7.560   4.340  0.00  0.00    +0.220 C 
ATOM      5  C   UNL     1      -0.036  -7.729   5.774  0.00  0.00    +0.113 C 
ATOM      6  C   UNL     1       0.333  -9.043   5.873  0.00  0.00    +0.025 A 
ATOM      7  C   UNL     1       0.740  -9.834   6.972  0.00  0.00    +0.012 A 
ATOM      8  C   UNL     1       1.062 -11.134   6.723  0.00  0.00    +0.001 A 
ATOM      9  C   UNL     1       1.015 -11.726   5.458  0.00  0.00    +0.002 A 
ATOM     10  C   UNL     1       0.631 -11.064   4.334  0.00  0.00    +0.026 A 
ATOM     11  C   UNL     1       0.255  -9.651   4.510  0.00  0.00    +0.046 A 
ATOM     12  N   UNL     1      -0.160  -8.783   3.646  0.00  0.00    -0.361 N 
ATOM     13  N   UNL     1       0.117  -6.691   6.587  0.00  0.00    -0.147 NA
ATOM     14  N   UNL     1       0.108  -5.505   6.075  0.00  0.00    -0.113 NA
ATOM     15  H   UNL     1      -0.222  -8.930   2.690  0.00  0.00    +0.162 HD
ATOM     16  H   UNL     1       0.514  -6.267   2.970  0.00  0.00    +0.151 HD
ATOM     17  H   UNL     1       0.072  -3.283   4.926  0.00  0.00    +0.192 HD
ENDROOT
BRANCH   1  29
ATOM     18  C   UNL     1      -0.018   1.503   0.010  0.00  0.00    +0.046 C 
ATOM     19  C   UNL     1       0.002  -0.004   0.002  0.00  0.00    -0.028 A 
ATOM     20  C   UNL     1       0.006  -0.686  -1.199  0.00  0.00    +0.020 A 
ATOM     21  C   UNL     1       0.025  -2.072  -1.224  0.00  0.00    +0.019 A 
ATOM     22  C   UNL     1       0.041  -2.786  -0.043  0.00  0.00    +0.027 A 
ATOM     23  C   UNL     1       0.037  -2.107   1.174  0.00  0.00    +0.030 A 
ATOM     24  C   UNL     1       0.023  -0.704   1.202  0.00  0.00    +0.046 A 
ATOM     25  N   UNL     1       0.029  -0.273   2.524  0.00  0.00    -0.279 N 
ATOM     26  C   UNL     1       0.052  -1.311   3.377  0.00  0.00    +0.269 C 
ATOM     27  O   UNL     1       0.062  -1.240   4.592  0.00  0.00    -0.268 OA
ATOM     28  C   UNL     1       0.050  -2.553   2.581  0.00  0.00    +0.155 C 
ATOM     29  N   UNL     1       0.070  -3.798   3.031  0.00  0.00    -0.166 NA
ATOM     30 BR   UNL     1       0.029  -2.986  -2.880  0.00  0.00    -0.050 Br
ATOM     31  H   UNL     1       0.019   0.658   2.796  0.00  0.00    +0.155 HD
ENDBRANCH   1  29
TORSDOF 1
