REMARK  Name = ZINC03851774
REMARK  5 active torsions:
REMARK  status: ('A' for Active; 'I' for Inactive)
REMARK    1  A    between atoms: C_1  and  C_2
REMARK    2  A    between atoms: C_2  and  O_3
REMARK    3  A    between atoms: O_3  and  C_4
REMARK    4  A    between atoms: C_4  and  C_6
REMARK    5  A    between atoms: C_8  and  C_24
REMARK                            x       y       z     vdW  Elec       q    Type
REMARK                         _______ _______ _______ _____ _____    ______ ____
ROOT
ATOM      1  C   UNL     1       1.277  -2.378   2.458  0.00  0.00    +0.195 C 
ATOM      2  C   UNL     1       1.374  -3.906   2.510  0.00  0.00    +0.082 C 
ATOM      3  C   UNL     1       0.093  -4.484   3.053  0.00  0.00    +0.088 A 
ATOM      4  C   UNL     1      -0.778  -3.741   3.789  0.00  0.00    +0.151 A 
ATOM      5  C   UNL     1      -1.999  -4.392   4.293  0.00  0.00    +0.060 A 
ATOM      6  C   UNL     1      -2.926  -3.684   5.060  0.00  0.00    +0.015 A 
ATOM      7  C   UNL     1      -4.058  -4.322   5.518  0.00  0.00    +0.001 A 
ATOM      8  C   UNL     1      -4.277  -5.659   5.220  0.00  0.00    +0.004 A 
ATOM      9  C   UNL     1      -3.370  -6.369   4.462  0.00  0.00    +0.047 A 
ATOM     10  C   UNL     1      -2.222  -5.744   3.991  0.00  0.00    +0.143 A 
ATOM     11  O   UNL     1      -1.322  -6.421   3.246  0.00  0.00    -0.422 OA
ATOM     12  C   UNL     1      -0.205  -5.835   2.788  0.00  0.00    +0.345 A 
ATOM     13  O   UNL     1       0.575  -6.493   2.122  0.00  0.00    -0.245 OA
ATOM     14  O   UNL     1      -0.568  -2.433   4.061  0.00  0.00    -0.440 OA
ATOM     15  C   UNL     1       0.650  -1.915   3.759  0.00  0.00    +0.204 C 
ATOM     16  N   UNL     1       1.243  -1.074   4.536  0.00  0.00    -0.270 NA
ATOM     17  H   UNL     1       0.819  -0.795   5.363  0.00  0.00    +0.190 HD
ENDROOT
BRANCH   2  18
ATOM     18  C   UNL     1       1.612  -4.439   1.121  0.00  0.00    -0.038 A 
ATOM     19  C   UNL     1       2.868  -4.893   0.760  0.00  0.00    +0.005 A 
ATOM     20  C   UNL     1       3.086  -5.383  -0.514  0.00  0.00    +0.015 A 
ATOM     21  C   UNL     1       2.049  -5.419  -1.428  0.00  0.00    +0.018 A 
ATOM     22  C   UNL     1       0.793  -4.965  -1.067  0.00  0.00    +0.015 A 
ATOM     23  C   UNL     1       0.574  -4.480   0.209  0.00  0.00    +0.005 A 
ATOM     24 BR   UNL     1       2.348  -6.088  -3.171  0.00  0.00    -0.050 Br
ENDBRANCH   2  18
BRANCH   1  25
ATOM     25  C   UNL     1       0.414  -1.959   1.296  0.00  0.00    +0.320 C 
ATOM     26  O   UNL     1      -0.789  -1.958   1.406  0.00  0.00    -0.250 OA
BRANCH  25  27
ATOM     27  O   UNL     1       0.983  -1.587   0.138  0.00  0.00    -0.464 OA
BRANCH  27  29
ATOM     28  C   UNL     1       0.928  -0.815  -2.151  0.00  0.00    +0.048 C 
ATOM     29  C   UNL     1       0.104  -1.202  -0.922  0.00  0.00    +0.229 C 
ENDBRANCH  27  29
ENDBRANCH  25  27
ENDBRANCH   1  25
TORSDOF 4
