REMARK  Name = ZINC05395720
REMARK  12 active torsions:
REMARK  status: ('A' for Active; 'I' for Inactive)
REMARK    1  A    between atoms: C_1  and  C_2
REMARK    2  A    between atoms: N_4  and  C_11
REMARK    3  A    between atoms: C_15  and  C_43
REMARK    4  A    between atoms: C_20  and  C_42
REMARK    5  A    between atoms: C_31  and  C_33
REMARK    6  A    between atoms: C_33  and  C_35
REMARK    7  A    between atoms: C_33  and  C_36
REMARK    8  A    between atoms: C_36  and  C_37
REMARK    9  A    between atoms: C_37  and  C_38
REMARK   10  A    between atoms: C_38  and  C_39
REMARK   11  A    between atoms: C_39  and  C_40
REMARK   12  A    between atoms: C_39  and  C_41
REMARK                            x       y       z     vdW  Elec       q    Type
REMARK                         _______ _______ _______ _____ _____    ______ ____
ROOT
ATOM      1  C   UNL     1       1.640  -1.582  -1.396  0.00  0.00    +0.096 C 
ATOM      2  C   UNL     1       2.399  -2.308  -2.504  0.00  0.00    +0.026 C 
ATOM      3  C   UNL     1       2.166  -3.813  -2.434  0.00  0.00    +0.013 C 
ATOM      4  C   UNL     1       2.494  -4.340  -1.029  0.00  0.00    -0.008 C 
ATOM      5  C   UNL     1       3.389  -5.551  -1.142  0.00  0.00    +0.003 C 
ATOM      6  C   UNL     1       3.115  -6.668  -0.155  0.00  0.00    +0.005 C 
ATOM      7  C   UNL     1       3.962  -7.913  -0.509  0.00  0.00    +0.007 C 
ATOM      8  C   UNL     1       5.421  -7.547  -0.463  0.00  0.00    -0.026 C 
ATOM      9  C   UNL     1       5.705  -6.359  -1.400  0.00  0.00    -0.001 C 
ATOM     10  C   UNL     1       4.875  -5.142  -1.134  0.00  0.00    +0.000 C 
ATOM     11  C   UNL     1       5.189  -4.418   0.168  0.00  0.00    +0.031 C 
ATOM     12  C   UNL     1       4.277  -3.221   0.281  0.00  0.00    -0.027 C 
ATOM     13  C   UNL     1       3.087  -3.207  -0.234  0.00  0.00    -0.065 C 
ATOM     14  C   UNL     1       2.229  -1.969  -0.035  0.00  0.00    +0.056 C 
ATOM     15  C   UNL     1       7.232  -6.245  -1.308  0.00  0.00    +0.004 C 
ATOM     16  C   UNL     1       7.679  -7.735  -1.343  0.00  0.00    +0.004 C 
ATOM     17  C   UNL     1       6.427  -8.583  -0.995  0.00  0.00    -0.002 C 
ATOM     18  C   UNL     1       5.840  -7.282   0.988  0.00  0.00    +0.012 C 
ATOM     19  C   UNL     1       1.166  -4.728  -0.377  0.00  0.00    +0.016 C 
ENDROOT
BRANCH   1  23
ATOM     20  C   UNL     1      -0.490   2.797  -2.163  0.00  0.00    +0.051 C 
ATOM     21  C   UNL     1       0.740   1.952  -1.951  0.00  0.00    +0.030 A 
ATOM     22  C   UNL     1       0.631   0.618  -1.774  0.00  0.00    +0.099 A 
ATOM     23  N   UNL     1       1.758  -0.136  -1.588  0.00  0.00    -0.297 N 
ATOM     24  C   UNL     1       2.974   0.441  -1.581  0.00  0.00    +0.330 A 
ATOM     25  O   UNL     1       3.962  -0.248  -1.415  0.00  0.00    -0.246 OA
ATOM     26  N   UNL     1       3.111   1.768  -1.756  0.00  0.00    -0.275 N 
ATOM     27  H   UNL     1       4.023   2.179  -1.749  0.00  0.00    +0.173 HD
ATOM     28  C   UNL     1       2.025   2.545  -1.942  0.00  0.00    +0.257 A 
ATOM     29  O   UNL     1       2.149   3.746  -2.100  0.00  0.00    -0.267 OA
ENDBRANCH   1  23
BRANCH  17  30
ATOM     30  C   UNL     1       5.903  -9.305  -2.228  0.00  0.00    -0.010 C 
ATOM     31  C   UNL     1       7.048 -10.065  -2.900  0.00  0.00    +0.008 C 
BRANCH  30  32
ATOM     32  C   UNL     1       4.810 -10.293  -1.815  0.00  0.00    +0.003 C 
BRANCH  32  33
ATOM     33  C   UNL     1       4.181 -10.911  -3.065  0.00  0.00    +0.001 C 
BRANCH  33  34
ATOM     34  C   UNL     1       3.088 -11.898  -2.652  0.00  0.00    +0.003 C 
BRANCH  34  35
ATOM     35  C   UNL     1       2.458 -12.516  -3.902  0.00  0.00    -0.017 C 
ATOM     36  C   UNL     1       1.454 -13.593  -3.489  0.00  0.00    +0.007 C 
ATOM     37  C   UNL     1       1.739 -11.427  -4.702  0.00  0.00    +0.007 C 
ENDBRANCH  34  35
ENDBRANCH  33  34
ENDBRANCH  32  33
ENDBRANCH  30  32
ENDBRANCH  17  30
TORSDOF 6
