REMARK  Name = ZINC35382055
REMARK  5 active torsions:
REMARK  status: ('A' for Active; 'I' for Inactive)
REMARK    1  A    between atoms: C_1  and  C_2
REMARK    2  A    between atoms: C_4  and  C_8
REMARK    3  A    between atoms: C_5  and  C_7
REMARK    4  A    between atoms: C_8  and  C_10
REMARK    5  A    between atoms: C_8  and  N_22
REMARK                            x       y       z     vdW  Elec       q    Type
REMARK                         _______ _______ _______ _____ _____    ______ ____
ROOT
ATOM      1  C   UNL     1      -1.435  -3.387  -0.009  0.00  0.00    -0.008 C 
ENDROOT
BRANCH   1   2
ATOM      2  C   UNL     1      -1.618  -3.866  -1.426  0.00  0.00    -0.036 A 
ATOM      3  C   UNL     1      -2.693  -3.417  -2.172  0.00  0.00    +0.053 A 
ATOM      4  C   UNL     1      -2.858  -3.858  -3.474  0.00  0.00    +0.162 A 
ATOM      5  C   UNL     1      -1.947  -4.748  -4.027  0.00  0.00    +0.163 A 
ATOM      6  C   UNL     1      -0.873  -5.196  -3.278  0.00  0.00    +0.069 A 
ATOM      7  C   UNL     1      -0.708  -4.748  -1.978  0.00  0.00    +0.047 A 
ATOM      8 CL   UNL     1       0.643  -5.300  -1.037  0.00  0.00    -0.083 Cl
ATOM      9  O   UNL     1      -2.118  -5.176  -5.311  0.00  0.00    -0.488 OA
ATOM     10  C   UNL     1      -3.246  -6.023  -5.543  0.00  0.00    +0.232 C 
ATOM     11  C   UNL     1      -4.503  -5.197  -5.769  0.00  0.00    +0.082 C 
ATOM     12  C   UNL     1      -4.904  -4.403  -4.536  0.00  0.00    +0.232 C 
ATOM     13  O   UNL     1      -3.913  -3.422  -4.221  0.00  0.00    -0.488 OA
ENDBRANCH   1   2
BRANCH   1  17
ATOM     14  C   UNL     1       1.294   0.656  -1.478  0.00  0.00    +0.086 C 
ATOM     15  C   UNL     1       0.662  -0.433  -0.649  0.00  0.00    +0.102 A 
ATOM     16  C   UNL     1      -0.172  -1.385  -1.106  0.00  0.00    +0.047 A 
ATOM     17  C   UNL     1      -0.520  -2.190   0.003  0.00  0.00    -0.017 A 
ATOM     18  C   UNL     1       0.122  -1.682   1.071  0.00  0.00    +0.104 A 
ATOM     19  O   UNL     1       0.841  -0.621   0.668  0.00  0.00    -0.465 OA
ATOM     20  C   UNL     1       0.050  -2.215   2.478  0.00  0.00    +0.086 C 
ENDBRANCH   1  17
BRANCH   1  21
ATOM     21  N   UNL     1      -2.740  -3.012   0.554  0.00  0.00    +0.385 N 
ATOM     22  H   UNL     1      -3.145  -2.273  -0.001  0.00  0.00    -0.089 HD
ATOM     23  H   UNL     1      -3.353  -3.813   0.546  0.00  0.00    -0.089 HD
ATOM     24  H   UNL     1      -2.617  -2.691   1.502  0.00  0.00    -0.089 HD
ENDBRANCH   1  21
TORSDOF 3
