REMARK  Name = ZINC63281509
REMARK  5 active torsions:
REMARK  status: ('A' for Active; 'I' for Inactive)
REMARK    1  A    between atoms: C_6  and  N_7
REMARK    2  A    between atoms: C_8  and  C_10
REMARK    3  A    between atoms: N_12  and  C_13
REMARK    4  A    between atoms: C_13  and  C_14
REMARK    5  A    between atoms: C_14  and  C_15
REMARK                            x       y       z     vdW  Elec       q    Type
REMARK                         _______ _______ _______ _____ _____    ______ ____
ROOT
ATOM      1  C   UNL     1      -3.655  -0.792   0.247  0.00  0.00    +0.299 C 
ATOM      2  O   UNL     1      -3.648  -2.006   0.240  0.00  0.00    -0.265 OA
ATOM      3  N   UNL     1      -4.820  -0.125   0.363  0.00  0.00    -0.307 N 
ATOM      4  H   UNL     1      -4.825   0.845   0.369  0.00  0.00    +0.149 HD
ENDROOT
BRANCH   1   6
ATOM      5  N   UNL     1      -1.206  -0.705   0.010  0.00  0.00    -0.278 N 
ATOM      6  C   UNL     1      -2.372  -0.038   0.126  0.00  0.00    +0.303 C 
ATOM      7  O   UNL     1      -2.378   1.176   0.133  0.00  0.00    -0.265 OA
ATOM      8  H   UNL     1      -1.207  -1.672  -0.073  0.00  0.00    +0.155 HD
BRANCH   5  14
ATOM      9  C   UNL     1       0.126   1.153   0.788  0.00  0.00    +0.025 A 
ATOM     10  C   UNL     1       1.276   1.864   0.817  0.00  0.00    +0.032 A 
ATOM     11  C   UNL     1       2.397   1.444   0.049  0.00  0.00    +0.100 A 
ATOM     12  C   UNL     1       2.271   0.240  -0.764  0.00  0.00    +0.102 A 
ATOM     13  C   UNL     1       1.035  -0.460  -0.751  0.00  0.00    +0.054 A 
ATOM     14  C   UNL     1       0.002  -0.005   0.008  0.00  0.00    +0.036 A 
ATOM     15  N   UNL     1       3.383  -0.055  -1.440  0.00  0.00    -0.191 NA
ATOM     16  S   UNL     1       4.442   1.094  -1.056  0.00  0.00    +0.116 S 
ATOM     17  N   UNL     1       3.598   2.016  -0.043  0.00  0.00    -0.191 NA
ENDBRANCH   5  14
ENDBRANCH   1   6
BRANCH   3  18
ATOM     18  C   UNL     1      -6.079  -0.865   0.482  0.00  0.00    +0.109 C 
BRANCH  18  19
ATOM     19  C   UNL     1      -7.242   0.122   0.599  0.00  0.00    +0.052 C 
BRANCH  19  20
ATOM     20  C   UNL     1      -8.537  -0.639   0.721  0.00  0.00    -0.040 C 
ATOM     21  C   UNL     1      -9.182  -0.969   1.863  0.00  0.00    +0.000 A 
ATOM     22  C   UNL     1      -8.882  -0.728   3.280  0.00  0.00    +0.030 A 
ATOM     23  C   UNL     1      -9.737  -1.192   4.220  0.00  0.00    +0.042 A 
ATOM     24  C   UNL     1     -10.900  -1.897   3.875  0.00  0.00    +0.022 A 
ATOM     25  C   UNL     1     -11.242  -2.156   2.596  0.00  0.00    +0.027 A 
ATOM     26  C   UNL     1     -10.415  -1.714   1.526  0.00  0.00    +0.043 A 
ATOM     27  N   UNL     1     -10.529  -1.840   0.226  0.00  0.00    -0.380 N 
ATOM     28  C   UNL     1      -9.382  -1.182  -0.409  0.00  0.00    +0.144 C 
ATOM     29 CL   UNL     1      -9.385  -0.909   5.896  0.00  0.00    -0.084 Cl
ATOM     30  H   UNL     1     -11.252  -2.290  -0.238  0.00  0.00    +0.160 HD
ENDBRANCH  19  20
ENDBRANCH  18  19
ENDBRANCH   3  18
TORSDOF 5
