REMARK  Name = ZINC06752728
REMARK  11 active torsions:
REMARK  status: ('A' for Active; 'I' for Inactive)
REMARK    1  A    between atoms: C_1  and  C_2
REMARK    2  A    between atoms: C_2  and  C_3
REMARK    3  A    between atoms: C_2  and  C_4
REMARK    4  A    between atoms: C_7  and  C_10
REMARK    5  A    between atoms: C_17  and  O_18
REMARK    6  A    between atoms: C_20  and  C_33
REMARK    7  A    between atoms: C_20  and  O_34
REMARK    8  A    between atoms: C_21  and  C_23
REMARK    9  A    between atoms: C_23  and  O_25
REMARK   10  A    between atoms: O_25  and  C_26
REMARK   11  A    between atoms: C_26  and  C_27
REMARK                            x       y       z     vdW  Elec       q    Type
REMARK                         _______ _______ _______ _____ _____    ______ ____
ROOT
ATOM      1  C   UNL     1       0.421  -2.015  -1.455  0.00  0.00    +0.072 C 
ATOM      2  C   UNL     1       0.880  -2.670  -0.176  0.00  0.00    +0.044 A 
ATOM      3  C   UNL     1       1.062  -2.009   0.995  0.00  0.00    +0.046 A 
ATOM      4  N   UNL     1       1.476  -2.899   1.912  0.00  0.00    -0.278 N 
ATOM      5  H   UNL     1       1.692  -2.702   2.868  0.00  0.00    +0.189 HD
ATOM      6  N   UNL     1       1.552  -4.155   1.291  0.00  0.00    -0.136 NA
ATOM      7  C   UNL     1       1.193  -4.015   0.035  0.00  0.00    +0.235 A 
ATOM      8  C   UNL     1       0.825  -0.530   1.178  0.00  0.00    +0.090 C 
ATOM      9  C   UNL     1      -0.019  -0.027   0.001  0.00  0.00    +0.082 C 
ATOM     10  C   UNL     1       0.606  -0.499  -1.315  0.00  0.00    +0.141 C 
ATOM     11  C   UNL     1      -0.065   1.502   0.024  0.00  0.00    +0.042 C 
ENDROOT
BRANCH   1  15
ATOM     12  C   UNL     1       2.760  -3.453  -4.728  0.00  0.00    -0.045 A 
ATOM     13  C   UNL     1       1.390  -3.640  -4.722  0.00  0.00    +0.004 A 
ATOM     14  C   UNL     1       0.633  -3.175  -3.663  0.00  0.00    +0.004 A 
ATOM     15  C   UNL     1       1.246  -2.522  -2.609  0.00  0.00    -0.039 A 
ATOM     16  C   UNL     1       2.615  -2.330  -2.618  0.00  0.00    +0.004 A 
ATOM     17  C   UNL     1       3.372  -2.799  -3.675  0.00  0.00    +0.004 A 
BRANCH  12  19
ATOM     18  C   UNL     1       4.309  -2.788  -6.546  0.00  0.00    +0.012 C 
ATOM     19  C   UNL     1       3.585  -3.961  -5.882  0.00  0.00    +0.013 C 
ATOM     20  C   UNL     1       4.613  -4.970  -5.368  0.00  0.00    +0.012 C 
ENDBRANCH  12  19
ENDBRANCH   1  15
BRANCH   7  21
ATOM     21  O   UNL     1       1.135  -5.005  -0.895  0.00  0.00    -0.491 OA
ATOM     22  H   UNL     1       1.411  -5.871  -0.478  0.00  0.00    +0.294 HD
ENDBRANCH   7  21
BRANCH  10  23
ATOM     23  C   UNL     1      -0.068   0.197  -2.469  0.00  0.00    +0.314 C 
ATOM     24  O   UNL     1      -1.104  -0.236  -2.915  0.00  0.00    -0.250 OA
BRANCH  23  25
ATOM     25  O   UNL     1       0.482   1.300  -3.002  0.00  0.00    -0.460 OA
BRANCH  25  26
ATOM     26  C   UNL     1      -0.222   1.918  -4.111  0.00  0.00    +0.267 C 
BRANCH  26  27
ATOM     27  C   UNL     1       0.539   3.133  -4.575  0.00  0.00    -0.010 A 
ATOM     28  C   UNL     1       0.269   4.370  -4.022  0.00  0.00    +0.007 A 
ATOM     29  C   UNL     1       0.971   5.484  -4.444  0.00  0.00    +0.000 A 
ATOM     30  C   UNL     1       1.936   5.362  -5.426  0.00  0.00    +0.000 A 
ATOM     31  C   UNL     1       2.202   4.125  -5.983  0.00  0.00    +0.000 A 
ATOM     32  C   UNL     1       1.504   3.010  -5.557  0.00  0.00    +0.007 A 
ENDBRANCH  26  27
ENDBRANCH  25  26
ENDBRANCH  23  25
ENDBRANCH  10  23
BRANCH   9  33
ATOM     33  O   UNL     1      -1.346  -0.545   0.110  0.00  0.00    -0.388 OA
ATOM     34  H   UNL     1      -1.804  -0.286   0.921  0.00  0.00    +0.210 HD
ENDBRANCH   9  33
TORSDOF 8
