REMARK  Name = ZINC64538247
REMARK  6 active torsions:
REMARK  status: ('A' for Active; 'I' for Inactive)
REMARK    1  A    between atoms: C_3  and  C_8
REMARK    2  A    between atoms: N_18  and  C_19
REMARK    3  A    between atoms: C_19  and  C_20
REMARK    4  A    between atoms: N_22  and  C_23
REMARK    5  A    between atoms: C_23  and  C_24
REMARK    6  A    between atoms: C_24  and  C_25
REMARK                            x       y       z     vdW  Elec       q    Type
REMARK                         _______ _______ _______ _____ _____    ______ ____
ROOT
ATOM      1  C   UNL     1       3.658   2.164  -0.022  0.00  0.00    +0.048 C 
ATOM      2  C   UNL     1       4.884   1.611  -0.042  0.00  0.00    +0.037 C 
ATOM      3  C   UNL     1       5.846   2.768  -0.020  0.00  0.00    +0.190 C 
ATOM      4  N   UNL     1       4.978   3.864   0.504  0.00  0.00    -0.204 NA
ATOM      5  N   UNL     1       3.764   3.567  -0.016  0.00  0.00    -0.275 N 
ATOM      6  C   UNL     1       5.599   5.141   0.224  0.00  0.00    +0.117 C 
ATOM      7  C   UNL     1       7.045   5.135   0.727  0.00  0.00    +0.113 C 
ATOM      8  C   UNL     1       7.438   3.842   1.378  0.00  0.00    +0.219 C 
ATOM      9  O   UNL     1       8.242   3.858   2.286  0.00  0.00    -0.275 OA
ATOM     10  N   UNL     1       6.923   2.644   0.968  0.00  0.00    -0.272 N 
ATOM     11  H   UNL     1       3.095   4.198  -0.324  0.00  0.00    +0.167 HD
ENDROOT
BRANCH   1  14
ATOM     12  C   UNL     1      -0.017   1.379   0.010  0.00  0.00    +0.002 A 
ATOM     13  C   UNL     1       1.167   2.088   0.002  0.00  0.00    +0.010 A 
ATOM     14  C   UNL     1       2.385   1.408  -0.013  0.00  0.00    -0.002 A 
ATOM     15  C   UNL     1       2.398   0.014  -0.021  0.00  0.00    +0.029 A 
ATOM     16  C   UNL     1       1.208  -0.685  -0.013  0.00  0.00    +0.042 A 
ATOM     17  C   UNL     1       0.002  -0.004   0.002  0.00  0.00    +0.020 A 
ATOM     18 CL   UNL     1       1.222  -2.421  -0.023  0.00  0.00    -0.084 Cl
ENDBRANCH   1  14
BRANCH  10  19
ATOM     19  C   UNL     1       7.392   1.353   1.476  0.00  0.00    +0.205 C 
BRANCH  19  20
ATOM     20  C   UNL     1       8.508   0.844   0.601  0.00  0.00    +0.230 C 
ATOM     21  O   UNL     1       8.876   1.496  -0.353  0.00  0.00    -0.274 OA
ATOM     22  N   UNL     1       9.098  -0.336   0.879  0.00  0.00    -0.314 N 
ATOM     23  H   UNL     1       8.804  -0.857   1.642  0.00  0.00    +0.149 HD
BRANCH  22  24
ATOM     24  C   UNL     1      10.183  -0.830   0.028  0.00  0.00    +0.108 C 
BRANCH  24  25
ATOM     25  C   UNL     1      10.673  -2.179   0.558  0.00  0.00    +0.052 C 
BRANCH  25  26
ATOM     26  C   UNL     1      11.789  -2.688  -0.317  0.00  0.00    -0.040 C 
ATOM     27  C   UNL     1      13.117  -2.538  -0.110  0.00  0.00    +0.000 A 
ATOM     28  C   UNL     1      13.890  -1.881   0.951  0.00  0.00    +0.030 A 
ATOM     29  C   UNL     1      15.242  -1.896   0.883  0.00  0.00    +0.042 A 
ATOM     30  C   UNL     1      15.920  -2.522  -0.173  0.00  0.00    +0.022 A 
ATOM     31  C   UNL     1      15.279  -3.146  -1.183  0.00  0.00    +0.027 A 
ATOM     32  C   UNL     1      13.857  -3.192  -1.213  0.00  0.00    +0.043 A 
ATOM     33  N   UNL     1      13.019  -3.725  -2.068  0.00  0.00    -0.380 N 
ATOM     34  C   UNL     1      11.651  -3.475  -1.601  0.00  0.00    +0.144 C 
ATOM     35 CL   UNL     1      16.160  -1.120   2.136  0.00  0.00    -0.084 Cl
ATOM     36  H   UNL     1      13.263  -4.207  -2.874  0.00  0.00    +0.160 HD
ENDBRANCH  25  26
ENDBRANCH  24  25
ENDBRANCH  22  24
ENDBRANCH  19  20
ENDBRANCH  10  19
TORSDOF 6
