REMARK  Name = ZINC09049024
REMARK  6 active torsions:
REMARK  status: ('A' for Active; 'I' for Inactive)
REMARK    1  A    between atoms: C_1  and  C_2
REMARK    2  A    between atoms: C_2  and  C_3
REMARK    3  A    between atoms: C_3  and  C_11
REMARK    4  A    between atoms: C_14  and  N_17
REMARK    5  A    between atoms: C_18  and  C_20
REMARK    6  A    between atoms: C_20  and  C_21
REMARK                            x       y       z     vdW  Elec       q    Type
REMARK                         _______ _______ _______ _____ _____    ______ ____
ROOT
ATOM      1  C   UNL     1       3.608   1.732  -1.151  0.00  0.00    -0.032 A 
ATOM      2  C   UNL     1       4.059   2.641  -0.211  0.00  0.00    +0.006 A 
ATOM      3  C   UNL     1       5.390   3.009  -0.187  0.00  0.00    +0.023 A 
ATOM      4  C   UNL     1       6.274   2.475  -1.116  0.00  0.00    +0.033 A 
ATOM      5  C   UNL     1       5.817   1.567  -2.062  0.00  0.00    +0.023 A 
ATOM      6  C   UNL     1       4.486   1.198  -2.077  0.00  0.00    +0.006 A 
ENDROOT
BRANCH   1   7
ATOM      7  C   UNL     1       2.157   1.328  -1.171  0.00  0.00    +0.072 C 
ATOM      8  C   UNL     1       1.427   1.984   0.006  0.00  0.00    +0.030 C 
ATOM      9  C   UNL     1      -0.017   1.471   0.031  0.00  0.00    +0.097 C 
ATOM     10  C   UNL     1      -0.007  -0.033   0.090  0.00  0.00    +0.219 C 
ATOM     11  O   UNL     1      -0.924  -0.614   0.630  0.00  0.00    -0.275 OA
ATOM     12  N   UNL     1       0.998  -0.744  -0.444  0.00  0.00    -0.256 N 
ATOM     13  C   UNL     1       2.049  -0.169  -1.047  0.00  0.00    +0.230 C 
ATOM     14  O   UNL     1       2.930  -0.867  -1.501  0.00  0.00    -0.274 OA
ATOM     15  H   UNL     1       0.963  -1.712  -0.393  0.00  0.00    +0.157 HD
BRANCH   7  17
ATOM     16  C   UNL     1       1.736   3.283  -2.669  0.00  0.00    +0.005 C 
ATOM     17  C   UNL     1       1.518   1.780  -2.486  0.00  0.00    +0.017 C 
ENDBRANCH   7  17
ENDBRANCH   1   7
BRANCH   4  18
ATOM     18  N   UNL     1       7.621   2.851  -1.098  0.00  0.00    -0.285 N 
ATOM     19  C   UNL     1       8.303   2.967  -2.255  0.00  0.00    +0.222 C 
ATOM     20  O   UNL     1       7.771   2.678  -3.305  0.00  0.00    -0.275 OA
ATOM     21  H   UNL     1       8.065   3.028  -0.254  0.00  0.00    +0.155 HD
BRANCH  19  22
ATOM     22  C   UNL     1       9.728   3.458  -2.243  0.00  0.00    +0.133 C 
BRANCH  22  23
ATOM     23  C   UNL     1      10.258   3.497  -3.653  0.00  0.00    -0.014 A 
ATOM     24  C   UNL     1      10.969   2.536  -4.265  0.00  0.00    +0.087 A 
ATOM     25  N   UNL     1      11.274   2.924  -5.542  0.00  0.00    -0.360 N 
ATOM     26  H   UNL     1      11.781   2.396  -6.178  0.00  0.00    +0.165 HD
ATOM     27  C   UNL     1      10.754   4.175  -5.788  0.00  0.00    +0.047 A 
ATOM     28  C   UNL     1      10.090   4.586  -4.618  0.00  0.00    +0.003 A 
ATOM     29  C   UNL     1       9.465   5.833  -4.574  0.00  0.00    +0.010 A 
ATOM     30  C   UNL     1       9.492   6.645  -5.673  0.00  0.00    +0.001 A 
ATOM     31  C   UNL     1      10.141   6.242  -6.831  0.00  0.00    +0.002 A 
ATOM     32  C   UNL     1      10.769   5.017  -6.895  0.00  0.00    +0.026 A 
ENDBRANCH  22  23
ENDBRANCH  19  22
ENDBRANCH   4  18
TORSDOF 5
