REMARK  Name = ZINC36508287
REMARK  14 active torsions:
REMARK  status: ('A' for Active; 'I' for Inactive)
REMARK    1  A    between atoms: C_1  and  C_2
REMARK    2  A    between atoms: C_2  and  C_3
REMARK    3  A    between atoms: C_3  and  C_4
REMARK    4  A    between atoms: C_4  and  C_5
REMARK    5  A    between atoms: C_5  and  C_6
REMARK    6  A    between atoms: C_6  and  N_7
REMARK    7  A    between atoms: N_7  and  C_8
REMARK    8  A    between atoms: C_8  and  C_10
REMARK    9  A    between atoms: C_8  and  C_16
REMARK   10  A    between atoms: N_18  and  C_19
REMARK   11  A    between atoms: C_19  and  S_20
REMARK   12  A    between atoms: S_20  and  C_23
REMARK   13  A    between atoms: C_26  and  C_29
REMARK   14  A    between atoms: C_30  and  C_32
REMARK                            x       y       z     vdW  Elec       q    Type
REMARK                         _______ _______ _______ _____ _____    ______ ____
ROOT
ATOM      1  C   UNL     1       1.681  -4.397   5.098  0.00  0.00    +0.165 C 
ENDROOT
BRANCH   1   2
ATOM      2  C   UNL     1       1.569  -5.920   5.194  0.00  0.00    +0.018 C 
ATOM      3  C   UNL     1       0.722  -6.444   4.032  0.00  0.00    +0.006 C 
ATOM      4  C   UNL     1       0.610  -7.967   4.129  0.00  0.00    +0.000 C 
ATOM      5  C   UNL     1      -0.053  -8.346   5.455  0.00  0.00    +0.000 C 
ATOM      6  C   UNL     1       0.793  -7.823   6.617  0.00  0.00    +0.000 C 
ATOM      7  C   UNL     1       0.906  -6.300   6.520  0.00  0.00    +0.006 C 
ENDBRANCH   1   2
BRANCH   1   8
ATOM      8  C   UNL     1       2.619  -3.894   6.165  0.00  0.00    +0.235 C 
ATOM      9  O   UNL     1       3.749  -3.566   5.873  0.00  0.00    -0.274 OA
ATOM     10  N   UNL     1       2.201  -3.810   7.443  0.00  0.00    -0.295 N 
ATOM     11  H   UNL     1       1.325  -4.144   7.690  0.00  0.00    +0.150 HD
BRANCH  10  12
ATOM     12  C   UNL     1       3.071  -3.213   8.460  0.00  0.00    +0.278 C 
BRANCH  12  13
ATOM     13  S   UNL     1       2.651  -1.460   8.662  0.00  0.00    +0.013 S 
ATOM     14  O   UNL     1       3.444  -0.882   9.690  0.00  0.00    -0.168 OA
ATOM     15  O   UNL     1       2.544  -0.833   7.391  0.00  0.00    -0.168 OA
BRANCH  13  16
ATOM     16  C   UNL     1       1.010  -1.458   9.304  0.00  0.00    +0.090 A 
ATOM     17  C   UNL     1      -0.069  -1.439   8.441  0.00  0.00    +0.027 A 
ATOM     18  C   UNL     1      -1.357  -1.437   8.945  0.00  0.00    +0.005 A 
ATOM     19  C   UNL     1      -1.564  -1.455  10.312  0.00  0.00    -0.050 A 
ATOM     20  C   UNL     1      -0.484  -1.475  11.174  0.00  0.00    +0.005 A 
ATOM     21  C   UNL     1       0.803  -1.481  10.670  0.00  0.00    +0.027 A 
ATOM     22  C   UNL     1      -2.967  -1.452  10.861  0.00  0.00    +0.044 C 
ENDBRANCH  13  16
ENDBRANCH  12  13
ENDBRANCH  10  12
ENDBRANCH   1   8
BRANCH   1  23
ATOM     23  N   UNL     1       2.200  -4.029   3.778  0.00  0.00    -0.289 N 
ATOM     24  C   UNL     1       3.411  -4.471   3.383  0.00  0.00    +0.219 C 
ATOM     25  O   UNL     1       4.038  -5.234   4.087  0.00  0.00    -0.275 OA
BRANCH  24  26
ATOM     26  C   UNL     1       3.986  -4.016   2.066  0.00  0.00    +0.075 C 
ATOM     27  C   UNL     1       3.247  -4.710   0.920  0.00  0.00    +0.013 C 
ATOM     28  C   UNL     1       3.830  -4.248  -0.417  0.00  0.00    +0.001 C 
ATOM     29  C   UNL     1       5.316  -4.608  -0.476  0.00  0.00    +0.000 C 
ATOM     30  C   UNL     1       6.055  -3.914   0.670  0.00  0.00    +0.001 C 
ATOM     31  C   UNL     1       5.472  -4.375   2.007  0.00  0.00    +0.013 C 
ENDBRANCH  24  26
BRANCH  23  32
ATOM     32  C   UNL     1       1.404  -3.180   2.889  0.00  0.00    +0.108 C 
BRANCH  32  33
ATOM     33  C   UNL     1       1.630  -1.710   3.249  0.00  0.00    +0.019 C 
BRANCH  33  34
ATOM     34  C   UNL     1       0.798  -0.824   2.320  0.00  0.00    +0.002 C 
BRANCH  34  35
ATOM     35  C   UNL     1       1.023   0.646   2.679  0.00  0.00    -0.000 C 
BRANCH  35  37
ATOM     36  C   UNL     1       0.417   3.002   2.110  0.00  0.00    +0.004 C 
ATOM     37  C   UNL     1       0.192   1.532   1.750  0.00  0.00    -0.003 C 
ENDBRANCH  35  37
ENDBRANCH  34  35
ENDBRANCH  33  34
ENDBRANCH  32  33
ENDBRANCH  23  32
ENDBRANCH   1  23
TORSDOF 12
