REMARK  Name = ZINC41585975
REMARK  7 active torsions:
REMARK  status: ('A' for Active; 'I' for Inactive)
REMARK    1  A    between atoms: C_1  and  O_2
REMARK    2  A    between atoms: O_2  and  C_3
REMARK    3  A    between atoms: C_7  and  O_9
REMARK    4  A    between atoms: O_9  and  C_10
REMARK    5  A    between atoms: C_19  and  O_34
REMARK    6  A    between atoms: C_20  and  C_21
REMARK    7  A    between atoms: C_21  and  N_22
REMARK                            x       y       z     vdW  Elec       q    Type
REMARK                         _______ _______ _______ _____ _____    ______ ____
ROOT
ATOM      1  C   UNL     1       1.959  -4.582  -3.305  0.00  0.00    +0.210 A 
ATOM      2  C   UNL     1       2.588  -3.886  -4.272  0.00  0.00    +0.245 A 
ATOM      3  O   UNL     1       3.230  -4.476  -5.289  0.00  0.00    -0.459 OA
ATOM      4  C   UNL     1       3.296  -5.816  -5.422  0.00  0.00    +0.147 A 
ATOM      5  C   UNL     1       2.675  -6.644  -4.469  0.00  0.00    +0.068 A 
ATOM      6  C   UNL     1       1.970  -6.006  -3.344  0.00  0.00    +0.235 A 
ATOM      7  O   UNL     1       1.416  -6.669  -2.484  0.00  0.00    -0.283 OA
ATOM      8  C   UNL     1       2.737  -8.032  -4.596  0.00  0.00    +0.019 A 
ATOM      9  C   UNL     1       3.405  -8.587  -5.651  0.00  0.00    +0.046 A 
ATOM     10  C   UNL     1       4.023  -7.775  -6.599  0.00  0.00    +0.125 A 
ATOM     11  C   UNL     1       3.970  -6.395  -6.487  0.00  0.00    +0.051 A 
ENDROOT
BRANCH  10  12
ATOM     12  O   UNL     1       4.683  -8.341  -7.641  0.00  0.00    -0.506 OA
ATOM     13  H   UNL     1       4.130  -8.495  -8.420  0.00  0.00    +0.292 HD
ENDBRANCH  10  12
BRANCH   1  14
ATOM     14  O   UNL     1       1.322  -3.930  -2.295  0.00  0.00    -0.449 OA
BRANCH  14  19
ATOM     15  C   UNL     1      -2.114  -4.763  -3.165  0.00  0.00    +0.124 A 
ATOM     16  C   UNL     1      -2.792  -4.210  -2.088  0.00  0.00    +0.046 A 
ATOM     17  C   UNL     1      -2.091  -3.566  -1.086  0.00  0.00    +0.007 A 
ATOM     18  C   UNL     1      -0.715  -3.471  -1.154  0.00  0.00    +0.046 A 
ATOM     19  C   UNL     1      -0.032  -4.024  -2.228  0.00  0.00    +0.132 A 
ATOM     20  C   UNL     1      -0.733  -4.675  -3.233  0.00  0.00    +0.091 A 
BRANCH  15  22
ATOM     21  C   UNL     1      -4.226  -5.451  -4.015  0.00  0.00    +0.277 C 
ATOM     22  O   UNL     1      -2.804  -5.397  -4.150  0.00  0.00    -0.495 OA
ENDBRANCH  15  22
ENDBRANCH  14  19
ENDBRANCH   1  14
BRANCH  11  23
ATOM     23  C   UNL     1       4.643  -5.527  -7.519  0.00  0.00    +0.127 C 
BRANCH  23  24
ATOM     24  N   UNL     1       6.027  -5.260  -7.108  0.00  0.00    -0.295 NA
ATOM     25  C   UNL     1       6.824  -6.495  -7.108  0.00  0.00    +0.103 C 
ATOM     26  C   UNL     1       8.203  -6.210  -6.504  0.00  0.00    +0.122 C 
ATOM     27  N   UNL     1       8.806  -5.081  -7.229  0.00  0.00    -0.314 N 
ATOM     28  C   UNL     1       8.012  -3.853  -7.390  0.00  0.00    +0.122 C 
ATOM     29  C   UNL     1       6.640  -4.231  -7.959  0.00  0.00    +0.103 C 
ATOM     30  C   UNL     1      10.092  -5.172  -7.748  0.00  0.00    +0.099 A 
ATOM     31  C   UNL     1      10.687  -4.050  -8.316  0.00  0.00    +0.042 A 
ATOM     32  C   UNL     1      11.967  -4.155  -8.829  0.00  0.00    +0.005 A 
ATOM     33  C   UNL     1      12.611  -5.384  -8.758  0.00  0.00    +0.018 A 
ATOM     34  C   UNL     1      11.960  -6.456  -8.181  0.00  0.00    +0.084 A 
ATOM     35  N   UNL     1      10.741  -6.325  -7.695  0.00  0.00    -0.350 N 
ATOM     36  H   UNL     1      10.307  -7.093  -7.291  0.00  0.00    +0.166 HD
ENDBRANCH  23  24
ENDBRANCH  11  23
TORSDOF 6
