REMARK  Name = ZINC65237772
REMARK  6 active torsions:
REMARK  status: ('A' for Active; 'I' for Inactive)
REMARK    1  A    between atoms: C_1  and  C_2
REMARK    2  A    between atoms: C_5  and  C_9
REMARK    3  A    between atoms: C_6  and  C_8
REMARK    4  A    between atoms: C_9  and  C_11
REMARK    5  A    between atoms: C_9  and  N_12
REMARK    6  A    between atoms: C_13  and  C_15
REMARK                            x       y       z     vdW  Elec       q    Type
REMARK                         _______ _______ _______ _____ _____    ______ ____
ROOT
ATOM      1  C   UNL     1      -1.748  -6.439  -2.549  0.00  0.00    +0.153 C 
ATOM      2  N   UNL     1      -1.716  -5.832  -3.701  0.00  0.00    -0.166 NA
ATOM      3  N   UNL     1      -2.387  -6.559  -4.692  0.00  0.00    -0.184 N 
ATOM      4  N   UNL     1      -3.082  -7.599  -4.091  0.00  0.00    -0.218 N 
ATOM      5  C   UNL     1      -2.491  -7.739  -2.736  0.00  0.00    +0.236 C 
ATOM      6  C   UNL     1      -3.642  -7.861  -1.771  0.00  0.00    +0.246 C 
ATOM      7  O   UNL     1      -3.504  -7.505  -0.620  0.00  0.00    -0.273 OA
ATOM      8  N   UNL     1      -4.825  -8.363  -2.181  0.00  0.00    -0.282 N 
ATOM      9  C   UNL     1      -5.045  -8.784  -3.497  0.00  0.00    +0.056 A 
ATOM     10  C   UNL     1      -4.158  -8.376  -4.505  0.00  0.00    +0.071 A 
ATOM     11  C   UNL     1      -4.363  -8.758  -5.813  0.00  0.00    +0.026 A 
ATOM     12  C   UNL     1      -5.454  -9.549  -6.133  0.00  0.00    +0.002 A 
ATOM     13  C   UNL     1      -6.331  -9.954  -5.143  0.00  0.00    +0.002 A 
ATOM     14  C   UNL     1      -6.123  -9.585  -3.828  0.00  0.00    +0.025 A 
ATOM     15  H   UNL     1      -2.370  -6.366  -5.643  0.00  0.00    +0.193 HD
ATOM     16  H   UNL     1      -5.549  -8.435  -1.540  0.00  0.00    +0.155 HD
ENDROOT
BRANCH   1  18
ATOM     17  N   UNL     1      -0.525  -4.764  -1.273  0.00  0.00    -0.304 N 
ATOM     18  C   UNL     1      -1.165  -5.950  -1.299  0.00  0.00    +0.263 C 
ATOM     19  O   UNL     1      -1.257  -6.615  -0.284  0.00  0.00    -0.269 OA
ATOM     20  H   UNL     1      -0.451  -4.235  -2.082  0.00  0.00    +0.150 HD
BRANCH  17  21
ATOM     21  C   UNL     1       0.059  -4.275  -0.021  0.00  0.00    +0.101 C 
ATOM     22  C   UNL     1       1.498  -4.782   0.102  0.00  0.00    +0.033 C 
BRANCH  21  27
ATOM     23  C   UNL     1       0.041   1.503  -0.018  0.00  0.00    +0.044 C 
ATOM     24  C   UNL     1       0.046  -0.004  -0.019  0.00  0.00    -0.050 A 
ATOM     25  C   UNL     1       0.085  -0.694  -1.216  0.00  0.00    +0.004 A 
ATOM     26  C   UNL     1       0.089  -2.076  -1.217  0.00  0.00    +0.006 A 
ATOM     27  C   UNL     1       0.056  -2.768  -0.021  0.00  0.00    -0.025 A 
ATOM     28  C   UNL     1       0.018  -2.078   1.176  0.00  0.00    -0.045 A 
ATOM     29  C   UNL     1       0.018  -0.696   1.177  0.00  0.00    +0.007 A 
ATOM     30  C   UNL     1      -0.018  -2.833   2.480  0.00  0.00    +0.044 C 
ENDBRANCH  21  27
ENDBRANCH  17  21
ENDBRANCH   1  18
TORSDOF 3
