REMARK  Name = ZINC35885236
REMARK  5 active torsions:
REMARK  status: ('A' for Active; 'I' for Inactive)
REMARK    1  A    between atoms: C_4  and  C_7
REMARK    2  A    between atoms: C_12  and  C_14
REMARK    3  A    between atoms: C_14  and  N_15
REMARK    4  A    between atoms: C_20  and  C_22
REMARK    5  A    between atoms: C_22  and  C_23
REMARK                            x       y       z     vdW  Elec       q    Type
REMARK                         _______ _______ _______ _____ _____    ______ ____
ROOT
ATOM      1  C   UNL     1       3.625  -0.846  -0.013  0.00  0.00    +0.039 C 
ATOM      2  C   UNL     1       3.614  -1.890  -1.150  0.00  0.00    +0.116 C 
ATOM      3  N   UNL     1       4.318  -3.065  -0.587  0.00  0.00    -0.300 N 
ATOM      4  C   UNL     1       3.841  -3.140   0.814  0.00  0.00    +0.110 C 
ATOM      5  C   UNL     1       3.776  -1.668   1.284  0.00  0.00    -0.001 C 
ATOM      6  C   UNL     1       5.193  -3.880  -1.207  0.00  0.00    +0.220 C 
ATOM      7  O   UNL     1       5.689  -4.809  -0.604  0.00  0.00    -0.275 OA
ENDROOT
BRANCH   1  11
ATOM      8  C   UNL     1      -0.046   1.338   0.032  0.00  0.00    +0.000 A 
ATOM      9  C   UNL     1       1.156   2.009  -0.093  0.00  0.00    +0.000 A 
ATOM     10  C   UNL     1       2.344   1.302  -0.107  0.00  0.00    +0.004 A 
ATOM     11  C   UNL     1       2.330  -0.075   0.004  0.00  0.00    -0.043 A 
ATOM     12  C   UNL     1       1.128  -0.746   0.130  0.00  0.00    +0.004 A 
ATOM     13  C   UNL     1      -0.060  -0.040   0.142  0.00  0.00    +0.000 A 
ENDBRANCH   1  11
BRANCH   5  14
ATOM     14  C   UNL     1       5.066  -1.282   2.011  0.00  0.00    -0.073 C 
BRANCH  14  15
ATOM     15  N   UNL     1       4.972   0.110   2.469  0.00  0.00    +0.380 N 
ATOM     16  C   UNL     1       3.972   0.224   3.562  0.00  0.00    -0.079 C 
ATOM     17  C   UNL     1       4.384   1.530   4.286  0.00  0.00    -0.020 C 
ATOM     18  C   UNL     1       5.928   1.484   4.227  0.00  0.00    -0.020 C 
ATOM     19  C   UNL     1       6.259   0.543   3.054  0.00  0.00    -0.079 C 
ATOM     20  H   UNL     1       4.719   0.714   1.701  0.00  0.00    -0.082 HD
ENDBRANCH  14  15
ENDBRANCH   5  14
BRANCH   6  21
ATOM     21  C   UNL     1       5.556  -3.639  -2.650  0.00  0.00    +0.138 C 
BRANCH  21  22
ATOM     22  C   UNL     1       6.545  -4.683  -3.100  0.00  0.00    -0.001 A 
ATOM     23  C   UNL     1       6.311  -5.893  -3.665  0.00  0.00    +0.011 A 
ATOM     24  C   UNL     1       7.386  -6.694  -4.002  0.00  0.00    +0.008 A 
ATOM     25  C   UNL     1       8.642  -6.246  -3.759  0.00  0.00    +0.045 A 
ATOM     26  S   UNL     1       8.329  -4.643  -3.037  0.00  0.00    -0.101 S 
ENDBRANCH  21  22
ENDBRANCH   6  21
TORSDOF 5
