REMARK  Name = ZINC48524564
REMARK  10 active torsions:
REMARK  status: ('A' for Active; 'I' for Inactive)
REMARK    1  A    between atoms: C_1  and  C_2
REMARK    2  A    between atoms: C_2  and  C_3
REMARK    3  A    between atoms: C_2  and  C_4
REMARK    4  A    between atoms: C_4  and  C_5
REMARK    5  A    between atoms: C_5  and  N_7
REMARK    6  A    between atoms: C_5  and  O_25
REMARK    7  A    between atoms: N_7  and  C_8
REMARK    8  A    between atoms: C_8  and  C_10
REMARK    9  A    between atoms: C_8  and  O_14
REMARK   10  A    between atoms: O_14  and  C_15
REMARK                            x       y       z     vdW  Elec       q    Type
REMARK                         _______ _______ _______ _____ _____    ______ ____
ROOT
ATOM      1  C   UNL     1      -2.759  -3.727  -1.131  0.00  0.00    +0.296 C 
ENDROOT
BRANCH   1   2
ATOM      2  C   UNL     1      -4.011  -4.517  -0.744  0.00  0.00    +0.241 C 
ATOM      3 CL   UNL     1      -4.184  -5.942  -1.836  0.00  0.00    -0.078 Cl
ATOM      4 CL   UNL     1      -3.861  -5.082   0.962  0.00  0.00    -0.078 Cl
ATOM      5 CL   UNL     1      -5.462  -3.459  -0.901  0.00  0.00    -0.078 Cl
ENDBRANCH   1   2
BRANCH   1   6
ATOM      6  N   UNL     1      -2.618  -2.567  -0.242  0.00  0.00    -0.253 NA
ATOM      7  H   UNL     1      -3.143  -2.698   0.610  0.00  0.00    +0.128 HD
BRANCH   6   8
ATOM      8  C   UNL     1      -1.204  -2.295   0.048  0.00  0.00    +0.186 C 
BRANCH   8   9
ATOM      9  O   UNL     1      -0.854  -2.880   1.304  0.00  0.00    -0.377 OA
ATOM     10  H   UNL     1      -1.368  -2.545   2.051  0.00  0.00    +0.211 HD
ENDBRANCH   8   9
BRANCH   8  11
ATOM     11  C   UNL     1      -0.978  -0.783   0.110  0.00  0.00    +0.050 C 
BRANCH  11  13
ATOM     12  C   UNL     1       1.338  -0.981  -0.808  0.00  0.00    +0.007 C 
ATOM     13  C   UNL     1       0.501  -0.499   0.379  0.00  0.00    -0.013 C 
ATOM     14  C   UNL     1       0.706   1.005   0.570  0.00  0.00    +0.007 C 
ENDBRANCH  11  13
ENDBRANCH   8  11
ENDBRANCH   6   8
ENDBRANCH   1   6
BRANCH   1  15
ATOM     15  O   UNL     1      -2.878  -3.280  -2.483  0.00  0.00    -0.469 OA
BRANCH  15  16
ATOM     16  C   UNL     1      -2.282  -4.039  -3.438  0.00  0.00    +0.131 A 
ATOM     17  C   UNL     1      -1.700  -5.230  -3.107  0.00  0.00    +0.046 A 
ATOM     18  C   UNL     1      -1.085  -6.019  -4.074  0.00  0.00    +0.004 A 
ATOM     19  C   UNL     1      -1.046  -5.629  -5.379  0.00  0.00    +0.009 A 
ATOM     20  C   UNL     1      -1.634  -4.411  -5.761  0.00  0.00    -0.014 A 
ATOM     21  C   UNL     1      -2.265  -3.606  -4.780  0.00  0.00    +0.024 A 
ATOM     22  C   UNL     1      -2.857  -2.391  -5.162  0.00  0.00    +0.012 A 
ATOM     23  C   UNL     1      -2.820  -2.006  -6.468  0.00  0.00    +0.001 A 
ATOM     24  C   UNL     1      -2.204  -2.800  -7.433  0.00  0.00    +0.001 A 
ATOM     25  C   UNL     1      -1.612  -3.978  -7.097  0.00  0.00    +0.008 A 
ENDBRANCH  15  16
ENDBRANCH   1  15
TORSDOF 8
