REMARK  Name = ZINC63448361
REMARK  11 active torsions:
REMARK  status: ('A' for Active; 'I' for Inactive)
REMARK    1  A    between atoms: C_1  and  C_2
REMARK    2  A    between atoms: C_7  and  N_8
REMARK    3  A    between atoms: C_12  and  N_13
REMARK    4  A    between atoms: N_13  and  C_14
REMARK    5  A    between atoms: C_14  and  C_16
REMARK    6  A    between atoms: C_14  and  C_26
REMARK    7  A    between atoms: C_16  and  C_17
REMARK    8  A    between atoms: C_26  and  O_28
REMARK    9  A    between atoms: O_28  and  C_29
REMARK   10  A    between atoms: C_29  and  C_30
REMARK   11  A    between atoms: C_29  and  C_31
REMARK                            x       y       z     vdW  Elec       q    Type
REMARK                         _______ _______ _______ _____ _____    ______ ____
ROOT
ATOM      1  N   UNL     1      -3.481   1.128   4.373  0.00  0.00    -0.336 N 
ATOM      2  H   UNL     1      -3.529   0.648   3.531  0.00  0.00    +0.146 HD
ENDROOT
BRANCH   1   7
ATOM      3  N   UNL     1       0.027  -0.024   2.425  0.00  0.00    -0.189 N 
ATOM      4  C   UNL     1      -1.149   0.276   3.015  0.00  0.00    +0.265 C 
ATOM      5  O   UNL     1      -2.204  -0.061   2.512  0.00  0.00    -0.269 OA
ATOM      6  C   UNL     1      -1.121   1.023   4.285  0.00  0.00    +0.113 C 
ATOM      7  C   UNL     1      -2.285   1.366   4.947  0.00  0.00    +0.086 C 
ATOM      8  C   UNL     1       0.204   1.389   4.819  0.00  0.00    +0.258 C 
ATOM      9  O   UNL     1       0.308   2.006   5.862  0.00  0.00    -0.270 OA
ATOM     10  N   UNL     1       1.297   1.021   4.120  0.00  0.00    -0.235 N 
ATOM     11  C   UNL     1       1.197   0.337   2.971  0.00  0.00    +0.320 C 
ATOM     12  O   UNL     1       2.220   0.031   2.393  0.00  0.00    -0.251 OA
ATOM     13  H   UNL     1       2.176   1.255   4.457  0.00  0.00    +0.159 HD
BRANCH   3  20
ATOM     14  C   UNL     1      -0.049   1.456  -0.005  0.00  0.00    +0.045 C 
ATOM     15  C   UNL     1      -0.011  -0.051   0.009  0.00  0.00    -0.029 A 
ATOM     16  C   UNL     1      -0.006  -0.753  -1.180  0.00  0.00    +0.005 A 
ATOM     17  C   UNL     1       0.028  -2.135  -1.169  0.00  0.00    +0.000 A 
ATOM     18  C   UNL     1       0.058  -2.819   0.033  0.00  0.00    +0.002 A 
ATOM     19  C   UNL     1       0.054  -2.122   1.226  0.00  0.00    +0.024 A 
ATOM     20  C   UNL     1       0.025  -0.734   1.217  0.00  0.00    +0.049 A 
ENDBRANCH   3  20
ENDBRANCH   1   7
BRANCH   1  21
ATOM     21  C   UNL     1      -4.710   1.592   5.021  0.00  0.00    +0.184 C 
BRANCH  21  22
ATOM     22  C   UNL     1      -4.972   3.025   4.633  0.00  0.00    +0.328 C 
ATOM     23  O   UNL     1      -4.210   3.599   3.892  0.00  0.00    -0.249 OA
BRANCH  22  24
ATOM     24  O   UNL     1      -6.051   3.663   5.112  0.00  0.00    -0.461 OA
BRANCH  24  25
ATOM     25  C   UNL     1      -6.237   5.020   4.703  0.00  0.00    +0.170 C 
ATOM     26  C   UNL     1      -7.732   5.343   4.671  0.00  0.00    +0.052 C 
ATOM     27  C   UNL     1      -5.535   5.952   5.693  0.00  0.00    +0.052 C 
ENDBRANCH  24  25
ENDBRANCH  22  24
ENDBRANCH  21  22
BRANCH  21  28
ATOM     28  C   UNL     1      -5.885   0.720   4.573  0.00  0.00    +0.066 C 
BRANCH  28  29
ATOM     29  C   UNL     1      -5.681  -0.689   5.067  0.00  0.00    -0.039 C 
ATOM     30  C   UNL     1      -6.184  -1.234   6.198  0.00  0.00    -0.001 A 
ATOM     31  C   UNL     1      -7.037  -0.699   7.266  0.00  0.00    +0.010 A 
ATOM     32  C   UNL     1      -7.381  -1.505   8.296  0.00  0.00    +0.001 A 
ATOM     33  C   UNL     1      -6.946  -2.835   8.369  0.00  0.00    +0.002 A 
ATOM     34  C   UNL     1      -6.161  -3.398   7.426  0.00  0.00    +0.026 A 
ATOM     35  C   UNL     1      -5.738  -2.642   6.298  0.00  0.00    +0.043 A 
ATOM     36  N   UNL     1      -4.989  -2.955   5.269  0.00  0.00    -0.380 N 
ATOM     37  C   UNL     1      -4.880  -1.781   4.395  0.00  0.00    +0.144 C 
ATOM     38  H   UNL     1      -4.578  -3.819   5.109  0.00  0.00    +0.160 HD
ENDBRANCH  28  29
ENDBRANCH  21  28
ENDBRANCH   1  21
TORSDOF 8
