REMARK  Name = ZINC01291646
REMARK  7 active torsions:
REMARK  status: ('A' for Active; 'I' for Inactive)
REMARK    1  A    between atoms: C_1  and  C_2
REMARK    2  A    between atoms: C_2  and  C_3
REMARK    3  A    between atoms: C_6  and  C_9
REMARK    4  A    between atoms: C_11  and  C_20
REMARK    5  A    between atoms: C_12  and  C_19
REMARK    6  A    between atoms: C_20  and  O_22
REMARK    7  A    between atoms: O_22  and  C_23
REMARK                            x       y       z     vdW  Elec       q    Type
REMARK                         _______ _______ _______ _____ _____    ______ ____
ROOT
ATOM      1  C   UNL     1       2.424   3.942  -0.136  0.00  0.00    +0.179 C 
ATOM      2  C   UNL     1       2.478   4.923  -1.277  0.00  0.00    +0.082 C 
ATOM      3  C   UNL     1       2.371   6.250  -1.108  0.00  0.00    +0.020 C 
ATOM      4  N   UNL     1       2.213   6.819   0.131  0.00  0.00    -0.287 N 
ATOM      5  C   UNL     1       2.429   6.010   1.238  0.00  0.00    +0.218 A 
ATOM      6  N   UNL     1       2.535   4.662   1.129  0.00  0.00    -0.221 N 
ATOM      7  N   UNL     1       2.753   4.176   2.417  0.00  0.00    -0.156 NA
ATOM      8  C   UNL     1       2.764   5.215   3.216  0.00  0.00    +0.247 A 
ATOM      9  N   UNL     1       2.566   6.324   2.497  0.00  0.00    -0.201 NA
ATOM     10  C   UNL     1       2.426   7.145  -2.320  0.00  0.00    +0.061 C 
ATOM     11  H   UNL     1       1.962   7.751   0.229  0.00  0.00    +0.155 HD
ENDROOT
BRANCH   1  15
ATOM     12  C   UNL     1      -1.285   1.827  -0.256  0.00  0.00    -0.048 A 
ATOM     13  C   UNL     1      -0.092   1.135  -0.348  0.00  0.00    +0.004 A 
ATOM     14  C   UNL     1       1.108   1.820  -0.311  0.00  0.00    +0.006 A 
ATOM     15  C   UNL     1       1.115   3.196  -0.177  0.00  0.00    -0.018 A 
ATOM     16  C   UNL     1      -0.078   3.887  -0.080  0.00  0.00    +0.006 A 
ATOM     17  C   UNL     1      -1.278   3.202  -0.118  0.00  0.00    +0.004 A 
BRANCH  12  19
ATOM     18  C   UNL     1      -3.008   0.689   1.118  0.00  0.00    +0.009 C 
ATOM     19  C   UNL     1      -2.594   1.081  -0.302  0.00  0.00    +0.032 C 
ENDBRANCH  12  19
ENDBRANCH   1  15
BRANCH   2  20
ATOM     20  C   UNL     1       2.650   4.423  -2.587  0.00  0.00    +0.339 C 
ATOM     21  O   UNL     1       2.588   5.178  -3.540  0.00  0.00    -0.245 OA
BRANCH  20  22
ATOM     22  O   UNL     1       2.883   3.108  -2.782  0.00  0.00    -0.458 OA
BRANCH  22  23
ATOM     23  C   UNL     1       3.047   2.672  -4.133  0.00  0.00    +0.177 C 
ATOM     24  C   UNL     1       1.687   2.278  -4.711  0.00  0.00    +0.044 C 
ATOM     25  C   UNL     1       1.862   1.811  -6.157  0.00  0.00    +0.004 C 
ATOM     26  C   UNL     1       2.800   0.603  -6.193  0.00  0.00    +0.000 C 
ATOM     27  C   UNL     1       4.161   0.996  -5.615  0.00  0.00    +0.004 C 
ATOM     28  C   UNL     1       3.985   1.463  -4.168  0.00  0.00    +0.044 C 
ENDBRANCH  22  23
ENDBRANCH  20  22
ENDBRANCH   2  20
TORSDOF 5
