REMARK  Name = ZINC09229697
REMARK  8 active torsions:
REMARK  status: ('A' for Active; 'I' for Inactive)
REMARK    1  A    between atoms: C_4  and  C_7
REMARK    2  A    between atoms: C_7  and  C_8
REMARK    3  A    between atoms: C_7  and  N_61
REMARK    4  A    between atoms: N_16  and  C_19
REMARK    5  A    between atoms: C_19  and  N_21
REMARK    6  A    between atoms: C_22  and  C_24
REMARK    7  A    between atoms: C_25  and  C_26
REMARK    8  A    between atoms: C_29  and  N_32
REMARK                            x       y       z     vdW  Elec       q    Type
REMARK                         _______ _______ _______ _____ _____    ______ ____
ROOT
ATOM      1  C   UNL     1       0.207   0.499  -0.515  0.00  0.00    -0.058 C 
ATOM      2  C   UNL     1      -0.531   1.007   0.727  0.00  0.00    +0.088 C 
ATOM      3  N   UNL     1      -0.653   2.470   0.634  0.00  0.00    -0.316 N 
ATOM      4  C   UNL     1      -1.201   3.045  -0.604  0.00  0.00    +0.088 C 
ATOM      5  C   UNL     1      -0.435   2.457  -1.794  0.00  0.00    -0.058 C 
ATOM      6  N   UNL     1      -0.502   0.981  -1.720  0.00  0.00    +0.389 N 
ATOM      7  H   UNL     1      -1.487   0.696  -1.663  0.00  0.00    -0.080 HD
ENDROOT
BRANCH   3   8
ATOM      8  C   UNL     1      -0.272   3.262   1.655  0.00  0.00    +0.139 C 
ATOM      9  S   UNL     1      -0.548   4.950   1.578  0.00  0.00    -0.018 S 
BRANCH   8  10
ATOM     10  N   UNL     1       0.326   2.726   2.737  0.00  0.00    -0.264 N 
ATOM     11  C   UNL     1       0.602   3.498   3.807  0.00  0.00    +0.242 C 
ATOM     12  O   UNL     1       0.311   4.679   3.796  0.00  0.00    -0.270 OA
ATOM     13  H   UNL     1       0.558   1.784   2.746  0.00  0.00    +0.157 HD
BRANCH  11  14
ATOM     14  C   UNL     1       1.251   2.916   4.981  0.00  0.00    +0.068 C 
ATOM     15  C   UNL     1       1.527   3.688   6.052  0.00  0.00    +0.013 C 
BRANCH  15  16
ATOM     16  C   UNL     1       2.180   3.103   7.234  0.00  0.00    -0.025 A 
ATOM     17  C   UNL     1       2.511   1.744   7.253  0.00  0.00    +0.010 A 
ATOM     18  C   UNL     1       3.127   1.204   8.362  0.00  0.00    +0.033 A 
ATOM     19  C   UNL     1       3.409   2.000   9.458  0.00  0.00    +0.126 A 
ATOM     20  C   UNL     1       3.080   3.345   9.449  0.00  0.00    +0.033 A 
ATOM     21  C   UNL     1       2.468   3.901   8.346  0.00  0.00    +0.010 A 
BRANCH  19  22
ATOM     22  N   UNL     1       4.065   1.411  10.647  0.00  0.00    +0.056 N 
ATOM     23  O   UNL     1       4.314   2.109  11.614  0.00  0.00    -0.126 OA
ATOM     24  O   UNL     1       4.356   0.228  10.658  0.00  0.00    -0.126 OA
ENDBRANCH  19  22
ENDBRANCH  15  16
ENDBRANCH  11  14
ENDBRANCH   8  10
ENDBRANCH   3   8
BRANCH   6  25
ATOM     25  C   UNL     1       0.100   0.388  -2.932  0.00  0.00    -0.007 C 
BRANCH  25  29
ATOM     26  C   UNL     1      -0.054  -3.869  -2.613  0.00  0.00    +0.000 A 
ATOM     27  C   UNL     1       1.021  -3.261  -3.234  0.00  0.00    +0.000 A 
ATOM     28  C   UNL     1       1.071  -1.884  -3.337  0.00  0.00    +0.002 A 
ATOM     29  C   UNL     1       0.046  -1.114  -2.820  0.00  0.00    -0.057 A 
ATOM     30  C   UNL     1      -1.027  -1.722  -2.194  0.00  0.00    +0.002 A 
ATOM     31  C   UNL     1      -1.079  -3.100  -2.095  0.00  0.00    +0.000 A 
ENDBRANCH  25  29
BRANCH  25  32
ATOM     32  C   UNL     1      -0.690   0.830  -4.136  0.00  0.00    -0.057 A 
ATOM     33  C   UNL     1      -2.059   1.000  -4.040  0.00  0.00    +0.002 A 
ATOM     34  C   UNL     1      -2.783   1.411  -5.144  0.00  0.00    +0.000 A 
ATOM     35  C   UNL     1      -2.140   1.642  -6.346  0.00  0.00    +0.000 A 
ATOM     36  C   UNL     1      -0.772   1.467  -6.443  0.00  0.00    +0.000 A 
ATOM     37  C   UNL     1      -0.047   1.061  -5.338  0.00  0.00    +0.002 A 
ENDBRANCH  25  32
ENDBRANCH   6  25
TORSDOF 8
