REMARK  Name = ZINC09299826
REMARK  9 active torsions:
REMARK  status: ('A' for Active; 'I' for Inactive)
REMARK    1  A    between atoms: C_1  and  C_2
REMARK    2  A    between atoms: C_2  and  O_3
REMARK    3  A    between atoms: O_3  and  C_4
REMARK    4  A    between atoms: C_6  and  C_18
REMARK    5  A    between atoms: C_9  and  O_10
REMARK    6  A    between atoms: O_10  and  C_11
REMARK    7  A    between atoms: C_11  and  C_12
REMARK    8  A    between atoms: C_29  and  N_59
REMARK    9  A    between atoms: C_30  and  O_32
REMARK                            x       y       z     vdW  Elec       q    Type
REMARK                         _______ _______ _______ _____ _____    ______ ____
ROOT
ATOM      1  C   UNL     1       1.166   3.490  -0.091  0.00  0.00    +0.224 C 
ATOM      2  N   UNL     1      -0.041   4.135   0.459  0.00  0.00    -0.313 N 
ATOM      3  C   UNL     1      -1.231   3.480   0.250  0.00  0.00    +0.080 A 
ATOM      4  C   UNL     1      -1.298   2.099   0.019  0.00  0.00    +0.067 A 
ATOM      5  C   UNL     1      -2.629   1.555  -0.169  0.00  0.00    -0.027 A 
ATOM      6  C   UNL     1      -3.643   2.451  -0.115  0.00  0.00    -0.021 A 
ATOM      7  S   UNL     1      -2.857   4.010   0.193  0.00  0.00    -0.080 S 
ATOM      8  C   UNL     1      -5.100   2.157  -0.285  0.00  0.00    -0.036 C 
ATOM      9  C   UNL     1      -4.412  -0.161  -0.133  0.00  0.00    -0.074 C 
ATOM     10  C   UNL     1      -2.928   0.082  -0.420  0.00  0.00    +0.018 C 
ATOM     11  C   UNL     1      -6.641   0.389  -0.904  0.00  0.00    -0.096 C 
ATOM     12  C   UNL     1      -0.016   1.349   0.009  0.00  0.00    +0.220 C 
ATOM     13  N   UNL     1       1.091   2.038   0.003  0.00  0.00    -0.223 NA
ATOM     14  H   UNL     1       0.003   4.976   0.941  0.00  0.00    +0.149 HD
ATOM     15  N   UNL     1      -5.224   0.811  -0.894  0.00  0.00    +0.381 N 
ATOM     16  H   UNL     1      -4.880   0.849  -1.861  0.00  0.00    -0.082 HD
ENDROOT
BRANCH   1  19
ATOM     17  C   UNL     1       2.101   3.393  -3.750  0.00  0.00    +0.162 A 
ATOM     18  C   UNL     1       1.966   3.037  -2.418  0.00  0.00    +0.056 A 
ATOM     19  C   UNL     1       1.316   3.882  -1.538  0.00  0.00    -0.002 A 
ATOM     20  C   UNL     1       0.810   5.090  -1.982  0.00  0.00    +0.011 A 
ATOM     21  C   UNL     1       0.946   5.454  -3.309  0.00  0.00    +0.050 A 
ATOM     22  C   UNL     1       1.591   4.609  -4.197  0.00  0.00    +0.162 A 
BRANCH  17  23
ATOM     23  O   UNL     1       2.735   2.560  -4.618  0.00  0.00    -0.489 OA
BRANCH  23  25
ATOM     24  C   UNL     1       3.909   0.531  -5.205  0.00  0.00    +0.048 C 
ATOM     25  C   UNL     1       3.232   1.329  -4.089  0.00  0.00    +0.226 C 
ENDBRANCH  23  25
ENDBRANCH  17  23
BRANCH  22  26
ATOM     26  O   UNL     1       1.726   4.966  -5.502  0.00  0.00    -0.484 OA
BRANCH  26  27
ATOM     27  C   UNL     1       1.178   6.227  -5.890  0.00  0.00    +0.264 C 
BRANCH  27  28
ATOM     28  C   UNL     1       1.421   6.450  -7.360  0.00  0.00    -0.010 A 
ATOM     29  C   UNL     1       2.573   7.088  -7.782  0.00  0.00    +0.007 A 
ATOM     30  C   UNL     1       2.798   7.288  -9.131  0.00  0.00    +0.000 A 
ATOM     31  C   UNL     1       1.866   6.859 -10.058  0.00  0.00    +0.000 A 
ATOM     32  C   UNL     1       0.712   6.227  -9.636  0.00  0.00    +0.000 A 
ATOM     33  C   UNL     1       0.489   6.022  -8.287  0.00  0.00    +0.007 A 
ENDBRANCH  27  28
ENDBRANCH  26  27
ENDBRANCH  22  26
ENDBRANCH   1  19
BRANCH  12  34
ATOM     34  O   UNL     1       0.002  -0.004   0.002  0.00  0.00    -0.492 OA
ATOM     35  H   UNL     1       0.891  -0.385  -0.009  0.00  0.00    +0.294 HD
ENDBRANCH  12  34
TORSDOF 7
