REMARK  Name = ZINC35791957
REMARK  6 active torsions:
REMARK  status: ('A' for Active; 'I' for Inactive)
REMARK    1  A    between atoms: C_1  and  C_2
REMARK    2  A    between atoms: C_2  and  O_3
REMARK    3  A    between atoms: O_3  and  C_4
REMARK    4  A    between atoms: C_9  and  C_10
REMARK    5  A    between atoms: N_20  and  C_21
REMARK    6  A    between atoms: C_21  and  C_22
REMARK                            x       y       z     vdW  Elec       q    Type
REMARK                         _______ _______ _______ _____ _____    ______ ____
ROOT
ATOM      1  C   UNL     1       1.937  -1.458  -3.519  0.00  0.00    +0.014 C 
ATOM      2  C   UNL     1       0.884  -1.077  -4.531  0.00  0.00    +0.010 A 
ATOM      3  C   UNL     1      -0.441  -0.984  -4.305  0.00  0.00    +0.021 A 
ATOM      4  C   UNL     1      -1.049  -0.587  -5.513  0.00  0.00    +0.019 A 
ATOM      5  C   UNL     1      -0.071  -0.456  -6.434  0.00  0.00    +0.086 A 
ATOM      6  N   UNL     1       1.115  -0.764  -5.840  0.00  0.00    -0.352 N 
ATOM      7  C   UNL     1       2.434  -0.777  -6.484  0.00  0.00    +0.119 C 
ATOM      8  C   UNL     1       3.438  -0.058  -5.578  0.00  0.00    +0.003 C 
ATOM      9  C   UNL     1       4.047  -1.052  -4.596  0.00  0.00    -0.075 C 
ATOM     10  N   UNL     1       3.075  -2.077  -4.212  0.00  0.00    +0.391 N 
ATOM     11  H   UNL     1       2.745  -2.552  -5.039  0.00  0.00    -0.080 HD
ENDROOT
BRANCH   1  17
ATOM     12  C   UNL     1       1.235  -2.088  -1.196  0.00  0.00    +0.122 A 
ATOM     13  C   UNL     1       0.694  -2.990  -0.291  0.00  0.00    +0.046 A 
ATOM     14  C   UNL     1       0.281  -4.235  -0.722  0.00  0.00    +0.004 A 
ATOM     15  C   UNL     1       0.406  -4.583  -2.054  0.00  0.00    +0.000 A 
ATOM     16  C   UNL     1       0.945  -3.687  -2.958  0.00  0.00    +0.006 A 
ATOM     17  C   UNL     1       1.355  -2.438  -2.533  0.00  0.00    -0.014 A 
BRANCH  12  18
ATOM     18  O   UNL     1       1.642  -0.862  -0.774  0.00  0.00    -0.492 OA
BRANCH  18  20
ATOM     19  C   UNL     1       1.998   0.845   0.900  0.00  0.00    +0.048 C 
ATOM     20  C   UNL     1       1.489  -0.570   0.617  0.00  0.00    +0.225 C 
ENDBRANCH  18  20
ENDBRANCH  12  18
ENDBRANCH   1  17
BRANCH  10  21
ATOM     21  C   UNL     1       3.719  -3.050  -3.319  0.00  0.00    -0.042 C 
BRANCH  21  22
ATOM     22  C   UNL     1       4.831  -3.749  -4.056  0.00  0.00    -0.063 A 
ATOM     23  C   UNL     1       4.571  -4.910  -4.761  0.00  0.00    +0.002 A 
ATOM     24  C   UNL     1       5.591  -5.551  -5.438  0.00  0.00    +0.002 A 
ATOM     25  C   UNL     1       6.872  -5.034  -5.410  0.00  0.00    +0.020 A 
ATOM     26  C   UNL     1       7.134  -3.873  -4.704  0.00  0.00    +0.041 A 
ATOM     27  C   UNL     1       6.111  -3.228  -4.032  0.00  0.00    +0.021 A 
ATOM     28 CL   UNL     1       8.743  -3.223  -4.668  0.00  0.00    -0.084 Cl
ENDBRANCH  21  22
ENDBRANCH  10  21
TORSDOF 5
