REMARK  Name = ZINC63027432
REMARK  9 active torsions:
REMARK  status: ('A' for Active; 'I' for Inactive)
REMARK    1  A    between atoms: C_1  and  C_2
REMARK    2  A    between atoms: C_6  and  C_14
REMARK    3  A    between atoms: C_7  and  N_11
REMARK    4  A    between atoms: C_14  and  C_16
REMARK    5  A    between atoms: C_14  and  C_20
REMARK    6  A    between atoms: C_16  and  C_18
REMARK    7  A    between atoms: C_16  and  N_19
REMARK    8  A    between atoms: C_20  and  C_21
REMARK    9  A    between atoms: C_20  and  C_22
REMARK                            x       y       z     vdW  Elec       q    Type
REMARK                         _______ _______ _______ _____ _____    ______ ____
ROOT
ATOM      1  C   UNL     1       2.064  -0.287   1.374  0.00  0.00    +0.073 C 
ATOM      2  C   UNL     1       1.494  -1.650   1.077  0.00  0.00    +0.076 A 
ATOM      3  N   UNL     1       0.338  -1.933   0.551  0.00  0.00    -0.244 NA
ATOM      4  C   UNL     1      -0.061  -3.204   0.333  0.00  0.00    +0.079 A 
ATOM      5  C   UNL     1      -1.263  -3.693  -0.219  0.00  0.00    +0.035 A 
ATOM      6  C   UNL     1      -1.468  -5.032  -0.353  0.00  0.00    -0.013 A 
ATOM      7  C   UNL     1      -0.513  -5.958   0.044  0.00  0.00    +0.131 A 
ATOM      8  C   UNL     1       0.677  -5.516   0.590  0.00  0.00    +0.050 A 
ATOM      9  C   UNL     1       0.894  -4.167   0.730  0.00  0.00    +0.041 A 
ATOM     10  S   UNL     1       2.211  -3.149   1.343  0.00  0.00    -0.072 S 
ENDROOT
BRANCH   7  11
ATOM     11  N   UNL     1      -0.768  -7.407  -0.115  0.00  0.00    +0.057 N 
ATOM     12  O   UNL     1      -0.417  -8.181   0.745  0.00  0.00    -0.126 OA
ATOM     13  O   UNL     1      -1.329  -7.817  -1.105  0.00  0.00    -0.126 OA
ENDBRANCH   7  11
BRANCH   6  14
ATOM     14  C   UNL     1      -2.764  -5.521  -0.947  0.00  0.00    +0.009 C 
BRANCH  14  15
ATOM     15  C   UNL     1      -3.939  -4.886  -0.202  0.00  0.00    -0.011 C 
ATOM     16  C   UNL     1      -5.253  -5.342  -0.838  0.00  0.00    +0.008 C 
ATOM     17  C   UNL     1      -3.905  -5.317   1.266  0.00  0.00    +0.008 C 
ENDBRANCH  14  15
BRANCH  14  18
ATOM     18  C   UNL     1      -2.827  -5.131  -2.425  0.00  0.00    -0.071 C 
ATOM     19  C   UNL     1      -2.776  -3.607  -2.553  0.00  0.00    -0.014 C 
BRANCH  18  20
ATOM     20  N   UNL     1      -1.684  -5.721  -3.136  0.00  0.00    +0.380 N 
ATOM     21  H   UNL     1      -1.761  -6.727  -3.120  0.00  0.00    -0.090 HD
ATOM     22  H   UNL     1      -1.681  -5.399  -4.093  0.00  0.00    -0.090 HD
ATOM     23  H   UNL     1      -0.827  -5.441  -2.685  0.00  0.00    -0.090 HD
ENDBRANCH  18  20
ENDBRANCH  14  18
ENDBRANCH   6  14
TORSDOF 5
