REMARK  Name = ZINC13638297
REMARK  6 active torsions:
REMARK  status: ('A' for Active; 'I' for Inactive)
REMARK    1  A    between atoms: C_4  and  C_7
REMARK    2  A    between atoms: C_7  and  C_8
REMARK    3  A    between atoms: C_8  and  C_9
REMARK    4  A    between atoms: N_11  and  C_12
REMARK    5  A    between atoms: C_25  and  C_28
REMARK    6  A    between atoms: C_31  and  O_34
REMARK                            x       y       z     vdW  Elec       q    Type
REMARK                         _______ _______ _______ _____ _____    ______ ____
ROOT
ATOM      1  C   UNL     1       3.611   1.505  -0.934  0.00  0.00    +0.034 A 
ATOM      2  C   UNL     1       4.035   2.507  -0.072  0.00  0.00    +0.025 A 
ATOM      3  C   UNL     1       3.143   3.057   0.827  0.00  0.00    +0.025 A 
ATOM      4  C   UNL     1       1.829   2.608   0.867  0.00  0.00    +0.031 A 
ATOM      5  C   UNL     1       1.398   1.607   0.011  0.00  0.00    -0.018 A 
ATOM      6  C   UNL     1       2.299   1.059  -0.891  0.00  0.00    +0.029 A 
ATOM      7  C   UNL     1      -0.006   1.092   0.023  0.00  0.00    +0.049 C 
ATOM      8  C   UNL     1      -0.791   1.603  -1.162  0.00  0.00    -0.023 C 
ATOM      9  C   UNL     1      -2.018   1.853  -0.840  0.00  0.00    -0.030 C 
ATOM     10  C   UNL     1      -2.250   1.535   0.625  0.00  0.00    +0.033 C 
ATOM     11  C   UNL     1      -0.818   1.587   1.236  0.00  0.00    +0.029 C 
ATOM     12  C   UNL     1      -0.502   3.041   1.536  0.00  0.00    +0.105 C 
ATOM     13  N   UNL     1       0.937   3.183   1.783  0.00  0.00    -0.336 N 
ATOM     14  H   UNL     1       1.263   3.663   2.561  0.00  0.00    +0.147 HD
ENDROOT
BRANCH  12  15
ATOM     15  C   UNL     1      -0.896   3.885   0.350  0.00  0.00    -0.027 A 
ATOM     16  C   UNL     1      -0.064   3.958  -0.752  0.00  0.00    +0.009 A 
ATOM     17  C   UNL     1      -0.425   4.726  -1.841  0.00  0.00    +0.046 A 
ATOM     18  C   UNL     1      -1.619   5.433  -1.825  0.00  0.00    +0.117 A 
ATOM     19  C   UNL     1      -2.449   5.363  -0.716  0.00  0.00    +0.046 A 
ATOM     20  C   UNL     1      -2.085   4.589   0.369  0.00  0.00    +0.009 A 
BRANCH  18  21
ATOM     21  O   UNL     1      -1.974   6.194  -2.894  0.00  0.00    -0.507 OA
ATOM     22  H   UNL     1      -1.661   7.108  -2.848  0.00  0.00    +0.292 HD
ENDBRANCH  18  21
ENDBRANCH  12  15
BRANCH   1  25
ATOM     23  C   UNL     1       5.461   1.710  -2.419  0.00  0.00    +0.218 C 
ATOM     24  O   UNL     1       5.591   2.867  -2.077  0.00  0.00    -0.275 OA
ATOM     25  N   UNL     1       4.511   0.942  -1.850  0.00  0.00    -0.285 N 
ATOM     26  H   UNL     1       4.449   0.001  -2.074  0.00  0.00    +0.155 HD
BRANCH  23  27
ATOM     27  C   UNL     1       6.361   1.132  -3.480  0.00  0.00    +0.101 C 
BRANCH  27  28
ATOM     28  C   UNL     1       7.343   2.205  -3.956  0.00  0.00    +0.044 C 
BRANCH  28  32
ATOM     29  C   UNL     1       9.896   0.566  -6.963  0.00  0.00    +0.000 A 
ATOM     30  C   UNL     1       8.704   1.168  -7.321  0.00  0.00    +0.000 A 
ATOM     31  C   UNL     1       7.878   1.699  -6.348  0.00  0.00    +0.003 A 
ATOM     32  C   UNL     1       8.243   1.627  -5.017  0.00  0.00    -0.047 A 
ATOM     33  C   UNL     1       9.437   1.029  -4.659  0.00  0.00    +0.003 A 
ATOM     34  C   UNL     1      10.261   0.495  -5.632  0.00  0.00    +0.000 A 
ENDBRANCH  28  32
ENDBRANCH  27  28
ENDBRANCH  23  27
ENDBRANCH   1  25
TORSDOF 6
