REMARK  Name = ZINC20214346
REMARK  9 active torsions:
REMARK  status: ('A' for Active; 'I' for Inactive)
REMARK    1  A    between atoms: C_1  and  C_2
REMARK    2  A    between atoms: C_2  and  N_3
REMARK    3  A    between atoms: C_4  and  C_22
REMARK    4  A    between atoms: C_7  and  S_8
REMARK    5  A    between atoms: S_8  and  C_9
REMARK    6  A    between atoms: C_9  and  C_10
REMARK    7  A    between atoms: N_12  and  C_13
REMARK    8  A    between atoms: N_25  and  C_31
REMARK    9  A    between atoms: C_26  and  C_27
REMARK                            x       y       z     vdW  Elec       q    Type
REMARK                         _______ _______ _______ _____ _____    ______ ____
ROOT
ATOM      1  N   UNL     1       2.977   3.532   0.046  0.00  0.00    -0.302 N 
ATOM      2  C   UNL     1       1.680   3.085  -0.050  0.00  0.00    +0.168 A 
ATOM      3  N   UNL     1       0.912   4.145  -0.136  0.00  0.00    -0.128 NA
ATOM      4  N   UNL     1       1.628   5.211  -0.093  0.00  0.00    -0.122 NA
ATOM      5  C   UNL     1       2.898   4.897   0.015  0.00  0.00    +0.192 A 
ENDROOT
BRANCH   2   6
ATOM      6  C   UNL     1       1.235   1.673  -0.061  0.00  0.00    +0.069 A 
ATOM      7  C   UNL     1       1.752   0.642  -0.873  0.00  0.00    +0.146 A 
ATOM      8  N   UNL     1       1.104  -0.457  -0.593  0.00  0.00    -0.179 NA
ATOM      9  N   UNL     1       0.156  -0.177   0.398  0.00  0.00    -0.262 N 
ATOM     10  C   UNL     1       0.249   1.131   0.714  0.00  0.00    +0.152 A 
ATOM     11  C   UNL     1      -0.776  -1.139   0.991  0.00  0.00    +0.173 C 
BRANCH  10  12
ATOM     12  C   UNL     1      -0.588   1.863   1.731  0.00  0.00    +0.435 C 
ATOM     13  F   UNL     1      -0.967   0.979   2.747  0.00  0.00    -0.164 F 
ATOM     14  F   UNL     1       0.157   2.912   2.279  0.00  0.00    -0.164 F 
ATOM     15  F   UNL     1      -1.732   2.377   1.110  0.00  0.00    -0.164 F 
ENDBRANCH  10  12
ENDBRANCH   2   6
BRANCH   1  17
ATOM     16  C   UNL     1       4.797   2.514  -1.232  0.00  0.00    +0.027 C 
ATOM     17  C   UNL     1       4.189   2.717   0.158  0.00  0.00    +0.122 C 
ENDBRANCH   1  17
BRANCH   5  18
ATOM     18  S   UNL     1       4.250   6.024   0.103  0.00  0.00    -0.077 S 
BRANCH  18  19
ATOM     19  C   UNL     1       3.357   7.595   0.003  0.00  0.00    +0.173 C 
BRANCH  19  20
ATOM     20  C   UNL     1       4.339   8.736   0.061  0.00  0.00    +0.228 C 
ATOM     21  O   UNL     1       5.527   8.509   0.160  0.00  0.00    -0.275 OA
ATOM     22  N   UNL     1       3.898  10.008   0.003  0.00  0.00    -0.284 N 
ATOM     23  H   UNL     1       2.818  10.217   0.006  0.00  0.00    +0.155 HD
BRANCH  22  24
ATOM     24  C   UNL     1       4.815  11.065  -0.061  0.00  0.00    +0.053 A 
ATOM     25  C   UNL     1       6.089  10.850  -0.571  0.00  0.00    +0.046 A 
ATOM     26  C   UNL     1       6.990  11.895  -0.637  0.00  0.00    +0.061 A 
ATOM     27  C   UNL     1       6.628  13.154  -0.187  0.00  0.00    +0.061 A 
ATOM     28  C   UNL     1       5.361  13.369   0.327  0.00  0.00    +0.043 A 
ATOM     29  C   UNL     1       4.454  12.328   0.391  0.00  0.00    +0.064 A 
ATOM     30 CL   UNL     1       2.865  12.599   1.034  0.00  0.00    -0.082 Cl
ATOM     31 CL   UNL     1       7.765  14.463  -0.266  0.00  0.00    -0.082 Cl
ATOM     32 CL   UNL     1       8.581  11.629  -1.280  0.00  0.00    -0.082 Cl
ENDBRANCH  22  24
ENDBRANCH  19  20
ENDBRANCH  18  19
ENDBRANCH   5  18
TORSDOF 7
