REMARK  Name = ZINC66642853
REMARK  8 active torsions:
REMARK  status: ('A' for Active; 'I' for Inactive)
REMARK    1  A    between atoms: C_1  and  C_2
REMARK    2  A    between atoms: C_2  and  C_4
REMARK    3  A    between atoms: C_2  and  N_18
REMARK    4  A    between atoms: C_4  and  C_5
REMARK    5  A    between atoms: N_7  and  C_8
REMARK    6  A    between atoms: N_11  and  C_14
REMARK    7  A    between atoms: C_14  and  C_15
REMARK    8  A    between atoms: C_19  and  C_21
REMARK                            x       y       z     vdW  Elec       q    Type
REMARK                         _______ _______ _______ _____ _____    ______ ____
ROOT
ATOM      1  C   UNL     1       0.782  -1.942  -1.381  0.00  0.00    +0.215 C 
ATOM      2  O   UNL     1       0.250  -2.532  -0.466  0.00  0.00    -0.276 OA
ATOM      3  N   UNL     1       1.284  -2.630  -2.425  0.00  0.00    -0.313 N 
ATOM      4  H   UNL     1       1.710  -2.158  -3.158  0.00  0.00    +0.149 HD
ENDROOT
BRANCH   3   5
ATOM      5  C   UNL     1       1.187  -4.092  -2.454  0.00  0.00    +0.069 C 
ATOM      6  C   UNL     1       2.366  -4.699  -1.688  0.00  0.00    +0.003 C 
ATOM      7  C   UNL     1       2.302  -6.224  -1.789  0.00  0.00    -0.077 C 
ATOM      8  N   UNL     1       2.373  -6.628  -3.199  0.00  0.00    +0.383 N 
ATOM      9  C   UNL     1       1.207  -6.109  -3.924  0.00  0.00    -0.077 C 
ATOM     10  C   UNL     1       1.229  -4.580  -3.905  0.00  0.00    +0.003 C 
ATOM     11  H   UNL     1       3.216  -6.259  -3.611  0.00  0.00    -0.082 HD
BRANCH   8  12
ATOM     12  C   UNL     1       2.389  -8.094  -3.286  0.00  0.00    -0.006 C 
BRANCH  12  13
ATOM     13  C   UNL     1       3.699  -8.625  -2.700  0.00  0.00    +0.325 C 
ATOM     14  F   UNL     1       4.780  -7.990  -3.320  0.00  0.00    -0.211 F 
ATOM     15  F   UNL     1       3.733  -8.367  -1.325  0.00  0.00    -0.211 F 
ENDBRANCH  12  13
ENDBRANCH   8  12
ENDBRANCH   3   5
BRANCH   1  16
ATOM     16  C   UNL     1       0.882  -0.439  -1.352  0.00  0.00    +0.117 C 
BRANCH  16  18
ATOM     17  C   UNL     1       0.230   1.620  -0.095  0.00  0.00    +0.028 C 
ATOM     18  C   UNL     1       0.240   0.090  -0.068  0.00  0.00    +0.079 C 
BRANCH  18  19
ATOM     19  N   UNL     1       1.010  -0.372   1.090  0.00  0.00    -0.312 N 
ATOM     20  C   UNL     1       0.415  -0.483   2.294  0.00  0.00    +0.216 C 
ATOM     21  O   UNL     1      -0.757  -0.201   2.420  0.00  0.00    -0.276 OA
ATOM     22  H   UNL     1       1.948  -0.598   0.989  0.00  0.00    +0.149 HD
BRANCH  20  23
ATOM     23  C   UNL     1       1.208  -0.959   3.484  0.00  0.00    +0.075 C 
ATOM     24  C   UNL     1       1.749  -2.363   3.209  0.00  0.00    +0.013 C 
ATOM     25  C   UNL     1       2.553  -2.846   4.417  0.00  0.00    +0.001 C 
ATOM     26  C   UNL     1       1.649  -2.882   5.651  0.00  0.00    +0.000 C 
ATOM     27  C   UNL     1       1.107  -1.478   5.926  0.00  0.00    +0.001 C 
ATOM     28  C   UNL     1       0.303  -0.995   4.718  0.00  0.00    +0.013 C 
ENDBRANCH  20  23
ENDBRANCH  18  19
ENDBRANCH  16  18
ENDBRANCH   1  16
TORSDOF 7
