REMARK  Name = ZINC13972961
REMARK  4 active torsions:
REMARK  status: ('A' for Active; 'I' for Inactive)
REMARK    1  A    between atoms: C_6  and  C_11
REMARK    2  A    between atoms: C_11  and  C_12
REMARK    3  A    between atoms: N_14  and  C_15
REMARK    4  A    between atoms: C_16  and  C_23
REMARK                            x       y       z     vdW  Elec       q    Type
REMARK                         _______ _______ _______ _____ _____    ______ ____
ROOT
ATOM      1  C   UNL     1       1.050   7.942   1.453  0.00  0.00    +0.222 C 
ATOM      2  O   UNL     1       1.069   7.149   2.371  0.00  0.00    -0.275 OA
ATOM      3  N   UNL     1       1.034   9.266   1.706  0.00  0.00    -0.279 N 
ATOM      4  H   UNL     1       1.019   9.900   0.972  0.00  0.00    +0.155 HD
ENDROOT
BRANCH   3   5
ATOM      5  C   UNL     1       1.040   9.722   3.017  0.00  0.00    +0.090 A 
ATOM      6  C   UNL     1       1.032  11.028   3.473  0.00  0.00    +0.084 A 
ATOM      7  C   UNL     1       1.038  11.241   4.919  0.00  0.00    -0.018 A 
ATOM      8  C   UNL     1       1.060  10.119   5.662  0.00  0.00    -0.004 A 
ATOM      9  S   UNL     1       1.067   8.795   4.478  0.00  0.00    -0.077 S 
ATOM     10  C   UNL     1       1.066  10.419   7.136  0.00  0.00    +0.043 C 
ATOM     11  C   UNL     1       0.609  11.891   7.237  0.00  0.00    +0.010 C 
ATOM     12  C   UNL     1       1.032  12.446   5.862  0.00  0.00    +0.037 C 
BRANCH   6  13
ATOM     13  C   UNL     1       1.016  12.132   2.561  0.00  0.00    +0.102 C 
ATOM     14  N   UNL     1       1.003  13.007   1.837  0.00  0.00    -0.191 NA
ENDBRANCH   6  13
ENDBRANCH   3   5
BRANCH   1  15
ATOM     15  C   UNL     1       1.044   7.447   0.030  0.00  0.00    +0.131 C 
BRANCH  15  21
ATOM     16  C   UNL     1      -0.013   1.076   0.008  0.00  0.00    +0.001 A 
ATOM     17  C   UNL     1      -1.235   1.746   0.017  0.00  0.00    +0.001 A 
ATOM     18  C   UNL     1      -1.288   3.106   0.030  0.00  0.00    +0.008 A 
ATOM     19  C   UNL     1      -0.096   3.849   0.023  0.00  0.00    -0.018 A 
ATOM     20  C   UNL     1      -0.111   5.254   0.030  0.00  0.00    +0.012 A 
ATOM     21  C   UNL     1       1.064   5.940   0.022  0.00  0.00    -0.038 A 
ATOM     22  C   UNL     1       2.286   5.270   0.008  0.00  0.00    +0.005 A 
ATOM     23  C   UNL     1       2.340   3.910  -0.000  0.00  0.00    +0.009 A 
ATOM     24  C   UNL     1       1.147   3.167   0.008  0.00  0.00    -0.018 A 
ATOM     25  C   UNL     1       1.163   1.762   0.000  0.00  0.00    +0.008 A 
ENDBRANCH  15  21
ENDBRANCH   1  15
TORSDOF 4
