REMARK  Name = ZINC08880608
REMARK  7 active torsions:
REMARK  status: ('A' for Active; 'I' for Inactive)
REMARK    1  A    between atoms: C_1  and  C_2
REMARK    2  A    between atoms: C_2  and  C_4
REMARK    3  A    between atoms: C_2  and  N_53
REMARK    4  A    between atoms: C_10  and  C_15
REMARK    5  A    between atoms: C_21  and  C_22
REMARK    6  A    between atoms: C_21  and  N_53
REMARK    7  A    between atoms: C_22  and  C_23
REMARK                            x       y       z     vdW  Elec       q    Type
REMARK                         _______ _______ _______ _____ _____    ______ ____
ROOT
ATOM      1  C   UNL     1       6.611  -0.707  -3.422  0.00  0.00    -0.006 C 
ATOM      2  C   UNL     1       5.854  -1.930  -2.900  0.00  0.00    -0.007 C 
ENDROOT
BRANCH   2   3
ATOM      3  C   UNL     1       6.762  -3.132  -2.927  0.00  0.00    +0.097 A 
ATOM      4  N   UNL     1       7.369  -3.484  -4.090  0.00  0.00    -0.312 N 
ATOM      5  H   UNL     1       7.210  -2.955  -4.888  0.00  0.00    +0.170 HD
ATOM      6  C   UNL     1       8.187  -4.550  -4.157  0.00  0.00    +0.260 A 
ATOM      7  O   UNL     1       8.726  -4.852  -5.208  0.00  0.00    -0.267 OA
ATOM      8  C   UNL     1       8.416  -5.324  -2.975  0.00  0.00    +0.080 A 
ATOM      9  C   UNL     1       9.249  -6.507  -2.794  0.00  0.00    +0.004 A 
ATOM     10  C   UNL     1       9.313  -7.078  -1.566  0.00  0.00    +0.056 A 
ATOM     11  S   UNL     1       8.247  -6.047  -0.577  0.00  0.00    -0.076 S 
ATOM     12  C   UNL     1       7.746  -4.886  -1.821  0.00  0.00    +0.116 A 
ATOM     13  N   UNL     1       6.955  -3.816  -1.831  0.00  0.00    -0.228 NA
BRANCH   9  14
ATOM     14  C   UNL     1      10.012  -7.075  -3.931  0.00  0.00    -0.017 A 
ATOM     15  C   UNL     1       9.372  -7.333  -5.143  0.00  0.00    +0.008 A 
ATOM     16  C   UNL     1      10.088  -7.857  -6.199  0.00  0.00    +0.001 A 
ATOM     17  C   UNL     1      11.435  -8.137  -6.055  0.00  0.00    +0.000 A 
ATOM     18  C   UNL     1      12.074  -7.889  -4.853  0.00  0.00    +0.001 A 
ATOM     19  C   UNL     1      11.369  -7.360  -3.791  0.00  0.00    +0.008 A 
ENDBRANCH   9  14
ENDBRANCH   2   3
BRANCH   2  20
ATOM     20  N   UNL     1       5.419  -1.684  -1.512  0.00  0.00    +0.386 N 
ATOM     21  H   UNL     1       6.130  -1.122  -1.029  0.00  0.00    -0.085 HD
ATOM     22  H   UNL     1       5.305  -2.582  -1.028  0.00  0.00    -0.085 HD
BRANCH  20  23
ATOM     23  C   UNL     1       4.134  -0.958  -1.499  0.00  0.00    -0.077 C 
BRANCH  23  24
ATOM     24  C   UNL     1       3.709  -0.717  -0.049  0.00  0.00    +0.016 C 
BRANCH  24  25
ATOM     25  C   UNL     1       2.397   0.024  -0.027  0.00  0.00    -0.045 A 
ATOM     26  C   UNL     1       1.207  -0.680  -0.016  0.00  0.00    +0.007 A 
ATOM     27  C   UNL     1       0.002  -0.004   0.002  0.00  0.00    +0.050 A 
ATOM     28  C   UNL     1      -0.017   1.383   0.010  0.00  0.00    +0.162 A 
ATOM     29  C   UNL     1       1.179   2.090   0.002  0.00  0.00    +0.162 A 
ATOM     30  C   UNL     1       2.385   1.406  -0.018  0.00  0.00    +0.053 A 
ATOM     31  O   UNL     1       1.184   3.451   0.018  0.00  0.00    -0.485 OA
ATOM     32  C   UNL     1      -0.040   4.103  -0.340  0.00  0.00    +0.270 C 
ATOM     33  C   UNL     1      -1.189   3.413   0.408  0.00  0.00    +0.270 C 
ATOM     34  O   UNL     1      -1.212   2.035   0.019  0.00  0.00    -0.485 OA
ENDBRANCH  24  25
ENDBRANCH  23  24
ENDBRANCH  20  23
ENDBRANCH   2  20
TORSDOF 6
