REMARK  Name = ZINC09041522
REMARK  11 active torsions:
REMARK  status: ('A' for Active; 'I' for Inactive)
REMARK    1  A    between atoms: C_1  and  O_2
REMARK    2  A    between atoms: O_2  and  C_3
REMARK    3  A    between atoms: C_5  and  C_10
REMARK    4  A    between atoms: C_8  and  O_9
REMARK    5  A    between atoms: N_11  and  N_12
REMARK    6  A    between atoms: C_13  and  C_15
REMARK    7  A    between atoms: C_15  and  S_16
REMARK    8  A    between atoms: S_16  and  C_17
REMARK    9  A    between atoms: C_21  and  C_24
REMARK   10  A    between atoms: N_32  and  C_33
REMARK   11  A    between atoms: C_33  and  C_34
REMARK                            x       y       z     vdW  Elec       q    Type
REMARK                         _______ _______ _______ _____ _____    ______ ____
ROOT
ATOM      1  C   UNL     1       2.302  -0.077  -0.020  0.00  0.00    +0.173 A 
ATOM      2  N   UNL     1       1.137  -0.693  -0.013  0.00  0.00    -0.216 NA
ATOM      3  C   UNL     1       0.002  -0.004   0.002  0.00  0.00    +0.117 A 
ATOM      4  C   UNL     1      -0.017   1.401   0.010  0.00  0.00    +0.080 A 
ATOM      5  C   UNL     1      -1.348   2.000   0.032  0.00  0.00    +0.004 A 
ATOM      6  C   UNL     1      -2.429   1.185   0.033  0.00  0.00    +0.056 A 
ATOM      7  S   UNL     1      -1.716  -0.448   0.017  0.00  0.00    -0.076 S 
ATOM      8  C   UNL     1       1.260   2.042   0.001  0.00  0.00    +0.264 A 
ATOM      9  O   UNL     1       1.341   3.259   0.006  0.00  0.00    -0.267 OA
ATOM     10  N   UNL     1       2.373   1.286  -0.013  0.00  0.00    -0.283 N 
ENDROOT
BRANCH   5  11
ATOM     11  C   UNL     1      -1.513   3.473   0.042  0.00  0.00    -0.017 A 
ATOM     12  C   UNL     1      -0.812   4.250   0.964  0.00  0.00    +0.008 A 
ATOM     13  C   UNL     1      -0.966   5.621   0.965  0.00  0.00    +0.001 A 
ATOM     14  C   UNL     1      -1.822   6.224   0.061  0.00  0.00    +0.000 A 
ATOM     15  C   UNL     1      -2.524   5.459  -0.853  0.00  0.00    +0.001 A 
ATOM     16  C   UNL     1      -2.374   4.087  -0.867  0.00  0.00    +0.008 A 
ENDBRANCH   5  11
BRANCH   1  17
ATOM     17  S   UNL     1       3.787  -1.025  -0.040  0.00  0.00    -0.078 S 
BRANCH  17  18
ATOM     18  C   UNL     1       3.093  -2.697  -0.042  0.00  0.00    +0.174 C 
BRANCH  18  20
ATOM     19  N   UNL     1       3.931  -5.024  -0.062  0.00  0.00    -0.206 N 
ATOM     20  C   UNL     1       4.212  -3.706  -0.058  0.00  0.00    +0.242 C 
ATOM     21  O   UNL     1       5.366  -3.331  -0.067  0.00  0.00    -0.273 OA
ATOM     22  H   UNL     1       3.009  -5.323  -0.055  0.00  0.00    +0.177 HD
BRANCH  19  24
ATOM     23  C   UNL     1       4.701  -7.231  -0.082  0.00  0.00    +0.138 C 
ATOM     24  N   UNL     1       4.972  -5.962  -0.077  0.00  0.00    -0.188 NA
BRANCH  23  27
ATOM     25  C   UNL     1       6.537 -10.506  -0.117  0.00  0.00    +0.162 A 
ATOM     26  C   UNL     1       5.507  -9.585  -0.102  0.00  0.00    +0.058 A 
ATOM     27  C   UNL     1       5.796  -8.218  -0.098  0.00  0.00    -0.002 A 
ATOM     28  C   UNL     1       7.126  -7.789  -0.114  0.00  0.00    +0.013 A 
ATOM     29  C   UNL     1       8.149  -8.714  -0.123  0.00  0.00    +0.050 A 
ATOM     30  C   UNL     1       7.861 -10.071  -0.127  0.00  0.00    +0.158 A 
BRANCH  25  32
ATOM     31  C   UNL     1       4.881 -12.212  -0.110  0.00  0.00    +0.277 C 
ATOM     32  O   UNL     1       6.260 -11.837  -0.121  0.00  0.00    -0.491 OA
ENDBRANCH  25  32
BRANCH  30  33
ATOM     33  O   UNL     1       8.873 -10.978  -0.141  0.00  0.00    -0.503 OA
ATOM     34  H   UNL     1       9.158 -11.236  -1.028  0.00  0.00    +0.292 HD
ENDBRANCH  30  33
ENDBRANCH  23  27
ENDBRANCH  19  24
ENDBRANCH  18  20
ENDBRANCH  17  18
ENDBRANCH   1  17
BRANCH  10  35
ATOM     35  C   UNL     1       3.685   1.938  -0.022  0.00  0.00    +0.154 C 
BRANCH  35  36
ATOM     36  C   UNL     1       4.122   2.169  -1.446  0.00  0.00    -0.013 C 
ATOM     37  C   UNL     1       4.450   3.374  -1.843  0.00  0.00    +0.005 C 
ENDBRANCH  35  36
ENDBRANCH  10  35
TORSDOF 10
