REMARK  Name = ZINC39466197
REMARK  8 active torsions:
REMARK  status: ('A' for Active; 'I' for Inactive)
REMARK    1  A    between atoms: C_1  and  C_2
REMARK    2  A    between atoms: C_2  and  C_3
REMARK    3  A    between atoms: C_2  and  S_4
REMARK    4  A    between atoms: S_4  and  P_7
REMARK    5  A    between atoms: C_15  and  O_33
REMARK    6  A    between atoms: C_16  and  S_23
REMARK    7  A    between atoms: S_23  and  O_26
REMARK    8  A    between atoms: O_26  and  C_27
REMARK                            x       y       z     vdW  Elec       q    Type
REMARK                         _______ _______ _______ _____ _____    ______ ____
ROOT
ATOM      1  P   UNL     1      -0.729  -2.542   0.485  0.00  0.00    +0.419 P 
ATOM      2  O   UNL     1       0.175  -2.953  -0.612  0.00  0.00    -0.246 OA
ATOM      3  N   UNL     1      -2.139  -3.404   0.420  0.00  0.00    -0.161 NA
ATOM      4  N   UNL     1      -2.871  -3.477   1.585  0.00  0.00    -0.224 NA
ATOM      5  C   UNL     1      -4.077  -4.289   1.365  0.00  0.00    +0.108 C 
ATOM      6  C   UNL     1      -5.029  -4.085   2.544  0.00  0.00    +0.052 C 
ATOM      7  C   UNL     1      -4.291  -4.321   3.837  0.00  0.00    -0.038 A 
ATOM      8  C   UNL     1      -5.029  -4.574   4.982  0.00  0.00    +0.051 A 
ATOM      9  C   UNL     1      -4.388  -4.795   6.191  0.00  0.00    +0.145 A 
ATOM     10  C   UNL     1      -3.002  -4.762   6.250  0.00  0.00    +0.170 A 
ATOM     11  C   UNL     1      -2.273  -4.510   5.107  0.00  0.00    +0.040 A 
ATOM     12  C   UNL     1      -2.915  -4.288   3.896  0.00  0.00    -0.021 A 
ATOM     13  C   UNL     1      -2.067  -4.019   2.680  0.00  0.00    +0.130 C 
ATOM     14  C   UNL     1      -0.937  -3.059   3.061  0.00  0.00    +0.195 C 
ATOM     15  O   UNL     1      -0.064  -2.900   1.925  0.00  0.00    -0.298 OA
ATOM     16  H   UNL     1      -2.436  -3.835  -0.397  0.00  0.00    +0.152 HD
ENDROOT
BRANCH   1  17
ATOM     17  S   UNL     1      -1.133  -0.465   0.361  0.00  0.00    +0.058 S 
ATOM     18  O   UNL     1      -1.960  -0.189   1.484  0.00  0.00    -0.164 OA
ATOM     19  O   UNL     1      -1.617  -0.268  -0.960  0.00  0.00    -0.164 OA
BRANCH  17  21
ATOM     20  C   UNL     1       0.294   1.855   0.613  0.00  0.00    +0.032 C 
ATOM     21  C   UNL     1       0.481   0.337   0.561  0.00  0.00    +0.136 C 
ATOM     22  C   UNL     1       1.130  -0.141   1.862  0.00  0.00    +0.032 C 
ENDBRANCH  17  21
ENDBRANCH   1  17
BRANCH  10  23
ATOM     23  S   UNL     1      -2.177  -5.041   7.781  0.00  0.00    +0.154 S 
ATOM     24  O   UNL     1      -2.091  -6.449   7.945  0.00  0.00    -0.131 OA
ATOM     25  O   UNL     1      -1.030  -4.202   7.782  0.00  0.00    -0.131 OA
BRANCH  23  26
ATOM     26  O   UNL     1      -3.091  -4.529   8.885  0.00  0.00    -0.342 OA
BRANCH  26  27
ATOM     27  C   UNL     1      -3.096  -3.176   9.016  0.00  0.00    +0.157 A 
ATOM     28  C   UNL     1      -2.140  -2.551   9.803  0.00  0.00    +0.048 A 
ATOM     29  C   UNL     1      -2.147  -1.176   9.934  0.00  0.00    +0.004 A 
ATOM     30  C   UNL     1      -3.106  -0.423   9.283  0.00  0.00    +0.000 A 
ATOM     31  C   UNL     1      -4.060  -1.044   8.498  0.00  0.00    +0.004 A 
ATOM     32  C   UNL     1      -4.054  -2.418   8.358  0.00  0.00    +0.048 A 
ENDBRANCH  26  27
ENDBRANCH  23  26
ENDBRANCH  10  23
BRANCH   9  33
ATOM     33  O   UNL     1      -5.114  -5.042   7.313  0.00  0.00    -0.505 OA
ATOM     34  H   UNL     1      -5.303  -5.979   7.460  0.00  0.00    +0.292 HD
ENDBRANCH   9  33
TORSDOF 6
