REMARK  Name = ZINC43642920
REMARK  10 active torsions:
REMARK  status: ('A' for Active; 'I' for Inactive)
REMARK    1  A    between atoms: C_1  and  C_2
REMARK    2  A    between atoms: C_2  and  C_4
REMARK    3  A    between atoms: C_2  and  N_17
REMARK    4  A    between atoms: N_9  and  C_10
REMARK    5  A    between atoms: C_10  and  C_11
REMARK    6  A    between atoms: N_17  and  C_18
REMARK    7  A    between atoms: C_21  and  O_26
REMARK    8  A    between atoms: C_23  and  O_24
REMARK    9  A    between atoms: O_24  and  C_25
REMARK   10  A    between atoms: O_26  and  C_27
REMARK                            x       y       z     vdW  Elec       q    Type
REMARK                         _______ _______ _______ _____ _____    ______ ____
ROOT
ATOM      1  C   UNL     1      -0.019   1.526   0.010  0.00  0.00    +0.038 C 
ATOM      2  C   UNL     1       0.002  -0.004   0.002  0.00  0.00    +0.154 C 
ENDROOT
BRANCH   2   3
ATOM      3  C   UNL     1       0.731  -0.503   1.223  0.00  0.00    +0.240 C 
ATOM      4  O   UNL     1       0.159  -1.212   2.023  0.00  0.00    -0.273 OA
ATOM      5  N   UNL     1       2.019  -0.161   1.426  0.00  0.00    -0.239 N 
ATOM      6  C   UNL     1       2.671  -0.608   2.518  0.00  0.00    +0.306 C 
ATOM      7  O   UNL     1       2.097  -1.319   3.319  0.00  0.00    -0.252 OA
ATOM      8  N   UNL     1       3.958  -0.266   2.720  0.00  0.00    -0.297 N 
ATOM      9  H   UNL     1       2.476   0.406   0.786  0.00  0.00    +0.159 HD
ATOM     10  H   UNL     1       4.416   0.302   2.081  0.00  0.00    +0.150 HD
BRANCH   8  11
ATOM     11  C   UNL     1       4.667  -0.751   3.907  0.00  0.00    +0.137 C 
BRANCH  11  12
ATOM     12  C   UNL     1       6.102  -0.222   3.897  0.00  0.00    +0.135 C 
ATOM     13  C   UNL     1       6.892  -0.825   5.078  0.00  0.00    +0.035 C 
ATOM     14  C   UNL     1       7.751   0.381   5.550  0.00  0.00    +0.031 C 
ATOM     15  C   UNL     1       6.783   1.558   5.271  0.00  0.00    +0.160 C 
ATOM     16  O   UNL     1       6.096   1.202   4.059  0.00  0.00    -0.375 OA
ENDBRANCH  11  12
ENDBRANCH   8  11
ENDBRANCH   2   3
BRANCH   2  17
ATOM     17  N   UNL     1      -1.372  -0.511   0.012  0.00  0.00    -0.330 N 
ATOM     18  H   UNL     1      -1.794  -0.752   0.852  0.00  0.00    +0.147 HD
BRANCH  17  19
ATOM     19  C   UNL     1      -2.078  -0.648  -1.191  0.00  0.00    +0.072 A 
ATOM     20  C   UNL     1      -1.474  -0.309  -2.393  0.00  0.00    +0.050 A 
ATOM     21  C   UNL     1      -2.170  -0.445  -3.580  0.00  0.00    +0.084 A 
ATOM     22  C   UNL     1      -3.474  -0.920  -3.571  0.00  0.00    +0.142 A 
ATOM     23  C   UNL     1      -4.082  -1.259  -2.372  0.00  0.00    +0.094 A 
ATOM     24  C   UNL     1      -3.385  -1.130  -1.182  0.00  0.00    +0.144 A 
ATOM     25 CL   UNL     1      -1.413  -0.019  -5.083  0.00  0.00    -0.080 Cl
BRANCH  24  26
ATOM     26  O   UNL     1      -3.978  -1.468  -0.006  0.00  0.00    -0.493 OA
ATOM     27  C   UNL     1      -5.319  -1.955  -0.072  0.00  0.00    +0.277 C 
ENDBRANCH  24  26
BRANCH  22  28
ATOM     28  O   UNL     1      -4.157  -1.052  -4.740  0.00  0.00    -0.494 OA
ATOM     29  C   UNL     1      -5.495  -1.547  -4.658  0.00  0.00    +0.277 C 
ENDBRANCH  22  28
ENDBRANCH  17  19
ENDBRANCH   2  17
TORSDOF 7
