REMARK  Name = ZINC37409666
REMARK  3 active torsions:
REMARK  status: ('A' for Active; 'I' for Inactive)
REMARK    1  A    between atoms: C_2  and  C_21
REMARK    2  A    between atoms: C_4  and  C_6
REMARK    3  A    between atoms: C_6  and  C_7
REMARK                            x       y       z     vdW  Elec       q    Type
REMARK                         _______ _______ _______ _____ _____    ______ ____
ROOT
ATOM      1  C   UNL     1       2.730  -1.937   1.385  0.00  0.00    +0.222 C 
ATOM      2  O   UNL     1       2.487  -1.177   2.299  0.00  0.00    -0.275 OA
ATOM      3  N   UNL     1       3.421  -3.071   1.619  0.00  0.00    -0.298 N 
ATOM      4  C   UNL     1       3.825  -3.947   0.509  0.00  0.00    +0.108 C 
ATOM      5  C   UNL     1       3.342  -5.371   0.801  0.00  0.00    +0.019 C 
ATOM      6  C   UNL     1       3.852  -5.812   2.175  0.00  0.00    +0.007 C 
ATOM      7  C   UNL     1       3.283  -4.879   3.250  0.00  0.00    +0.010 C 
ATOM      8  C   UNL     1       3.793  -3.456   2.985  0.00  0.00    +0.079 C 
ATOM      9  C   UNL     1       3.190  -2.478   3.989  0.00  0.00    +0.023 C 
ATOM     10  C   UNL     1       1.663  -2.514   3.899  0.00  0.00    +0.002 C 
ATOM     11  C   UNL     1       1.174  -3.932   4.205  0.00  0.00    +0.000 C 
ATOM     12  C   UNL     1       1.755  -4.920   3.180  0.00  0.00    +0.005 C 
ENDROOT
BRANCH   1  13
ATOM     13  C   UNL     1       2.260  -1.614  -0.009  0.00  0.00    +0.158 C 
BRANCH  13  17
ATOM     14  C   UNL     1      -0.106   1.746   0.091  0.00  0.00    +0.071 A 
ATOM     15  C   UNL     1       1.214   1.964  -0.137  0.00  0.00    +0.063 A 
ATOM     16  N   UNL     1       1.997   0.904  -0.174  0.00  0.00    -0.247 NA
ATOM     17  C   UNL     1       1.519  -0.303   0.001  0.00  0.00    +0.087 A 
ATOM     18  S   UNL     1      -0.126  -0.033   0.240  0.00  0.00    -0.080 S 
BRANCH  15  19
ATOM     19  C   UNL     1       1.761   3.354  -0.338  0.00  0.00    +0.164 C 
ATOM     20 CL   UNL     1       2.244   4.046   1.255  0.00  0.00    -0.119 Cl
ENDBRANCH  15  19
ENDBRANCH  13  17
ENDBRANCH   1  13
TORSDOF 3
