REMARK  Name = ZINC06108698
REMARK  5 active torsions:
REMARK  status: ('A' for Active; 'I' for Inactive)
REMARK    1  A    between atoms: C_4  and  C_7
REMARK    2  A    between atoms: N_9  and  N_10
REMARK    3  A    between atoms: C_11  and  C_13
REMARK    4  A    between atoms: C_13  and  S_14
REMARK    5  A    between atoms: S_14  and  C_15
REMARK                            x       y       z     vdW  Elec       q    Type
REMARK                         _______ _______ _______ _____ _____    ______ ____
ROOT
ATOM      1  S   UNL     1       2.832   4.248   0.416  0.00  0.00    -0.077 S 
ENDROOT
BRANCH   1   2
ATOM      2  C   UNL     1       2.511   5.966   0.191  0.00  0.00    +0.191 A 
ATOM      3  N   UNL     1       1.256   6.401   0.199  0.00  0.00    -0.207 NA
ATOM      4  C   UNL     1       0.954   7.677   0.034  0.00  0.00    +0.129 A 
ATOM      5  C   UNL     1       2.001   8.621  -0.159  0.00  0.00    +0.051 A 
ATOM      6  C   UNL     1       1.903  10.069  -0.360  0.00  0.00    -0.025 A 
ATOM      7  C   UNL     1       3.059  10.744  -0.520  0.00  0.00    -0.004 A 
ATOM      8  S   UNL     1       4.331   9.514  -0.415  0.00  0.00    -0.073 S 
ATOM      9  C   UNL     1       3.306   8.090  -0.156  0.00  0.00    +0.115 A 
ATOM     10  N   UNL     1       3.527   6.801   0.021  0.00  0.00    -0.214 NA
ATOM     11  C   UNL     1       3.228  12.216  -0.741  0.00  0.00    +0.043 C 
ATOM     12  C   UNL     1       1.865  12.807  -1.131  0.00  0.00    +0.005 C 
ATOM     13  C   UNL     1       0.808  12.290  -0.151  0.00  0.00    +0.005 C 
ATOM     14  C   UNL     1       0.563  10.799  -0.390  0.00  0.00    +0.037 C 
ATOM     15  N   UNL     1      -0.366   8.091   0.049  0.00  0.00    -0.343 N 
ATOM     16  H   UNL     1      -1.053   7.507   0.408  0.00  0.00    +0.144 HD
ATOM     17  H   UNL     1      -0.605   8.964  -0.299  0.00  0.00    +0.144 HD
ENDBRANCH   1   2
BRANCH   1  18
ATOM     18  C   UNL     1       1.140   3.633   0.598  0.00  0.00    +0.174 C 
BRANCH  18  20
ATOM     19  N   UNL     1       0.015   1.462   0.969  0.00  0.00    -0.233 N 
ATOM     20  C   UNL     1       1.167   2.141   0.809  0.00  0.00    +0.239 C 
ATOM     21  O   UNL     1       2.227   1.552   0.833  0.00  0.00    -0.273 OA
ATOM     22  H   UNL     1      -0.833   1.933   0.946  0.00  0.00    +0.173 HD
BRANCH  19  25
ATOM     23  C   UNL     1      -1.113  -0.605   1.326  0.00  0.00    +0.260 C 
ATOM     24  O   UNL     1      -2.175  -0.014   1.301  0.00  0.00    -0.269 OA
ATOM     25  N   UNL     1       0.040   0.075   1.165  0.00  0.00    -0.230 N 
ATOM     26  H   UNL     1       0.888  -0.397   1.185  0.00  0.00    +0.173 HD
BRANCH  23  30
ATOM     27  C   UNL     1      -1.035  -4.810   1.919  0.00  0.00    +0.000 A 
ATOM     28  C   UNL     1      -2.245  -4.141   1.891  0.00  0.00    +0.001 A 
ATOM     29  C   UNL     1      -2.278  -2.775   1.699  0.00  0.00    +0.013 A 
ATOM     30  C   UNL     1      -1.085  -2.068   1.532  0.00  0.00    +0.038 A 
ATOM     31  C   UNL     1       0.132  -2.750   1.555  0.00  0.00    +0.013 A 
ATOM     32  C   UNL     1       0.151  -4.115   1.754  0.00  0.00    +0.001 A 
ENDBRANCH  23  30
ENDBRANCH  19  25
ENDBRANCH  18  20
ENDBRANCH   1  18
TORSDOF 5
