REMARK  Name = ZINC63627389
REMARK  7 active torsions:
REMARK  status: ('A' for Active; 'I' for Inactive)
REMARK    1  A    between atoms: C_1  and  C_2
REMARK    2  A    between atoms: C_4  and  C_30
REMARK    3  A    between atoms: C_5  and  S_9
REMARK    4  A    between atoms: C_7  and  C_8
REMARK    5  A    between atoms: S_9  and  N_12
REMARK    6  A    between atoms: N_12  and  C_13
REMARK    7  A    between atoms: C_16  and  C_19
REMARK                            x       y       z     vdW  Elec       q    Type
REMARK                         _______ _______ _______ _____ _____    ______ ____
ROOT
ATOM      1  C   UNL     1      -1.921  -5.447  -1.706  0.00  0.00    +0.048 A 
ATOM      2  C   UNL     1      -1.975  -4.242  -2.395  0.00  0.00    +0.025 A 
ATOM      3  C   UNL     1      -2.440  -4.213  -3.696  0.00  0.00    +0.008 A 
ATOM      4  C   UNL     1      -2.851  -5.381  -4.311  0.00  0.00    -0.021 A 
ATOM      5  C   UNL     1      -2.799  -6.582  -3.627  0.00  0.00    +0.008 A 
ATOM      6  C   UNL     1      -2.330  -6.619  -2.329  0.00  0.00    +0.025 A 
ENDROOT
BRANCH   4   7
ATOM      7  C   UNL     1      -3.358  -5.345  -5.730  0.00  0.00    +0.133 C 
ATOM      8  C   UNL     1      -2.290  -5.843  -6.678  0.00  0.00    +0.012 C 
ATOM      9  C   UNL     1      -2.809  -6.933  -7.288  0.00  0.00    -0.002 A 
ATOM     10  C   UNL     1      -2.277  -7.853  -8.300  0.00  0.00    +0.029 A 
ATOM     11  C   UNL     1      -3.051  -8.877  -8.727  0.00  0.00    +0.042 A 
ATOM     12  C   UNL     1      -4.346  -9.081  -8.226  0.00  0.00    +0.022 A 
ATOM     13  C   UNL     1      -4.902  -8.278  -7.295  0.00  0.00    +0.027 A 
ATOM     14  C   UNL     1      -4.178  -7.170  -6.776  0.00  0.00    +0.043 A 
ATOM     15  N   UNL     1      -4.494  -6.260  -5.884  0.00  0.00    -0.374 N 
ATOM     16 CL   UNL     1      -2.426  -9.967  -9.925  0.00  0.00    -0.084 Cl
ATOM     17  H   UNL     1      -5.336  -6.203  -5.407  0.00  0.00    +0.161 HD
ENDBRANCH   4   7
BRANCH   1  18
ATOM     18  N   UNL     1      -1.452  -5.480  -0.391  0.00  0.00    -0.216 N 
ATOM     19  H   UNL     1      -1.938  -5.977   0.286  0.00  0.00    +0.174 HD
BRANCH  18  20
ATOM     20  S   UNL     1      -0.065  -4.671   0.014  0.00  0.00    +0.073 S 
ATOM     21  O   UNL     1       0.207  -4.985   1.373  0.00  0.00    -0.150 OA
ATOM     22  O   UNL     1      -0.227  -3.334  -0.441  0.00  0.00    -0.150 OA
BRANCH  20  27
ATOM     23  C   UNL     1       4.412  -7.070  -3.242  0.00  0.00    +0.044 C 
ATOM     24  C   UNL     1       3.294  -6.471  -2.429  0.00  0.00    -0.047 A 
ATOM     25  C   UNL     1       2.636  -7.239  -1.486  0.00  0.00    +0.009 A 
ATOM     26  C   UNL     1       1.611  -6.690  -0.740  0.00  0.00    -0.024 A 
ATOM     27  C   UNL     1       1.243  -5.371  -0.936  0.00  0.00    +0.112 A 
ATOM     28  C   UNL     1       1.901  -4.603  -1.877  0.00  0.00    +0.032 A 
ATOM     29  C   UNL     1       2.930  -5.152  -2.621  0.00  0.00    -0.046 A 
ATOM     30  C   UNL     1       3.652  -4.312  -3.643  0.00  0.00    +0.044 C 
ATOM     31  C   UNL     1       0.892  -7.527   0.286  0.00  0.00    +0.046 C 
ENDBRANCH  20  27
ENDBRANCH  18  20
ENDBRANCH   1  18
TORSDOF 4
