REMARK  Name = ZINC22408001
REMARK  11 active torsions:
REMARK  status: ('A' for Active; 'I' for Inactive)
REMARK    1  A    between atoms: C_4  and  O_7
REMARK    2  A    between atoms: O_7  and  C_8
REMARK    3  A    between atoms: C_13  and  N_14
REMARK    4  A    between atoms: C_15  and  C_17
REMARK    5  A    between atoms: C_17  and  S_18
REMARK    6  A    between atoms: S_18  and  C_19
REMARK    7  A    between atoms: C_22  and  C_30
REMARK    8  A    between atoms: N_23  and  C_24
REMARK    9  A    between atoms: C_24  and  C_25
REMARK   10  A    between atoms: C_30  and  C_31
REMARK   11  A    between atoms: C_31  and  C_32
REMARK                            x       y       z     vdW  Elec       q    Type
REMARK                         _______ _______ _______ _____ _____    ______ ____
ROOT
ATOM      1  S   UNL     1       1.522   3.498   1.509  0.00  0.00    -0.077 S 
ENDROOT
BRANCH   1   2
ATOM      2  C   UNL     1       1.053   1.800   1.502  0.00  0.00    +0.192 A 
ATOM      3  N   UNL     1      -0.109   1.313   1.133  0.00  0.00    -0.122 NA
ATOM      4  N   UNL     1      -0.104   0.033   1.256  0.00  0.00    -0.133 NA
ATOM      5  C   UNL     1       1.050  -0.369   1.706  0.00  0.00    +0.135 A 
ATOM      6  N   UNL     1       1.829   0.742   1.879  0.00  0.00    -0.299 N 
BRANCH   6   7
ATOM      7  C   UNL     1       3.209   0.787   2.368  0.00  0.00    +0.199 C 
BRANCH   7   8
ATOM      8  C   UNL     1       4.159   0.677   1.204  0.00  0.00    +0.125 A 
ATOM      9  C   UNL     1       4.651   1.705   0.490  0.00  0.00    +0.046 A 
ATOM     10  C   UNL     1       5.497   1.150  -0.498  0.00  0.00    +0.041 A 
ATOM     11  C   UNL     1       5.465  -0.185  -0.333  0.00  0.00    +0.195 A 
ATOM     12  O   UNL     1       4.653  -0.466   0.699  0.00  0.00    -0.466 OA
ENDBRANCH   7   8
ENDBRANCH   6   7
BRANCH   5  13
ATOM     13  C   UNL     1       1.453  -1.794   1.984  0.00  0.00    +0.085 C 
BRANCH  13  14
ATOM     14  C   UNL     1       2.072  -2.404   0.725  0.00  0.00    +0.103 C 
BRANCH  14  15
ATOM     15  C   UNL     1       2.475  -3.829   1.003  0.00  0.00    +0.211 C 
ATOM     16  O   UNL     1       2.286  -4.310   2.100  0.00  0.00    -0.276 OA
ATOM     17  N   UNL     1       3.046  -4.570   0.032  0.00  0.00    -0.329 N 
ATOM     18  H   UNL     1       3.341  -5.610   0.235  0.00  0.00    +0.145 HD
ATOM     19  H   UNL     1       3.218  -4.134  -0.963  0.00  0.00    +0.145 HD
ENDBRANCH  14  15
ENDBRANCH  13  14
ENDBRANCH   5  13
ENDBRANCH   1   2
BRANCH   1  20
ATOM     20  C   UNL     1      -0.005   4.249   0.892  0.00  0.00    +0.173 C 
BRANCH  20  22
ATOM     21  N   UNL     1      -0.849   6.516   0.377  0.00  0.00    -0.282 N 
ATOM     22  C   UNL     1       0.166   5.744   0.812  0.00  0.00    +0.228 C 
ATOM     23  O   UNL     1       1.218   6.252   1.139  0.00  0.00    -0.275 OA
ATOM     24  H   UNL     1      -1.797   6.054   0.065  0.00  0.00    +0.155 HD
BRANCH  21  30
ATOM     25  C   UNL     1      -1.818   8.732   0.271  0.00  0.00    +0.150 A 
ATOM     26  C   UNL     1      -1.661  10.108   0.221  0.00  0.00    +0.048 A 
ATOM     27  C   UNL     1      -0.393  10.660   0.211  0.00  0.00    +0.004 A 
ATOM     28  C   UNL     1       0.721   9.842   0.256  0.00  0.00    +0.002 A 
ATOM     29  C   UNL     1       0.573   8.469   0.311  0.00  0.00    +0.027 A 
ATOM     30  C   UNL     1      -0.696   7.908   0.321  0.00  0.00    +0.076 A 
BRANCH  25  31
ATOM     31  O   UNL     1      -3.064   8.188   0.275  0.00  0.00    -0.454 OA
BRANCH  31  35
ATOM     32  C   UNL     1      -4.686   7.091   3.905  0.00  0.00    +0.000 A 
ATOM     33  C   UNL     1      -5.446   6.997   2.753  0.00  0.00    +0.004 A 
ATOM     34  C   UNL     1      -4.905   7.364   1.536  0.00  0.00    +0.046 A 
ATOM     35  C   UNL     1      -3.599   7.827   1.470  0.00  0.00    +0.129 A 
ATOM     36  C   UNL     1      -2.837   7.915   2.627  0.00  0.00    +0.046 A 
ATOM     37  C   UNL     1      -3.384   7.552   3.842  0.00  0.00    +0.004 A 
ENDBRANCH  31  35
ENDBRANCH  25  31
ENDBRANCH  21  30
ENDBRANCH  20  22
ENDBRANCH   1  20
TORSDOF 11
