REMARK  Name = ZINC47133697
REMARK  5 active torsions:
REMARK  status: ('A' for Active; 'I' for Inactive)
REMARK    1  A    between atoms: C_4  and  C_7
REMARK    2  A    between atoms: N_11  and  C_15
REMARK    3  A    between atoms: C_15  and  C_16
REMARK    4  A    between atoms: C_16  and  C_17
REMARK    5  A    between atoms: C_21  and  C_25
REMARK                            x       y       z     vdW  Elec       q    Type
REMARK                         _______ _______ _______ _____ _____    ______ ____
ROOT
ATOM      1  C   UNL     1       7.160  -6.417   1.947  0.00  0.00    +0.220 C 
ATOM      2  O   UNL     1       7.658  -6.887   0.946  0.00  0.00    -0.275 OA
ATOM      3  N   UNL     1       7.621  -6.777   3.161  0.00  0.00    -0.266 N 
ATOM      4  C   UNL     1       8.669  -7.690   3.267  0.00  0.00    +0.197 A 
ATOM      5  C   UNL     1       9.264  -8.174   4.517  0.00  0.00    +0.156 A 
ATOM      6  N   UNL     1      10.217  -9.016   4.218  0.00  0.00    -0.047 NA
ATOM      7  O   UNL     1      10.282  -9.114   2.806  0.00  0.00    -0.240 OA
ATOM      8  N   UNL     1       9.284  -8.263   2.271  0.00  0.00    -0.033 NA
ATOM      9  H   UNL     1       7.223  -6.401   3.962  0.00  0.00    +0.156 HD
ENDROOT
BRANCH   5  10
ATOM     10  C   UNL     1       8.854  -7.775   5.886  0.00  0.00    +0.007 A 
ATOM     11  C   UNL     1       8.418  -6.476   6.138  0.00  0.00    +0.010 A 
ATOM     12  C   UNL     1       8.043  -6.118   7.414  0.00  0.00    +0.004 A 
ATOM     13  C   UNL     1       8.093  -7.041   8.453  0.00  0.00    -0.044 A 
ATOM     14  C   UNL     1       8.518  -8.328   8.209  0.00  0.00    -0.044 A 
ATOM     15  C   UNL     1       8.896  -8.698   6.926  0.00  0.00    +0.014 A 
ATOM     16  C   UNL     1       8.580  -9.380   9.286  0.00  0.00    +0.035 C 
ATOM     17  C   UNL     1       8.552  -8.735  10.670  0.00  0.00    +0.005 C 
ATOM     18  C   UNL     1       7.366  -7.765  10.727  0.00  0.00    +0.005 C 
ATOM     19  C   UNL     1       7.674  -6.573   9.823  0.00  0.00    +0.035 C 
ENDBRANCH   5  10
BRANCH   1  20
ATOM     20  C   UNL     1       6.027  -5.430   1.833  0.00  0.00    +0.115 C 
BRANCH  20  21
ATOM     21  C   UNL     1       5.700  -5.197   0.356  0.00  0.00    +0.124 C 
BRANCH  21  26
ATOM     22  C   UNL     1       3.690  -0.678  -0.038  0.00  0.00    +0.028 C 
ATOM     23  C   UNL     1       3.716  -2.031   0.057  0.00  0.00    +0.077 C 
ATOM     24  C   UNL     1       4.872  -2.946   0.166  0.00  0.00    +0.258 C 
ATOM     25  O   UNL     1       6.016  -2.532   0.183  0.00  0.00    -0.269 OA
ATOM     26  N   UNL     1       4.599  -4.237   0.246  0.00  0.00    -0.255 N 
ATOM     27  C   UNL     1       3.329  -4.692   0.227  0.00  0.00    +0.121 C 
ATOM     28  S   UNL     1       2.778  -6.310   0.318  0.00  0.00    -0.027 S 
ATOM     29  S   UNL     1       2.362  -3.197   0.091  0.00  0.00    -0.061 S 
BRANCH  22  33
ATOM     30  C   UNL     1       0.041   1.321  -0.853  0.00  0.00    +0.000 A 
ATOM     31  C   UNL     1       1.163   2.052  -0.507  0.00  0.00    +0.001 A 
ATOM     32  C   UNL     1       2.354   1.410  -0.240  0.00  0.00    +0.008 A 
ATOM     33  C   UNL     1       2.425   0.015  -0.320  0.00  0.00    -0.024 A 
ATOM     34  C   UNL     1       1.285  -0.717  -0.671  0.00  0.00    +0.008 A 
ATOM     35  C   UNL     1       0.102  -0.060  -0.935  0.00  0.00    +0.001 A 
ENDBRANCH  22  33
ENDBRANCH  21  26
ENDBRANCH  20  21
ENDBRANCH   1  20
TORSDOF 5
