REMARK  Name = ZINC04699008
REMARK  8 active torsions:
REMARK  status: ('A' for Active; 'I' for Inactive)
REMARK    1  A    between atoms: C_1  and  O_2
REMARK    2  A    between atoms: O_2  and  C_3
REMARK    3  A    between atoms: C_5  and  C_13
REMARK    4  A    between atoms: C_6  and  O_11
REMARK    5  A    between atoms: C_8  and  O_9
REMARK    6  A    between atoms: O_9  and  C_10
REMARK    7  A    between atoms: O_11  and  C_12
REMARK    8  A    between atoms: N_15  and  C_16
REMARK                            x       y       z     vdW  Elec       q    Type
REMARK                         _______ _______ _______ _____ _____    ______ ____
ROOT
ATOM      1  C   UNL     1       2.394   0.350  -4.215  0.00  0.00    +0.248 C 
ATOM      2  O   UNL     1       2.934  -0.192  -5.160  0.00  0.00    -0.270 OA
ATOM      3  N   UNL     1       2.347   1.695  -4.147  0.00  0.00    -0.306 N 
ATOM      4  H   UNL     1       1.916   2.128  -3.393  0.00  0.00    +0.150 HD
ENDROOT
BRANCH   3   5
ATOM      5  C   UNL     1       2.946   2.504  -5.211  0.00  0.00    +0.036 C 
ATOM      6  C   UNL     1       2.268   2.178  -6.543  0.00  0.00    +0.029 C 
ATOM      7  C   UNL     1       2.893   3.022  -7.655  0.00  0.00    -0.008 C 
ATOM      8  C   UNL     1       2.703   4.507  -7.336  0.00  0.00    +0.007 C 
ATOM      9  C   UNL     1       3.381   4.833  -6.004  0.00  0.00    -0.008 C 
ATOM     10  C   UNL     1       2.756   3.988  -4.892  0.00  0.00    +0.029 C 
ATOM     11  C   UNL     1       4.876   4.520  -6.102  0.00  0.00    +0.007 C 
ATOM     12  C   UNL     1       5.066   3.036  -6.421  0.00  0.00    -0.008 C 
ATOM     13  C   UNL     1       4.388   2.710  -7.753  0.00  0.00    +0.007 C 
ATOM     14  C   UNL     1       4.440   2.191  -5.310  0.00  0.00    +0.029 C 
ENDBRANCH   3   5
BRANCH   1  17
ATOM     15  C   UNL     1       0.607  -0.608  -1.057  0.00  0.00    +0.162 A 
ATOM     16  C   UNL     1       1.170   0.158  -2.057  0.00  0.00    +0.066 A 
ATOM     17  C   UNL     1       1.792  -0.463  -3.145  0.00  0.00    +0.082 A 
ATOM     18  C   UNL     1       1.839  -1.863  -3.214  0.00  0.00    +0.136 A 
ATOM     19  C   UNL     1       1.270  -2.622  -2.205  0.00  0.00    +0.095 A 
ATOM     20  C   UNL     1       0.660  -2.000  -1.127  0.00  0.00    +0.165 A 
BRANCH  15  22
ATOM     21  C   UNL     1      -0.017   1.425   0.010  0.00  0.00    +0.277 C 
ATOM     22  O   UNL     1       0.002  -0.004   0.002  0.00  0.00    -0.491 OA
ENDBRANCH  15  22
BRANCH  20  23
ATOM     23  O   UNL     1       0.109  -2.749  -0.137  0.00  0.00    -0.491 OA
ATOM     24  C   UNL     1       0.200  -4.169  -0.271  0.00  0.00    +0.277 C 
ENDBRANCH  20  23
BRANCH  18  25
ATOM     25  O   UNL     1       2.440  -2.473  -4.267  0.00  0.00    -0.494 OA
ATOM     26  C   UNL     1       2.450  -3.901  -4.270  0.00  0.00    +0.277 C 
ENDBRANCH  18  25
ENDBRANCH   1  17
TORSDOF 5
