REMARK  Name = ZINC17369467
REMARK  6 active torsions:
REMARK  status: ('A' for Active; 'I' for Inactive)
REMARK    1  A    between atoms: C_3  and  S_10
REMARK    2  A    between atoms: C_6  and  N_7
REMARK    3  A    between atoms: S_10  and  C_13
REMARK    4  A    between atoms: C_19  and  C_21
REMARK    5  A    between atoms: C_21  and  S_22
REMARK    6  A    between atoms: S_22  and  C_23
REMARK                            x       y       z     vdW  Elec       q    Type
REMARK                         _______ _______ _______ _____ _____    ______ ____
ROOT
ATOM      1  C   UNL     1      -0.022   1.783   0.012  0.00  0.00    +0.152 A 
ATOM      2  C   UNL     1       1.306   2.052   0.001  0.00  0.00    +0.148 A 
ATOM      3  N   UNL     1       2.153   1.042  -0.013  0.00  0.00    -0.231 NA
ATOM      4  C   UNL     1       1.727  -0.206  -0.015  0.00  0.00    +0.166 A 
ATOM      5  S   UNL     1       0.002  -0.004   0.002  0.00  0.00    -0.033 S 
ATOM      6  N   UNL     1       2.468  -1.382  -0.029  0.00  0.00    -0.264 N 
ATOM      7  C   UNL     1       3.815  -1.330  -0.042  0.00  0.00    +0.229 C 
ATOM      8  O   UNL     1       4.380  -0.257  -0.041  0.00  0.00    -0.275 OA
ATOM      9  H   UNL     1       2.016  -2.241  -0.030  0.00  0.00    +0.157 HD
ENDROOT
BRANCH   1  10
ATOM     10  S   UNL     1      -1.394   2.888   0.025  0.00  0.00    +0.033 S 
ATOM     11  O   UNL     1      -2.489   2.171   0.578  0.00  0.00    -0.164 OA
ATOM     12  O   UNL     1      -0.926   4.110   0.579  0.00  0.00    -0.164 OA
BRANCH  10  15
ATOM     13  C   UNL     1      -3.048   2.687  -3.632  0.00  0.00    +0.034 A 
ATOM     14  C   UNL     1      -2.722   2.423  -2.314  0.00  0.00    +0.029 A 
ATOM     15  C   UNL     1      -1.808   3.224  -1.655  0.00  0.00    +0.094 A 
ATOM     16  C   UNL     1      -1.224   4.291  -2.311  0.00  0.00    +0.029 A 
ATOM     17  C   UNL     1      -1.546   4.551  -3.630  0.00  0.00    +0.034 A 
ATOM     18  C   UNL     1      -2.459   3.751  -4.290  0.00  0.00    +0.126 A 
BRANCH  18  19
ATOM     19  N   UNL     1      -2.807   4.032  -5.701  0.00  0.00    +0.056 N 
ATOM     20  O   UNL     1      -3.611   3.326  -6.282  0.00  0.00    -0.126 OA
ATOM     21  O   UNL     1      -2.288   4.969  -6.280  0.00  0.00    -0.126 OA
ENDBRANCH  18  19
ENDBRANCH  10  15
ENDBRANCH   1  10
BRANCH   7  22
ATOM     22  C   UNL     1       4.618  -2.605  -0.057  0.00  0.00    +0.170 C 
BRANCH  22  23
ATOM     23  S   UNL     1       6.387  -2.204  -0.071  0.00  0.00    -0.113 S 
BRANCH  23  24
ATOM     24  C   UNL     1       7.181  -3.777  -0.088  0.00  0.00    +0.044 A 
ATOM     25  C   UNL     1       6.420  -4.939  -0.087  0.00  0.00    +0.020 A 
ATOM     26  C   UNL     1       7.044  -6.172  -0.101  0.00  0.00    +0.039 A 
ATOM     27  C   UNL     1       8.427  -6.250  -0.115  0.00  0.00    +0.126 A 
ATOM     28  C   UNL     1       9.188  -5.094  -0.115  0.00  0.00    +0.077 A 
ATOM     29  C   UNL     1       8.569  -3.857  -0.107  0.00  0.00    +0.139 A 
ATOM     30  F   UNL     1       9.312  -2.729  -0.113  0.00  0.00    -0.204 F 
ATOM     31  F   UNL     1       9.034  -7.457  -0.128  0.00  0.00    -0.205 F 
ENDBRANCH  23  24
ENDBRANCH  22  23
ENDBRANCH   7  22
TORSDOF 6
