REMARK  Name = ZINC05313056
REMARK  6 active torsions:
REMARK  status: ('A' for Active; 'I' for Inactive)
REMARK    1  A    between atoms: C_1  and  C_2
REMARK    2  A    between atoms: C_2  and  C_4
REMARK    3  A    between atoms: C_2  and  S_16
REMARK    4  A    between atoms: S_16  and  C_17
REMARK    5  A    between atoms: C_20  and  C_28
REMARK    6  A    between atoms: N_21  and  C_22
REMARK                            x       y       z     vdW  Elec       q    Type
REMARK                         _______ _______ _______ _____ _____    ______ ____
ROOT
ATOM      1  C   UNL     1      -1.033  -2.359   0.937  0.00  0.00    +0.193 A 
ATOM      2  N   UNL     1      -0.024  -2.932   0.321  0.00  0.00    -0.122 NA
ATOM      3  N   UNL     1      -0.072  -4.206   0.484  0.00  0.00    -0.125 NA
ATOM      4  C   UNL     1      -1.117  -4.525   1.216  0.00  0.00    +0.201 A 
ATOM      5  N   UNL     1      -1.761  -3.350   1.533  0.00  0.00    -0.297 N 
ENDROOT
BRANCH   5   6
ATOM      6  C   UNL     1      -2.975  -3.194   2.338  0.00  0.00    +0.091 C 
ATOM      7  C   UNL     1      -4.066  -2.534   1.494  0.00  0.00    +0.025 C 
ATOM      8  C   UNL     1      -5.334  -2.372   2.335  0.00  0.00    +0.002 C 
ATOM      9  C   UNL     1      -5.030  -1.495   3.551  0.00  0.00    +0.000 C 
ATOM     10  C   UNL     1      -3.939  -2.155   4.396  0.00  0.00    +0.002 C 
ATOM     11  C   UNL     1      -2.671  -2.318   3.555  0.00  0.00    +0.025 C 
ENDBRANCH   5   6
BRANCH   4  12
ATOM     12  C   UNL     1      -1.518  -5.881   1.624  0.00  0.00    +0.172 A 
ATOM     13  C   UNL     1      -0.741  -6.998   1.563  0.00  0.00    +0.053 A 
ATOM     14  C   UNL     1      -1.523  -8.063   2.051  0.00  0.00    +0.042 A 
ATOM     15  C   UNL     1      -2.725  -7.552   2.383  0.00  0.00    +0.196 A 
ATOM     16  O   UNL     1      -2.718  -6.233   2.129  0.00  0.00    -0.460 OA
ENDBRANCH   4  12
BRANCH   1  17
ATOM     17  S   UNL     1      -1.378  -0.632   0.991  0.00  0.00    -0.075 S 
BRANCH  17  19
ATOM     18  C   UNL     1      -0.130  -0.508  -1.437  0.00  0.00    +0.027 C 
ATOM     19  C   UNL     1       0.002  -0.004   0.002  0.00  0.00    +0.117 C 
BRANCH  19  20
ATOM     20  C   UNL     1      -0.018   1.503   0.010  0.00  0.00    +0.124 A 
ATOM     21  N   UNL     1       1.169   2.163   0.003  0.00  0.00    -0.309 N 
ATOM     22  H   UNL     1       2.024   1.645  -0.008  0.00  0.00    +0.170 HD
ATOM     23  C   UNL     1       1.204   3.516   0.009  0.00  0.00    +0.259 A 
ATOM     24  O   UNL     1       2.261   4.121   0.003  0.00  0.00    -0.267 OA
ATOM     25  C   UNL     1      -0.083   4.227   0.025  0.00  0.00    +0.065 A 
ATOM     26  C   UNL     1      -0.156   5.619   0.033  0.00  0.00    +0.015 A 
ATOM     27  C   UNL     1      -1.389   6.233   0.047  0.00  0.00    +0.001 A 
ATOM     28  C   UNL     1      -2.555   5.478   0.053  0.00  0.00    +0.002 A 
ATOM     29  C   UNL     1      -2.504   4.102   0.046  0.00  0.00    +0.028 A 
ATOM     30  C   UNL     1      -1.266   3.456   0.032  0.00  0.00    +0.078 A 
ATOM     31  N   UNL     1      -1.170   2.103   0.019  0.00  0.00    -0.233 NA
ENDBRANCH  19  20
ENDBRANCH  17  19
ENDBRANCH   1  17
TORSDOF 5
