REMARK  Name = ZINC17819691
REMARK  10 active torsions:
REMARK  status: ('A' for Active; 'I' for Inactive)
REMARK    1  A    between atoms: C_1  and  C_2
REMARK    2  A    between atoms: C_6  and  C_30
REMARK    3  A    between atoms: C_9  and  N_64
REMARK    4  A    between atoms: C_12  and  C_13
REMARK    5  A    between atoms: C_12  and  N_64
REMARK    6  A    between atoms: C_17  and  O_27
REMARK    7  A    between atoms: C_18  and  O_19
REMARK    8  A    between atoms: O_19  and  C_20
REMARK    9  A    between atoms: C_20  and  C_21
REMARK   10  A    between atoms: O_27  and  C_28
REMARK                            x       y       z     vdW  Elec       q    Type
REMARK                         _______ _______ _______ _____ _____    ______ ____
ROOT
ATOM      1  C   UNL     1       2.399   0.020  -0.020  0.00  0.00    -0.018 A 
ATOM      2  C   UNL     1       1.207  -0.682  -0.013  0.00  0.00    +0.020 A 
ATOM      3  C   UNL     1       0.002  -0.004   0.002  0.00  0.00    +0.022 A 
ATOM      4  C   UNL     1      -0.017   1.379   0.010  0.00  0.00    +0.064 A 
ATOM      5  C   UNL     1       1.173   2.088   0.002  0.00  0.00    +0.163 A 
ATOM      6  C   UNL     1       2.386   1.405  -0.013  0.00  0.00    +0.164 A 
ATOM      7 BR   UNL     1      -1.624  -0.970   0.012  0.00  0.00    -0.050 Br
ENDROOT
BRANCH   5   8
ATOM      8  O   UNL     1       1.157   3.448   0.009  0.00  0.00    -0.491 OA
ATOM      9  C   UNL     1      -0.124   4.081   0.024  0.00  0.00    +0.277 C 
ENDBRANCH   5   8
BRANCH   1  10
ATOM     10  C   UNL     1       3.710  -0.721  -0.035  0.00  0.00    -0.042 C 
BRANCH  10  11
ATOM     11  N   UNL     1       4.262  -0.755   1.333  0.00  0.00    +0.386 N 
ATOM     12  H   UNL     1       4.409   0.206   1.663  0.00  0.00    -0.085 HD
ATOM     13  H   UNL     1       3.599  -1.232   1.954  0.00  0.00    -0.085 HD
BRANCH  11  22
ATOM     14  C   UNL     1       6.464  -5.095   0.404  0.00  0.00    +0.011 C 
ATOM     15  C   UNL     1       6.674  -3.659   0.888  0.00  0.00    -0.033 C 
ATOM     16  C   UNL     1       7.672  -2.952  -0.031  0.00  0.00    +0.010 C 
ATOM     17  C   UNL     1       7.881  -1.516   0.454  0.00  0.00    -0.011 C 
ATOM     18  C   UNL     1       8.429  -1.534   1.883  0.00  0.00    +0.010 C 
ATOM     19  C   UNL     1       7.431  -2.242   2.802  0.00  0.00    -0.033 C 
ATOM     20  C   UNL     1       7.221  -3.678   2.317  0.00  0.00    +0.013 C 
ATOM     21  C   UNL     1       6.096  -1.495   2.777  0.00  0.00    -0.006 C 
ATOM     22  C   UNL     1       5.549  -1.477   1.348  0.00  0.00    -0.067 C 
ATOM     23  C   UNL     1       6.546  -0.769   0.429  0.00  0.00    -0.009 C 
ATOM     24  C   UNL     1       5.339  -2.913   0.863  0.00  0.00    -0.006 C 
ATOM     25  C   UNL     1       7.978  -2.261   4.230  0.00  0.00    +0.011 C 
ENDBRANCH  11  22
ENDBRANCH  10  11
ENDBRANCH   1  10
BRANCH   6  26
ATOM     26  O   UNL     1       3.558   2.097  -0.020  0.00  0.00    -0.484 OA
BRANCH  26  27
ATOM     27  C   UNL     1       4.104   2.434  -1.297  0.00  0.00    +0.264 C 
BRANCH  27  28
ATOM     28  C   UNL     1       5.392   3.192  -1.108  0.00  0.00    -0.010 A 
ATOM     29  C   UNL     1       5.375   4.572  -1.016  0.00  0.00    +0.007 A 
ATOM     30  C   UNL     1       6.556   5.267  -0.837  0.00  0.00    +0.000 A 
ATOM     31  C   UNL     1       7.756   4.585  -0.761  0.00  0.00    +0.000 A 
ATOM     32  C   UNL     1       7.774   3.206  -0.859  0.00  0.00    +0.000 A 
ATOM     33  C   UNL     1       6.592   2.510  -1.032  0.00  0.00    +0.007 A 
ENDBRANCH  27  28
ENDBRANCH  26  27
ENDBRANCH   6  26
TORSDOF 7
