REMARK  Name = ZINC49392872
REMARK  7 active torsions:
REMARK  status: ('A' for Active; 'I' for Inactive)
REMARK    1  A    between atoms: C_4  and  N_7
REMARK    2  A    between atoms: C_10  and  C_15
REMARK    3  A    between atoms: C_15  and  C_17
REMARK    4  A    between atoms: C_15  and  C_19
REMARK    5  A    between atoms: C_19  and  C_21
REMARK    6  A    between atoms: C_21  and  C_22
REMARK    7  A    between atoms: C_22  and  N_23
REMARK                            x       y       z     vdW  Elec       q    Type
REMARK                         _______ _______ _______ _____ _____    ______ ____
ROOT
ATOM      1  N   UNL     1       3.621  -0.650  -0.037  0.00  0.00    -0.284 N 
ATOM      2  C   UNL     1       3.645  -2.028   0.059  0.00  0.00    +0.224 A 
ATOM      3  N   UNL     1       4.808  -2.670   0.150  0.00  0.00    -0.197 NA
ATOM      4  C   UNL     1       4.831  -3.987   0.242  0.00  0.00    +0.160 A 
ATOM      5  N   UNL     1       3.702  -4.674   0.245  0.00  0.00    -0.198 NA
ATOM      6  C   UNL     1       2.535  -4.039   0.155  0.00  0.00    +0.217 A 
ATOM      7  N   UNL     1       2.507  -2.714   0.068  0.00  0.00    -0.181 NA
ATOM      8  N   UNL     1       1.356  -4.757   0.158  0.00  0.00    -0.327 N 
ATOM      9  H   UNL     1       4.451  -0.155  -0.124  0.00  0.00    +0.155 HD
ATOM     10  H   UNL     1       1.378  -5.724   0.226  0.00  0.00    +0.145 HD
ATOM     11  H   UNL     1       0.507  -4.293   0.093  0.00  0.00    +0.145 HD
ENDROOT
BRANCH   1  15
ATOM     12  C   UNL     1      -0.014   1.382   0.044  0.00  0.00    +0.000 A 
ATOM     13  C   UNL     1       0.143   0.219   0.777  0.00  0.00    +0.002 A 
ATOM     14  C   UNL     1       1.347  -0.457   0.752  0.00  0.00    +0.023 A 
ATOM     15  C   UNL     1       2.400   0.032  -0.010  0.00  0.00    +0.034 A 
ATOM     16  C   UNL     1       2.239   1.199  -0.745  0.00  0.00    +0.023 A 
ATOM     17  C   UNL     1       1.032   1.871  -0.716  0.00  0.00    +0.002 A 
ENDBRANCH   1  15
BRANCH   4  18
ATOM     18  C   UNL     1       6.150  -4.710   0.344  0.00  0.00    +0.225 C 
BRANCH  18  19
ATOM     19  C   UNL     1       6.291  -5.636  -0.792  0.00  0.00    +0.081 C 
ATOM     20  N   UNL     1       6.400  -6.350  -1.669  0.00  0.00    -0.195 NA
ENDBRANCH  18  19
BRANCH  18  21
ATOM     21  C   UNL     1       6.199  -5.487   1.634  0.00  0.00    +0.159 C 
ATOM     22  O   UNL     1       5.180  -5.917   2.119  0.00  0.00    -0.296 OA
BRANCH  21  23
ATOM     23  C   UNL     1       7.519  -5.727   2.320  0.00  0.00    +0.097 C 
BRANCH  23  24
ATOM     24  C   UNL     1       7.290  -6.535   3.599  0.00  0.00    +0.129 C 
BRANCH  24  25
ATOM     25  N   UNL     1       8.574  -6.769   4.265  0.00  0.00    -0.346 N 
ATOM     26  C   UNL     1       9.346  -7.888   4.114  0.00  0.00    +0.087 A 
ATOM     27  C   UNL     1      10.455  -7.784   4.862  0.00  0.00    +0.027 A 
ATOM     28  C   UNL     1      10.388  -6.492   5.550  0.00  0.00    -0.000 A 
ATOM     29  C   UNL     1       9.186  -5.892   5.133  0.00  0.00    +0.049 A 
ATOM     30  C   UNL     1       8.846  -4.635   5.622  0.00  0.00    +0.026 A 
ATOM     31  C   UNL     1       9.689  -3.993   6.503  0.00  0.00    +0.002 A 
ATOM     32  C   UNL     1      10.876  -4.587   6.908  0.00  0.00    +0.001 A 
ATOM     33  C   UNL     1      11.225  -5.825   6.447  0.00  0.00    +0.010 A 
ENDBRANCH  24  25
ENDBRANCH  23  24
ENDBRANCH  21  23
ENDBRANCH  18  21
ENDBRANCH   4  18
TORSDOF 7
