REMARK  Name = ZINC38658612
REMARK  10 active torsions:
REMARK  status: ('A' for Active; 'I' for Inactive)
REMARK    1  A    between atoms: C_1  and  O_2
REMARK    2  A    between atoms: O_2  and  C_3
REMARK    3  A    between atoms: C_6  and  C_11
REMARK    4  A    between atoms: C_8  and  O_9
REMARK    5  A    between atoms: O_9  and  C_10
REMARK    6  A    between atoms: C_16  and  O_25
REMARK    7  A    between atoms: C_20  and  N_24
REMARK    8  A    between atoms: C_21  and  C_22
REMARK    9  A    between atoms: O_25  and  C_26
REMARK   10  A    between atoms: C_26  and  C_28
REMARK                            x       y       z     vdW  Elec       q    Type
REMARK                         _______ _______ _______ _____ _____    ______ ____
ROOT
ATOM      1  C   UNL     1      -4.972  -2.685   0.062  0.00  0.00    +0.098 C 
ATOM      2  C   UNL     1      -5.735  -2.278   1.295  0.00  0.00    +0.008 A 
ATOM      3  C   UNL     1      -5.461  -2.899   2.501  0.00  0.00    +0.012 A 
ATOM      4  C   UNL     1      -6.150  -2.540   3.642  0.00  0.00    +0.047 A 
ATOM      5  C   UNL     1      -7.122  -1.551   3.582  0.00  0.00    +0.135 A 
ATOM      6  C   UNL     1      -7.399  -0.926   2.377  0.00  0.00    +0.093 A 
ATOM      7  C   UNL     1      -6.704  -1.289   1.230  0.00  0.00    +0.138 A 
ATOM      8  O   UNL     1      -6.987  -0.669   0.058  0.00  0.00    -0.441 OA
ATOM      9  C   UNL     1      -6.634  -1.241  -1.105  0.00  0.00    +0.199 C 
ATOM     10  C   UNL     1      -5.686  -2.201  -1.169  0.00  0.00    +0.098 C 
ENDROOT
BRANCH   1  14
ATOM     11  C   UNL     1      -1.056  -0.972   0.192  0.00  0.00    +0.162 A 
ATOM     12  C   UNL     1      -2.174  -0.153   0.197  0.00  0.00    +0.050 A 
ATOM     13  C   UNL     1      -3.438  -0.710   0.154  0.00  0.00    +0.008 A 
ATOM     14  C   UNL     1      -3.591  -2.083   0.108  0.00  0.00    -0.031 A 
ATOM     15  C   UNL     1      -2.480  -2.906   0.104  0.00  0.00    +0.054 A 
ATOM     16  C   UNL     1      -1.210  -2.354   0.140  0.00  0.00    +0.162 A 
BRANCH  11  18
ATOM     17  C   UNL     1       0.271   0.999   0.286  0.00  0.00    +0.277 C 
ATOM     18  O   UNL     1       0.189  -0.426   0.234  0.00  0.00    -0.491 OA
ENDBRANCH  11  18
BRANCH  16  19
ATOM     19  O   UNL     1      -0.116  -3.162   0.130  0.00  0.00    -0.491 OA
ATOM     20  C   UNL     1      -0.350  -4.571   0.075  0.00  0.00    +0.277 C 
ENDBRANCH  16  19
ENDBRANCH   1  14
BRANCH   9  21
ATOM     21  N   UNL     1      -7.255  -0.838  -2.261  0.00  0.00    -0.328 N 
ATOM     22  H   UNL     1      -7.937  -0.149  -2.231  0.00  0.00    +0.145 HD
ATOM     23  H   UNL     1      -7.011  -1.241  -3.109  0.00  0.00    +0.145 HD
ENDBRANCH   9  21
BRANCH  10  24
ATOM     24  C   UNL     1      -5.354  -2.770  -2.441  0.00  0.00    +0.101 C 
ATOM     25  N   UNL     1      -5.092  -3.221  -3.450  0.00  0.00    -0.191 NA
ENDBRANCH  10  24
BRANCH   5  26
ATOM     26  O   UNL     1      -7.802  -1.196   4.704  0.00  0.00    -0.422 OA
BRANCH  26  27
ATOM     27  C   UNL     1      -7.130  -0.543   5.671  0.00  0.00    +0.344 C 
ATOM     28  O   UNL     1      -5.981  -0.196   5.484  0.00  0.00    -0.245 OA
BRANCH  27  29
ATOM     29  C   UNL     1      -7.789  -0.248   6.960  0.00  0.00    +0.061 A 
ATOM     30  C   UNL     1      -9.108  -0.651   7.180  0.00  0.00    +0.015 A 
ATOM     31  C   UNL     1      -9.719  -0.373   8.386  0.00  0.00    +0.002 A 
ATOM     32  C   UNL     1      -9.028   0.303   9.375  0.00  0.00    +0.020 A 
ATOM     33  C   UNL     1      -7.720   0.705   9.164  0.00  0.00    +0.042 A 
ATOM     34  C   UNL     1      -7.095   0.428   7.964  0.00  0.00    +0.035 A 
ATOM     35 CL   UNL     1      -6.862   1.553  10.412  0.00  0.00    -0.084 Cl
ENDBRANCH  27  29
ENDBRANCH  26  27
ENDBRANCH   5  26
TORSDOF 8
