REMARK  Name = ZINC28335454
REMARK  5 active torsions:
REMARK  status: ('A' for Active; 'I' for Inactive)
REMARK    1  A    between atoms: C_8  and  C_10
REMARK    2  A    between atoms: N_12  and  C_13
REMARK    3  A    between atoms: C_13  and  C_14
REMARK    4  A    between atoms: N_16  and  N_17
REMARK    5  A    between atoms: N_17  and  C_18
REMARK                            x       y       z     vdW  Elec       q    Type
REMARK                         _______ _______ _______ _____ _____    ______ ____
ROOT
ATOM      1  C   UNL     1       6.376  -5.806  -0.396  0.00  0.00    +0.246 C 
ATOM      2  O   UNL     1       7.031  -4.791  -0.499  0.00  0.00    -0.273 OA
ATOM      3  N   UNL     1       6.992  -6.989  -0.199  0.00  0.00    -0.235 N 
ATOM      4  H   UNL     1       6.468  -7.801  -0.117  0.00  0.00    +0.173 HD
ENDROOT
BRANCH   3   5
ATOM      5  N   UNL     1       8.390  -7.045  -0.115  0.00  0.00    -0.259 N 
ATOM      6  H   UNL     1       8.909  -6.226  -0.121  0.00  0.00    +0.170 HD
BRANCH   5   7
ATOM      7  C   UNL     1       9.037  -8.285  -0.021  0.00  0.00    +0.121 A 
ATOM      8  C   UNL     1       8.533  -9.385  -0.704  0.00  0.00    +0.186 A 
ATOM      9  C   UNL     1       9.174 -10.609  -0.611  0.00  0.00    +0.198 A 
ATOM     10  C   UNL     1      10.317 -10.737   0.164  0.00  0.00    +0.199 A 
ATOM     11  C   UNL     1      10.820  -9.641   0.846  0.00  0.00    +0.198 A 
ATOM     12  C   UNL     1      10.185  -8.413   0.750  0.00  0.00    +0.186 A 
ATOM     13  F   UNL     1      10.680  -7.343   1.409  0.00  0.00    -0.200 F 
ATOM     14  F   UNL     1      11.934  -9.768   1.600  0.00  0.00    -0.199 F 
ATOM     15  F   UNL     1      10.940 -11.932   0.255  0.00  0.00    -0.199 F 
ATOM     16  F   UNL     1       8.685 -11.680  -1.274  0.00  0.00    -0.199 F 
ATOM     17  F   UNL     1       7.419  -9.261  -1.458  0.00  0.00    -0.200 F 
ENDBRANCH   5   7
ENDBRANCH   3   5
BRANCH   1  18
ATOM     18  C   UNL     1       4.873  -5.746  -0.487  0.00  0.00    +0.202 C 
BRANCH  18  21
ATOM     19  C   UNL     1       3.142  -4.062  -0.813  0.00  0.00    +0.253 C 
ATOM     20  O   UNL     1       2.309  -4.946  -0.738  0.00  0.00    -0.270 OA
ATOM     21  N   UNL     1       4.452  -4.359  -0.700  0.00  0.00    -0.302 N 
ATOM     22  H   UNL     1       5.116  -3.654  -0.760  0.00  0.00    +0.150 HD
BRANCH  19  30
ATOM     23  C   UNL     1       0.024   1.242  -1.712  0.00  0.00    +0.001 A 
ATOM     24  C   UNL     1       1.198   1.984  -1.749  0.00  0.00    +0.001 A 
ATOM     25  C   UNL     1       2.411   1.346  -1.594  0.00  0.00    +0.016 A 
ATOM     26  C   UNL     1       2.441  -0.020  -1.406  0.00  0.00    +0.021 A 
ATOM     27  C   UNL     1       1.262  -0.801  -1.364  0.00  0.00    +0.008 A 
ATOM     28  C   UNL     1       0.038  -0.103  -1.527  0.00  0.00    +0.010 A 
ATOM     29  C   UNL     1       1.459  -2.180  -1.164  0.00  0.00    +0.068 A 
ATOM     30  C   UNL     1       2.720  -2.672  -1.027  0.00  0.00    +0.093 A 
ATOM     31  S   UNL     1       3.736  -1.212  -1.171  0.00  0.00    -0.082 S 
ATOM     32 CL   UNL     1       0.095  -3.252  -1.092  0.00  0.00    -0.082 Cl
ENDBRANCH  19  30
ENDBRANCH  18  21
ENDBRANCH   1  18
TORSDOF 5
