REMARK  Name = ZINC12053650
REMARK  8 active torsions:
REMARK  status: ('A' for Active; 'I' for Inactive)
REMARK    1  A    between atoms: C_1  and  C_2
REMARK    2  A    between atoms: C_4  and  C_31
REMARK    3  A    between atoms: C_8  and  C_30
REMARK    4  A    between atoms: C_9  and  C_12
REMARK    5  A    between atoms: N_14  and  C_15
REMARK    6  A    between atoms: C_15  and  C_16
REMARK    7  A    between atoms: C_19  and  C_22
REMARK    8  A    between atoms: C_22  and  C_23
REMARK                            x       y       z     vdW  Elec       q    Type
REMARK                         _______ _______ _______ _____ _____    ______ ____
ROOT
ATOM      1  C   UNL     1      -1.752   0.381   4.603  0.00  0.00    +0.261 C 
ATOM      2  O   UNL     1      -1.270  -0.734   4.667  0.00  0.00    -0.269 OA
ATOM      3  N   UNL     1      -1.592   1.122   3.488  0.00  0.00    -0.307 N 
ATOM      4  H   UNL     1      -1.977   2.011   3.437  0.00  0.00    +0.149 HD
ENDROOT
BRANCH   1  13
ATOM      5  C   UNL     1      -5.307   1.899  10.967  0.00  0.00    +0.044 C 
ATOM      6  C   UNL     1      -4.744   2.035   9.576  0.00  0.00    -0.050 A 
ATOM      7  C   UNL     1      -4.959   3.206   8.858  0.00  0.00    +0.008 A 
ATOM      8  C   UNL     1      -4.454   3.351   7.585  0.00  0.00    -0.026 A 
ATOM      9  C   UNL     1      -3.721   2.317   7.009  0.00  0.00    +0.050 A 
ATOM     10  C   UNL     1      -3.505   1.132   7.739  0.00  0.00    +0.004 A 
ATOM     11  C   UNL     1      -4.029   1.009   9.032  0.00  0.00    +0.013 A 
ATOM     12  C   UNL     1      -2.740   0.273   6.913  0.00  0.00    -0.013 A 
ATOM     13  C   UNL     1      -2.511   0.921   5.741  0.00  0.00    +0.106 A 
ATOM     14  N   UNL     1      -3.100   2.170   5.792  0.00  0.00    -0.350 N 
ATOM     15  H   UNL     1      -3.080   2.832   5.084  0.00  0.00    +0.166 HD
ATOM     16  C   UNL     1      -2.265  -1.112   7.271  0.00  0.00    +0.047 C 
ATOM     17  C   UNL     1      -4.694   4.626   6.819  0.00  0.00    +0.046 C 
ENDBRANCH   1  13
BRANCH   3  18
ATOM     18  C   UNL     1      -0.836   0.584   2.354  0.00  0.00    +0.152 C 
BRANCH  18  19
ATOM     19  C   UNL     1      -0.804   1.618   1.227  0.00  0.00    +0.227 C 
ATOM     20  C   UNL     1      -0.013   1.086   0.008  0.00  0.00    +0.103 C 
ATOM     21  C   UNL     1      -0.811   1.620  -1.166  0.00  0.00    +0.066 C 
ATOM     22  N   UNL     1      -1.952   2.000  -0.739  0.00  0.00    -0.093 NA
ATOM     23  O   UNL     1      -2.119   1.805   0.651  0.00  0.00    -0.389 OA
BRANCH  21  24
ATOM     24  C   UNL     1      -0.337   1.691  -2.594  0.00  0.00    +0.089 C 
BRANCH  24  25
ATOM     25  C   UNL     1      -1.422   2.284  -3.455  0.00  0.00    -0.042 A 
ATOM     26  C   UNL     1      -2.356   1.459  -4.055  0.00  0.00    +0.007 A 
ATOM     27  C   UNL     1      -3.354   2.002  -4.841  0.00  0.00    +0.038 A 
ATOM     28  C   UNL     1      -3.414   3.371  -5.036  0.00  0.00    +0.123 A 
ATOM     29  C   UNL     1      -2.476   4.196  -4.439  0.00  0.00    +0.038 A 
ATOM     30  C   UNL     1      -1.481   3.651  -3.650  0.00  0.00    +0.007 A 
ATOM     31  F   UNL     1      -4.387   3.902  -5.808  0.00  0.00    -0.205 F 
ENDBRANCH  24  25
ENDBRANCH  21  24
ENDBRANCH  18  19
ENDBRANCH   3  18
TORSDOF 5
