REMARK  Name = ZINC39677653
REMARK  6 active torsions:
REMARK  status: ('A' for Active; 'I' for Inactive)
REMARK    1  A    between atoms: C_5  and  C_7
REMARK    2  A    between atoms: C_10  and  C_12
REMARK    3  A    between atoms: C_12  and  N_13
REMARK    4  A    between atoms: C_14  and  C_16
REMARK    5  A    between atoms: C_27  and  C_29
REMARK    6  A    between atoms: C_29  and  C_30
REMARK                            x       y       z     vdW  Elec       q    Type
REMARK                         _______ _______ _______ _____ _____    ______ ____
ROOT
ATOM      1  C   UNL     1      -0.336  -8.451   2.993  0.00  0.00    +0.100 C 
ATOM      2  C   UNL     1      -1.322  -7.548   3.767  0.00  0.00    +0.121 C 
ATOM      3  N   UNL     1      -2.629  -8.236   3.654  0.00  0.00    -0.300 N 
ATOM      4  C   UNL     1      -2.301  -9.675   3.791  0.00  0.00    +0.115 C 
ATOM      5  C   UNL     1      -0.980  -9.848   3.014  0.00  0.00    -0.004 C 
ATOM      6  C   UNL     1      -0.070 -10.839   3.733  0.00  0.00    -0.010 C 
ATOM      7  C   UNL     1      -0.705 -12.232   3.691  0.00  0.00    -0.082 C 
ATOM      8  N   UNL     1      -0.900 -12.640   2.294  0.00  0.00    +0.379 N 
ATOM      9  C   UNL     1      -1.850 -11.735   1.636  0.00  0.00    -0.082 C 
ATOM     10  C   UNL     1      -1.264 -10.321   1.592  0.00  0.00    -0.010 C 
ATOM     11  C   UNL     1      -3.842  -7.680   3.468  0.00  0.00    +0.220 C 
ATOM     12  O   UNL     1      -4.827  -8.383   3.395  0.00  0.00    -0.275 OA
ATOM     13  H   UNL     1      -0.016 -12.608   1.809  0.00  0.00    -0.086 HD
ATOM     14  H   UNL     1      -1.262 -13.582   2.268  0.00  0.00    -0.086 HD
ENDROOT
BRANCH   1  16
ATOM     15  N   UNL     1       0.966  -8.191   0.906  0.00  0.00    -0.310 N 
ATOM     16  C   UNL     1      -0.182  -7.966   1.575  0.00  0.00    +0.218 C 
ATOM     17  O   UNL     1      -1.092  -7.374   1.034  0.00  0.00    -0.275 OA
ATOM     18  H   UNL     1       1.694  -8.664   1.338  0.00  0.00    +0.149 HD
BRANCH  15  19
ATOM     19  C   UNL     1       1.116  -7.719  -0.473  0.00  0.00    +0.146 C 
BRANCH  19  23
ATOM     20  C   UNL     1       5.061  -8.345  -1.734  0.00  0.00    +0.038 A 
ATOM     21  C   UNL     1       4.184  -9.359  -2.018  0.00  0.00    +0.018 A 
ATOM     22  C   UNL     1       2.870  -9.224  -1.634  0.00  0.00    +0.013 A 
ATOM     23  C   UNL     1       2.482  -8.095  -0.987  0.00  0.00    +0.007 A 
ATOM     24  S   UNL     1       4.008  -7.172  -0.896  0.00  0.00    -0.090 S 
BRANCH  20  29
ATOM     25  C   UNL     1       8.569  -7.042  -1.940  0.00  0.00    +0.004 A 
ATOM     26  C   UNL     1       9.162  -8.103  -2.611  0.00  0.00    +0.020 A 
ATOM     27  C   UNL     1       8.395  -9.196  -2.966  0.00  0.00    +0.111 A 
ATOM     28  N   UNL     1       7.110  -9.244  -2.677  0.00  0.00    -0.254 NA
ATOM     29  C   UNL     1       6.503  -8.250  -2.037  0.00  0.00    +0.078 A 
ATOM     30  C   UNL     1       7.220  -7.116  -1.649  0.00  0.00    +0.029 A 
ENDBRANCH  20  29
ENDBRANCH  19  23
ENDBRANCH  15  19
ENDBRANCH   1  16
BRANCH  11  31
ATOM     31  C   UNL     1      -3.975  -6.183   3.350  0.00  0.00    +0.131 C 
BRANCH  31  32
ATOM     32  C   UNL     1      -5.424  -5.822   3.149  0.00  0.00    -0.039 A 
ATOM     33  C   UNL     1      -5.945  -5.742   1.871  0.00  0.00    +0.005 A 
ATOM     34  C   UNL     1      -7.274  -5.410   1.685  0.00  0.00    +0.020 A 
ATOM     35  C   UNL     1      -8.083  -5.158   2.779  0.00  0.00    +0.041 A 
ATOM     36  C   UNL     1      -7.561  -5.238   4.058  0.00  0.00    +0.020 A 
ATOM     37  C   UNL     1      -6.233  -5.576   4.242  0.00  0.00    +0.005 A 
ATOM     38 CL   UNL     1      -9.752  -4.741   2.547  0.00  0.00    -0.084 Cl
ENDBRANCH  31  32
ENDBRANCH  11  31
TORSDOF 6
