REMARK  Name = ZINC02368859
REMARK  10 active torsions:
REMARK  status: ('A' for Active; 'I' for Inactive)
REMARK    1  A    between atoms: C_1  and  C_2
REMARK    2  A    between atoms: C_2  and  N_3
REMARK    3  A    between atoms: C_7  and  C_29
REMARK    4  A    between atoms: C_8  and  C_28
REMARK    5  A    between atoms: C_12  and  S_13
REMARK    6  A    between atoms: S_13  and  C_14
REMARK    7  A    between atoms: C_14  and  C_15
REMARK    8  A    between atoms: N_17  and  C_18
REMARK    9  A    between atoms: C_21  and  S_24
REMARK   10  A    between atoms: S_24  and  N_27
REMARK                            x       y       z     vdW  Elec       q    Type
REMARK                         _______ _______ _______ _____ _____    ______ ____
ROOT
ATOM      1  C   UNL     1      -3.504   4.578   6.712  0.00  0.00    +0.173 C 
ENDROOT
BRANCH   1   2
ATOM      2  C   UNL     1      -2.806   4.216   5.426  0.00  0.00    +0.227 C 
ATOM      3  O   UNL     1      -2.000   4.979   4.938  0.00  0.00    -0.275 OA
ATOM      4  N   UNL     1      -3.077   3.043   4.819  0.00  0.00    -0.285 N 
ATOM      5  H   UNL     1      -3.776   2.468   5.167  0.00  0.00    +0.155 HD
BRANCH   4   6
ATOM      6  C   UNL     1      -2.351   2.656   3.688  0.00  0.00    +0.034 A 
ATOM      7  C   UNL     1      -1.014   3.011   3.565  0.00  0.00    +0.025 A 
ATOM      8  C   UNL     1      -0.299   2.627   2.447  0.00  0.00    +0.030 A 
ATOM      9  C   UNL     1      -0.914   1.891   1.451  0.00  0.00    +0.105 A 
ATOM     10  C   UNL     1      -2.247   1.541   1.568  0.00  0.00    +0.030 A 
ATOM     11  C   UNL     1      -2.965   1.917   2.686  0.00  0.00    +0.025 A 
BRANCH   9  12
ATOM     12  S   UNL     1       0.001   1.403   0.026  0.00  0.00    +0.056 S 
ATOM     13  O   UNL     1       1.076   2.324  -0.101  0.00  0.00    -0.153 OA
ATOM     14  O   UNL     1      -0.946   1.190  -1.011  0.00  0.00    -0.153 OA
BRANCH  12  15
ATOM     15  N   UNL     1       0.678  -0.071   0.360  0.00  0.00    -0.204 NA
ATOM     16  H   UNL     1       0.526  -0.491   1.221  0.00  0.00    +0.144 HD
ATOM     17  H   UNL     1       1.227  -0.515  -0.306  0.00  0.00    +0.144 HD
ENDBRANCH  12  15
ENDBRANCH   9  12
ENDBRANCH   4   6
ENDBRANCH   1   2
BRANCH   1  18
ATOM     18  S   UNL     1      -2.930   6.201   7.273  0.00  0.00    -0.078 S 
BRANCH  18  28
ATOM     19  N   UNL     1      -3.749   7.492   9.509  0.00  0.00    -0.288 N 
ATOM     20  C   UNL     1      -4.458   7.655  10.642  0.00  0.00    +0.263 A 
ATOM     21  O   UNL     1      -4.328   8.666  11.312  0.00  0.00    -0.267 OA
ATOM     22  C   UNL     1      -5.366   6.628  11.049  0.00  0.00    +0.075 A 
ATOM     23  C   UNL     1      -6.229   6.574  12.216  0.00  0.00    -0.026 A 
ATOM     24  C   UNL     1      -7.009   5.499  12.405  0.00  0.00    -0.008 A 
ATOM     25  S   UNL     1      -6.633   4.463  11.003  0.00  0.00    -0.073 S 
ATOM     26  C   UNL     1      -5.438   5.504  10.204  0.00  0.00    +0.117 A 
ATOM     27  N   UNL     1      -4.713   5.408   9.097  0.00  0.00    -0.216 NA
ATOM     28  C   UNL     1      -3.881   6.368   8.747  0.00  0.00    +0.173 A 
ATOM     29  C   UNL     1      -7.972   5.230  13.532  0.00  0.00    +0.052 C 
ATOM     30  C   UNL     1      -6.249   7.712  13.203  0.00  0.00    +0.045 C 
BRANCH  19  32
ATOM     31  C   UNL     1      -3.548   9.540   8.188  0.00  0.00    +0.027 C 
ATOM     32  C   UNL     1      -2.818   8.541   9.087  0.00  0.00    +0.124 C 
ENDBRANCH  19  32
ENDBRANCH  18  28
ENDBRANCH   1  18
TORSDOF 7
