REMARK  Name = ZINC67512071
REMARK  4 active torsions:
REMARK  status: ('A' for Active; 'I' for Inactive)
REMARK    1  A    between atoms: C_4  and  C_7
REMARK    2  A    between atoms: C_10  and  N_12
REMARK    3  A    between atoms: C_13  and  C_15
REMARK    4  A    between atoms: C_15  and  N_16
REMARK                            x       y       z     vdW  Elec       q    Type
REMARK                         _______ _______ _______ _____ _____    ______ ____
ROOT
ATOM      1  N   UNL     1       2.818  -2.631  -5.829  0.00  0.00    -0.215 N 
ATOM      2  C   UNL     1       3.293  -1.768  -6.754  0.00  0.00    +0.251 C 
ATOM      3  O   UNL     1       3.297  -0.557  -6.697  0.00  0.00    -0.272 OA
ATOM      4  C   UNL     1       3.817  -2.633  -7.870  0.00  0.00    +0.138 C 
ATOM      5  C   UNL     1       5.313  -2.388  -8.107  0.00  0.00    +0.045 C 
ATOM      6  C   UNL     1       5.295  -1.364  -9.265  0.00  0.00    +0.038 C 
ATOM      7  C   UNL     1       3.982  -1.599  -9.983  0.00  0.00    -0.042 A 
ATOM      8  C   UNL     1       3.130  -2.332  -9.175  0.00  0.00    -0.012 A 
ATOM      9  C   UNL     1       1.866  -2.663  -9.633  0.00  0.00    +0.006 A 
ATOM     10  C   UNL     1       1.454  -2.267 -10.890  0.00  0.00    +0.000 A 
ATOM     11  C   UNL     1       2.305  -1.535 -11.696  0.00  0.00    +0.000 A 
ATOM     12  C   UNL     1       3.567  -1.202 -11.242  0.00  0.00    +0.004 A 
ATOM     13  N   UNL     1       3.564  -4.004  -7.425  0.00  0.00    -0.281 N 
ATOM     14  C   UNL     1       2.980  -3.904  -6.214  0.00  0.00    +0.310 C 
ATOM     15  O   UNL     1       2.637  -4.860  -5.547  0.00  0.00    -0.252 OA
ATOM     16  H   UNL     1       3.776  -4.820  -7.904  0.00  0.00    +0.152 HD
ENDROOT
BRANCH   1  17
ATOM     17  C   UNL     1       2.208  -2.225  -4.560  0.00  0.00    +0.213 C 
BRANCH  17  19
ATOM     18  N   UNL     1       2.945  -1.750  -2.248  0.00  0.00    -0.311 N 
ATOM     19  C   UNL     1       3.276  -2.112  -3.503  0.00  0.00    +0.231 C 
ATOM     20  O   UNL     1       4.433  -2.348  -3.781  0.00  0.00    -0.274 OA
ATOM     21  H   UNL     1       2.020  -1.561  -2.025  0.00  0.00    +0.149 HD
BRANCH  18  24
ATOM     22  C   UNL     1       3.711  -0.707  -0.038  0.00  0.00    +0.041 C 
ATOM     23  C   UNL     1       3.675  -2.224   0.162  0.00  0.00    +0.033 C 
ATOM     24  C   UNL     1       3.983  -1.640  -1.219  0.00  0.00    +0.081 C 
BRANCH  22  28
ATOM     25  C   UNL     1      -0.017   1.378   0.010  0.00  0.00    +0.000 A 
ATOM     26  C   UNL     1       1.171   2.086   0.002  0.00  0.00    +0.000 A 
ATOM     27  C   UNL     1       2.377   1.411  -0.013  0.00  0.00    +0.004 A 
ATOM     28  C   UNL     1       2.396   0.029  -0.020  0.00  0.00    -0.042 A 
ATOM     29  C   UNL     1       1.208  -0.679  -0.012  0.00  0.00    +0.004 A 
ATOM     30  C   UNL     1       0.002  -0.004   0.002  0.00  0.00    +0.000 A 
ENDBRANCH  22  28
ENDBRANCH  18  24
ENDBRANCH  17  19
ENDBRANCH   1  17
TORSDOF 4
