REMARK  Name = ZINC19757943
REMARK  9 active torsions:
REMARK  status: ('A' for Active; 'I' for Inactive)
REMARK    1  A    between atoms: C_1  and  C_2
REMARK    2  A    between atoms: C_2  and  N_3
REMARK    3  A    between atoms: N_3  and  C_4
REMARK    4  A    between atoms: C_4  and  C_5
REMARK    5  A    between atoms: C_6  and  C_8
REMARK    6  A    between atoms: C_8  and  N_9
REMARK    7  A    between atoms: C_11  and  C_20
REMARK    8  A    between atoms: C_11  and  C_21
REMARK    9  A    between atoms: C_17  and  N_19
REMARK                            x       y       z     vdW  Elec       q    Type
REMARK                         _______ _______ _______ _____ _____    ______ ____
ROOT
ATOM      1  N   UNL     1      -0.282  -1.361  -4.653  0.00  0.00    -0.314 N 
ATOM      2  C   UNL     1      -0.984  -2.640  -4.852  0.00  0.00    +0.153 C 
ATOM      3  C   UNL     1      -1.021  -2.918  -6.362  0.00  0.00    +0.121 C 
ATOM      4  O   UNL     1      -1.684  -1.832  -7.014  0.00  0.00    -0.483 OA
ATOM      5  C   UNL     1      -1.280  -0.570  -6.712  0.00  0.00    +0.144 A 
ATOM      6  C   UNL     1      -0.584  -0.305  -5.533  0.00  0.00    +0.073 A 
ATOM      7  C   UNL     1      -0.186   0.986  -5.230  0.00  0.00    +0.028 A 
ATOM      8  C   UNL     1      -0.481   2.022  -6.097  0.00  0.00    +0.025 A 
ATOM      9  C   UNL     1      -1.175   1.767  -7.272  0.00  0.00    +0.028 A 
ATOM     10  C   UNL     1      -1.568   0.468  -7.584  0.00  0.00    +0.070 A 
ATOM     11  C   UNL     1       0.407  -3.042  -6.896  0.00  0.00    +0.057 C 
ATOM     12  C   UNL     1      -1.784  -4.217  -6.625  0.00  0.00    +0.057 C 
ENDROOT
BRANCH   9  13
ATOM     13  N   UNL     1      -1.472   2.816  -8.150  0.00  0.00    -0.358 N 
ATOM     14  H   UNL     1      -1.192   3.720  -7.937  0.00  0.00    +0.142 HD
ATOM     15  H   UNL     1      -1.957   2.639  -8.971  0.00  0.00    +0.142 HD
ENDBRANCH   9  13
BRANCH   1  16
ATOM     16  C   UNL     1       0.692  -1.190  -3.572  0.00  0.00    +0.201 C 
BRANCH  16  18
ATOM     17  N   UNL     1       0.688  -0.476  -1.203  0.00  0.00    -0.301 N 
ATOM     18  C   UNL     1      -0.013  -0.705  -2.332  0.00  0.00    +0.233 C 
ATOM     19  O   UNL     1      -1.211  -0.518  -2.349  0.00  0.00    -0.274 OA
BRANCH  17  21
ATOM     20  C   UNL     1      -0.019   1.526   0.010  0.00  0.00    +0.024 C 
ATOM     21  C   UNL     1       0.002  -0.004   0.002  0.00  0.00    +0.104 C 
ENDBRANCH  17  21
BRANCH  17  22
ATOM     22  C   UNL     1       2.135  -0.701  -1.182  0.00  0.00    +0.104 C 
ATOM     23  C   UNL     1       2.421  -2.145  -0.763  0.00  0.00    +0.024 C 
ENDBRANCH  17  22
ENDBRANCH  16  18
ENDBRANCH   1  16
TORSDOF 5
