REMARK  Name = ZINC09152105
REMARK  11 active torsions:
REMARK  status: ('A' for Active; 'I' for Inactive)
REMARK    1  A    between atoms: C_1  and  C_2
REMARK    2  A    between atoms: C_5  and  N_8
REMARK    3  A    between atoms: C_9  and  C_11
REMARK    4  A    between atoms: C_11  and  S_12
REMARK    5  A    between atoms: S_12  and  C_13
REMARK    6  A    between atoms: C_16  and  S_20
REMARK    7  A    between atoms: C_17  and  N_19
REMARK    8  A    between atoms: S_20  and  C_23
REMARK    9  A    between atoms: C_26  and  C_29
REMARK   10  A    between atoms: C_29  and  C_30
REMARK   11  A    between atoms: C_29  and  C_31
REMARK                            x       y       z     vdW  Elec       q    Type
REMARK                         _______ _______ _______ _____ _____    ______ ____
ROOT
ATOM      1  C   UNL     1       0.557   5.582   4.431  0.00  0.00    +0.190 A 
ATOM      2  N   UNL     1       1.644   5.667   3.676  0.00  0.00    -0.228 NA
ATOM      3  C   UNL     1       1.673   5.138   2.462  0.00  0.00    +0.144 A 
ATOM      4  C   UNL     1       0.552   4.490   1.980  0.00  0.00    +0.151 A 
ATOM      5  C   UNL     1      -0.580   4.421   2.795  0.00  0.00    +0.146 A 
ATOM      6  N   UNL     1      -0.538   4.969   4.005  0.00  0.00    -0.205 NA
ENDROOT
BRANCH   5   7
ATOM      7  N   UNL     1      -1.728   3.785   2.350  0.00  0.00    -0.342 N 
ATOM      8  H   UNL     1      -1.740   3.359   1.479  0.00  0.00    +0.144 HD
ATOM      9  H   UNL     1      -2.520   3.767   2.910  0.00  0.00    +0.144 HD
ENDBRANCH   5   7
BRANCH   4  10
ATOM     10  S   UNL     1       0.548   3.774   0.370  0.00  0.00    +0.030 S 
ATOM     11  O   UNL     1       1.839   4.002  -0.179  0.00  0.00    -0.164 OA
ATOM     12  O   UNL     1      -0.641   4.218  -0.269  0.00  0.00    -0.164 OA
BRANCH  10  13
ATOM     13  C   UNL     1       0.389   2.031   0.576  0.00  0.00    +0.094 A 
ATOM     14  C   UNL     1      -0.854   1.434   0.478  0.00  0.00    +0.027 A 
ATOM     15  C   UNL     1      -0.979   0.067   0.639  0.00  0.00    +0.006 A 
ATOM     16  C   UNL     1       0.139  -0.704   0.898  0.00  0.00    -0.045 A 
ATOM     17  C   UNL     1       1.382  -0.107   0.995  0.00  0.00    +0.006 A 
ATOM     18  C   UNL     1       1.507   1.260   0.833  0.00  0.00    +0.027 A 
BRANCH  16  19
ATOM     19  C   UNL     1       0.003  -2.194   1.074  0.00  0.00    +0.013 C 
ATOM     20  C   UNL     1       0.841  -2.912   0.014  0.00  0.00    +0.012 C 
ATOM     21  C   UNL     1       0.495  -2.590   2.468  0.00  0.00    +0.012 C 
ENDBRANCH  16  19
ENDBRANCH  10  13
ENDBRANCH   4  10
BRANCH   1  22
ATOM     22  S   UNL     1       0.569   6.302   6.039  0.00  0.00    -0.077 S 
BRANCH  22  23
ATOM     23  C   UNL     1       2.251   6.968   6.072  0.00  0.00    +0.173 C 
BRANCH  23  25
ATOM     24  N   UNL     1       3.688   8.225   7.646  0.00  0.00    -0.285 N 
ATOM     25  C   UNL     1       2.495   7.651   7.394  0.00  0.00    +0.227 C 
ATOM     26  O   UNL     1       1.617   7.683   8.230  0.00  0.00    -0.275 OA
ATOM     27  H   UNL     1       4.365   8.261   6.952  0.00  0.00    +0.155 HD
BRANCH  24  32
ATOM     28  C   UNL     1       4.748  10.434  12.762  0.00  0.00    +0.044 C 
ATOM     29  C   UNL     1       4.467   9.848  11.403  0.00  0.00    -0.050 A 
ATOM     30  C   UNL     1       3.671   8.722  11.289  0.00  0.00    +0.005 A 
ATOM     31  C   UNL     1       3.411   8.182  10.045  0.00  0.00    +0.023 A 
ATOM     32  C   UNL     1       3.950   8.770   8.908  0.00  0.00    +0.033 A 
ATOM     33  C   UNL     1       4.753   9.896   9.026  0.00  0.00    +0.023 A 
ATOM     34  C   UNL     1       5.004  10.435  10.273  0.00  0.00    +0.005 A 
ENDBRANCH  24  32
ENDBRANCH  23  25
ENDBRANCH  22  23
ENDBRANCH   1  22
TORSDOF 8
