REMARK  Name = ZINC09192026
REMARK  7 active torsions:
REMARK  status: ('A' for Active; 'I' for Inactive)
REMARK    1  A    between atoms: C_5  and  C_7
REMARK    2  A    between atoms: C_7  and  O_8
REMARK    3  A    between atoms: O_8  and  C_9
REMARK    4  A    between atoms: C_12  and  C_16
REMARK    5  A    between atoms: C_13  and  O_15
REMARK    6  A    between atoms: C_17  and  O_22
REMARK    7  A    between atoms: O_22  and  C_23
REMARK                            x       y       z     vdW  Elec       q    Type
REMARK                         _______ _______ _______ _____ _____    ______ ____
ROOT
ATOM      1  C   UNL     1      -0.237  -4.078  -0.823  0.00  0.00    +0.124 A 
ATOM      2  C   UNL     1       0.869  -4.896  -0.626  0.00  0.00    +0.046 A 
ATOM      3  C   UNL     1       0.705  -6.256  -0.469  0.00  0.00    +0.017 A 
ATOM      4  C   UNL     1      -0.571  -6.814  -0.506  0.00  0.00    +0.047 A 
ATOM      5  C   UNL     1      -1.684  -5.990  -0.705  0.00  0.00    +0.130 A 
ATOM      6  C   UNL     1      -1.511  -4.625  -0.857  0.00  0.00    +0.091 A 
ENDROOT
BRANCH   4   7
ATOM      7  C   UNL     1      -0.750  -8.276  -0.338  0.00  0.00    +0.138 A 
ATOM      8  C   UNL     1       0.280  -9.218  -0.127  0.00  0.00    +0.173 A 
ATOM      9  C   UNL     1      -0.292 -10.441  -0.024  0.00  0.00    +0.151 A 
ATOM     10  N   UNL     1      -1.635 -10.285  -0.164  0.00  0.00    -0.280 N 
ATOM     11  H   UNL     1      -2.297 -10.993  -0.134  0.00  0.00    +0.188 HD
ATOM     12  N   UNL     1      -1.897  -8.922  -0.353  0.00  0.00    -0.170 NA
BRANCH   8  13
ATOM     13  O   UNL     1       1.611  -8.945  -0.042  0.00  0.00    -0.451 OA
BRANCH  13  14
ATOM     14  C   UNL     1       2.472  -9.992   0.056  0.00  0.00    +0.142 A 
ATOM     15  C   UNL     1       2.893 -10.431   1.303  0.00  0.00    +0.047 A 
ATOM     16  C   UNL     1       3.767 -11.496   1.401  0.00  0.00    +0.004 A 
ATOM     17  C   UNL     1       4.224 -12.125   0.257  0.00  0.00    +0.001 A 
ATOM     18  C   UNL     1       3.807 -11.690  -0.988  0.00  0.00    +0.019 A 
ATOM     19  C   UNL     1       2.928 -10.629  -1.091  0.00  0.00    +0.060 A 
ATOM     20 BR   UNL     1       2.351 -10.039  -2.793  0.00  0.00    -0.046 Br
ENDBRANCH  13  14
ENDBRANCH   8  13
ENDBRANCH   4   7
BRANCH   5  21
ATOM     21  O   UNL     1      -2.931  -6.527  -0.743  0.00  0.00    -0.506 OA
ATOM     22  H   UNL     1      -3.366  -6.572   0.120  0.00  0.00    +0.292 HD
ENDBRANCH   5  21
BRANCH   1  23
ATOM     23  O   UNL     1      -0.069  -2.739  -0.978  0.00  0.00    -0.487 OA
BRANCH  23  24
ATOM     24  C   UNL     1       1.270  -2.243  -0.932  0.00  0.00    +0.267 C 
BRANCH  24  29
ATOM     25  C   UNL     1       0.050   1.289  -1.474  0.00  0.00    +0.001 A 
ATOM     26  C   UNL     1       1.238   1.997  -1.467  0.00  0.00    +0.003 A 
ATOM     27  C   UNL     1       2.437   1.334  -1.288  0.00  0.00    +0.039 A 
ATOM     28  C   UNL     1       2.449  -0.040  -1.114  0.00  0.00    +0.130 A 
ATOM     29  C   UNL     1       1.259  -0.748  -1.121  0.00  0.00    +0.025 A 
ATOM     30  C   UNL     1       0.061  -0.083  -1.301  0.00  0.00    +0.010 A 
ATOM     31  F   UNL     1       3.620  -0.689  -0.938  0.00  0.00    -0.205 F 
ENDBRANCH  24  29
ENDBRANCH  23  24
ENDBRANCH   1  23
TORSDOF 7
