REMARK  Name = ZINC36207600
REMARK  13 active torsions:
REMARK  status: ('A' for Active; 'I' for Inactive)
REMARK    1  A    between atoms: C_1  and  C_2
REMARK    2  A    between atoms: C_2  and  C_3
REMARK    3  A    between atoms: C_2  and  C_4
REMARK    4  A    between atoms: C_4  and  N_5
REMARK    5  A    between atoms: N_5  and  C_6
REMARK    6  A    between atoms: N_5  and  C_24
REMARK    7  A    between atoms: C_6  and  C_7
REMARK    8  A    between atoms: C_13  and  C_18
REMARK    9  A    between atoms: C_24  and  C_25
REMARK   10  A    between atoms: C_25  and  C_27
REMARK   11  A    between atoms: C_25  and  O_36
REMARK   12  A    between atoms: C_27  and  O_28
REMARK   13  A    between atoms: O_28  and  C_29
REMARK                            x       y       z     vdW  Elec       q    Type
REMARK                         _______ _______ _______ _____ _____    ______ ____
ROOT
ATOM      1  N   UNL     1      -0.898  -2.312   0.157  0.00  0.00    +0.386 N 
ATOM      2  H   UNL     1      -0.162  -1.757  -0.252  0.00  0.00    -0.081 HD
ENDROOT
BRANCH   1   3
ATOM      3  C   UNL     1      -1.445  -1.613   1.327  0.00  0.00    -0.075 C 
BRANCH   3   5
ATOM      4  C   UNL     1      -2.639   0.448   2.080  0.00  0.00    +0.005 C 
ATOM      5  C   UNL     1      -1.879  -0.203   0.923  0.00  0.00    -0.034 C 
ATOM      6  C   UNL     1      -0.643   0.635   0.589  0.00  0.00    +0.005 C 
ENDBRANCH   3   5
ENDBRANCH   1   3
BRANCH   1   7
ATOM      7  C   UNL     1      -1.964  -2.517  -0.833  0.00  0.00    -0.003 C 
BRANCH   7   8
ATOM      8  C   UNL     1      -2.034  -1.323  -1.750  0.00  0.00    +0.094 A 
ATOM      9  N   UNL     1      -3.062  -1.218  -2.632  0.00  0.00    -0.312 N 
ATOM     10  H   UNL     1      -3.737  -1.913  -2.659  0.00  0.00    +0.170 HD
ATOM     11  C   UNL     1      -3.161  -0.168  -3.467  0.00  0.00    +0.260 A 
ATOM     12  O   UNL     1      -4.090  -0.087  -4.253  0.00  0.00    -0.267 OA
ATOM     13  C   UNL     1      -2.160   0.854  -3.420  0.00  0.00    +0.080 A 
ATOM     14  C   UNL     1      -2.048   2.074  -4.211  0.00  0.00    +0.004 A 
ATOM     15  C   UNL     1      -0.999   2.902  -3.987  0.00  0.00    +0.056 A 
ATOM     16  S   UNL     1      -0.096   2.082  -2.687  0.00  0.00    -0.076 S 
ATOM     17  C   UNL     1      -1.137   0.660  -2.478  0.00  0.00    +0.116 A 
ATOM     18  N   UNL     1      -1.109  -0.404  -1.680  0.00  0.00    -0.229 NA
BRANCH  14  19
ATOM     19  C   UNL     1      -3.062   2.401  -5.242  0.00  0.00    -0.017 A 
ATOM     20  C   UNL     1      -3.432   1.446  -6.188  0.00  0.00    +0.008 A 
ATOM     21  C   UNL     1      -4.376   1.756  -7.145  0.00  0.00    +0.001 A 
ATOM     22  C   UNL     1      -4.956   3.012  -7.167  0.00  0.00    +0.000 A 
ATOM     23  C   UNL     1      -4.592   3.964  -6.231  0.00  0.00    +0.001 A 
ATOM     24  C   UNL     1      -3.653   3.663  -5.266  0.00  0.00    +0.008 A 
ENDBRANCH  14  19
ENDBRANCH   7   8
ENDBRANCH   1   7
BRANCH   1  25
ATOM     25  C   UNL     1      -0.359  -3.614   0.571  0.00  0.00    -0.043 C 
BRANCH  25  26
ATOM     26  C   UNL     1       0.914  -3.400   1.393  0.00  0.00    +0.135 C 
BRANCH  26  27
ATOM     27  O   UNL     1       0.581  -2.775   2.634  0.00  0.00    -0.390 OA
ATOM     28  H   UNL     1       0.033  -3.321   3.215  0.00  0.00    +0.210 HD
ENDBRANCH  26  27
BRANCH  26  29
ATOM     29  C   UNL     1       1.579  -4.751   1.664  0.00  0.00    +0.258 C 
BRANCH  29  30
ATOM     30  O   UNL     1       2.826  -4.543   2.330  0.00  0.00    -0.489 OA
BRANCH  30  31
ATOM     31  C   UNL     1       3.550  -5.650   2.646  0.00  0.00    +0.121 A 
ATOM     32  C   UNL     1       3.071  -6.909   2.316  0.00  0.00    +0.047 A 
ATOM     33  C   UNL     1       3.807  -8.033   2.638  0.00  0.00    +0.023 A 
ATOM     34  C   UNL     1       5.021  -7.903   3.289  0.00  0.00    +0.041 A 
ATOM     35  C   UNL     1       5.500  -6.647   3.619  0.00  0.00    +0.023 A 
ATOM     36  C   UNL     1       4.770  -5.521   3.292  0.00  0.00    +0.047 A 
ATOM     37 CL   UNL     1       5.944  -9.316   3.693  0.00  0.00    -0.084 Cl
ENDBRANCH  30  31
ENDBRANCH  29  30
ENDBRANCH  26  29
ENDBRANCH  25  26
ENDBRANCH   1  25
TORSDOF 11
