REMARK  Name = ZINC32634589
REMARK  9 active torsions:
REMARK  status: ('A' for Active; 'I' for Inactive)
REMARK    1  A    between atoms: C_1  and  C_2
REMARK    2  A    between atoms: C_2  and  C_3
REMARK    3  A    between atoms: C_2  and  C_4
REMARK    4  A    between atoms: C_2  and  O_5
REMARK    5  A    between atoms: O_5  and  C_6
REMARK    6  A    between atoms: N_8  and  C_9
REMARK    7  A    between atoms: C_9  and  C_10
REMARK    8  A    between atoms: C_10  and  N_12
REMARK    9  A    between atoms: N_14  and  C_25
REMARK                            x       y       z     vdW  Elec       q    Type
REMARK                         _______ _______ _______ _____ _____    ______ ____
ROOT
ATOM      1  N   UNL     1       5.829  -0.391  -4.263  0.00  0.00    -0.157 NA
ATOM      2  C   UNL     1       6.330  -0.985  -5.339  0.00  0.00    +0.154 C 
ATOM      3  N   UNL     1       5.649  -1.805  -6.244  0.00  0.00    -0.276 N 
ATOM      4  C   UNL     1       6.530  -2.821  -6.747  0.00  0.00    +0.116 C 
ATOM      5  C   UNL     1       6.165  -3.878  -7.766  0.00  0.00    +0.190 C 
ATOM      6  S   UNL     1       7.859  -4.410  -8.300  0.00  0.00    -0.028 S 
ATOM      7  O   UNL     1       8.144  -5.684  -7.739  0.00  0.00    -0.174 OA
ATOM      8  O   UNL     1       7.985  -4.217  -9.702  0.00  0.00    -0.174 OA
ATOM      9  C   UNL     1       8.860  -3.120  -7.417  0.00  0.00    +0.182 C 
ATOM     10  C   UNL     1       7.764  -2.030  -7.332  0.00  0.00    +0.097 C 
ATOM     11  S   UNL     1       7.926  -0.901  -5.904  0.00  0.00    -0.086 S 
ENDROOT
BRANCH   3  12
ATOM     12  C   UNL     1       4.306  -1.657  -6.606  0.00  0.00    +0.037 A 
ATOM     13  C   UNL     1       3.892  -0.523  -7.293  0.00  0.00    +0.023 A 
ATOM     14  C   UNL     1       2.566  -0.379  -7.650  0.00  0.00    +0.003 A 
ATOM     15  C   UNL     1       1.650  -1.363  -7.324  0.00  0.00    +0.015 A 
ATOM     16  C   UNL     1       2.059  -2.494  -6.640  0.00  0.00    +0.020 A 
ATOM     17  C   UNL     1       3.386  -2.646  -6.285  0.00  0.00    +0.038 A 
ATOM     18 BR   UNL     1       0.802  -3.836  -6.196  0.00  0.00    -0.050 Br
ENDBRANCH   3  12
BRANCH   1  19
ATOM     19  C   UNL     1       4.583  -0.654  -3.877  0.00  0.00    +0.255 C 
ATOM     20  O   UNL     1       4.230  -1.805  -3.707  0.00  0.00    -0.272 OA
BRANCH  19  21
ATOM     21  C   UNL     1       3.610   0.474  -3.650  0.00  0.00    +0.205 C 
BRANCH  21  24
ATOM     22  C   UNL     1       1.286   0.756  -2.973  0.00  0.00    +0.401 C 
ATOM     23  O   UNL     1       1.430   1.958  -3.083  0.00  0.00    -0.226 OA
ATOM     24  N   UNL     1       2.316  -0.073  -3.233  0.00  0.00    -0.272 N 
ATOM     25  H   UNL     1       2.201  -1.032  -3.145  0.00  0.00    +0.153 HD
BRANCH  22  26
ATOM     26  O   UNL     1       0.097   0.253  -2.590  0.00  0.00    -0.445 OA
BRANCH  26  28
ATOM     27  C   UNL     1      -1.235   2.000  -3.597  0.00  0.00    +0.055 C 
ATOM     28  C   UNL     1      -0.950   1.190  -2.331  0.00  0.00    +0.107 C 
ATOM     29  C   UNL     1      -0.522   2.135  -1.206  0.00  0.00    +0.055 C 
ATOM     30  C   UNL     1      -2.215   0.438  -1.911  0.00  0.00    +0.055 C 
ENDBRANCH  26  28
ENDBRANCH  22  26
ENDBRANCH  21  24
ENDBRANCH  19  21
ENDBRANCH   1  19
TORSDOF 6
