REMARK  Name = ZINC16006915
REMARK  4 active torsions:
REMARK  status: ('A' for Active; 'I' for Inactive)
REMARK    1  A    between atoms: C_21  and  C_32
REMARK    2  A    between atoms: C_23  and  C_25
REMARK    3  A    between atoms: C_25  and  C_27
REMARK    4  A    between atoms: C_32  and  C_34
REMARK                            x       y       z     vdW  Elec       q    Type
REMARK                         _______ _______ _______ _____ _____    ______ ____
ROOT
ATOM      1  C   UNL     1       1.188   3.155   0.039  0.00  0.00    +0.001 A 
ATOM      2  C   UNL     1       1.185   1.771   0.000  0.00  0.00    +0.000 A 
ATOM      3  C   UNL     1      -0.013   1.076   0.008  0.00  0.00    +0.006 A 
ATOM      4  C   UNL     1      -1.216   1.750   0.010  0.00  0.00    -0.020 A 
ATOM      5  C   UNL     1      -1.216   3.150   0.069  0.00  0.00    -0.019 A 
ATOM      6  C   UNL     1      -0.004   3.846   0.083  0.00  0.00    +0.008 A 
ATOM      7  C   UNL     1      -2.481   3.904   0.163  0.00  0.00    +0.022 C 
ATOM      8  C   UNL     1      -3.648   3.285  -0.074  0.00  0.00    +0.054 C 
ATOM      9  C   UNL     1      -2.520   1.012  -0.024  0.00  0.00    +0.107 C 
ATOM     10  C   UNL     1      -2.565  -0.153  -1.008  0.00  0.00    +0.107 C 
ATOM     11  C   UNL     1      -1.298  -0.363  -1.767  0.00  0.00    -0.008 A 
ATOM     12  C   UNL     1      -0.576   0.460  -2.605  0.00  0.00    +0.006 A 
ATOM     13  C   UNL     1       0.586  -0.063  -3.166  0.00  0.00    +0.000 A 
ATOM     14  C   UNL     1       0.993  -1.356  -2.900  0.00  0.00    +0.002 A 
ATOM     15  C   UNL     1       0.266  -2.195  -2.071  0.00  0.00    +0.023 A 
ATOM     16  C   UNL     1      -0.899  -1.681  -1.502  0.00  0.00    +0.038 A 
ATOM     17  N   UNL     1      -1.801  -2.295  -0.652  0.00  0.00    -0.284 N 
ATOM     18  C   UNL     1      -2.791  -1.455  -0.277  0.00  0.00    +0.231 C 
ATOM     19  O   UNL     1      -3.672  -1.706   0.519  0.00  0.00    -0.274 OA
ATOM     20  C   UNL     1      -3.720   0.151  -1.980  0.00  0.00    +0.108 C 
ATOM     21  C   UNL     1      -4.569   1.202  -1.223  0.00  0.00    +0.143 C 
ATOM     22  H   UNL     1      -1.729  -3.215  -0.357  0.00  0.00    +0.155 HD
ATOM     23  N   UNL     1      -3.746   1.766  -0.125  0.00  0.00    -0.383 NA
ATOM     24  H   UNL     1      -4.256   1.532   0.734  0.00  0.00    +0.127 HD
ENDROOT
BRANCH  21  25
ATOM     25  C   UNL     1      -5.612   0.555  -0.351  0.00  0.00    +0.217 C 
ATOM     26  O   UNL     1      -5.458   0.516   0.853  0.00  0.00    -0.287 OA
BRANCH  25  27
ATOM     27  C   UNL     1      -6.770  -0.008  -0.934  0.00  0.00    +0.172 A 
ATOM     28  C   UNL     1      -7.801  -0.630  -0.259  0.00  0.00    +0.053 A 
ATOM     29  C   UNL     1      -8.729  -1.030  -1.230  0.00  0.00    +0.042 A 
ATOM     30  C   UNL     1      -8.242  -0.646  -2.432  0.00  0.00    +0.196 A 
ATOM     31  O   UNL     1      -7.068  -0.029  -2.251  0.00  0.00    -0.460 OA
ENDBRANCH  25  27
ENDBRANCH  21  25
BRANCH  20  32
ATOM     32  C   UNL     1      -4.524  -1.079  -2.298  0.00  0.00    +0.172 C 
ATOM     33  O   UNL     1      -4.624  -1.966  -1.478  0.00  0.00    -0.292 OA
BRANCH  32  34
ATOM     34  C   UNL     1      -5.188  -1.205  -3.603  0.00  0.00    +0.053 A 
ATOM     35  C   UNL     1      -5.075  -0.183  -4.552  0.00  0.00    +0.014 A 
ATOM     36  C   UNL     1      -5.700  -0.309  -5.773  0.00  0.00    +0.001 A 
ATOM     37  C   UNL     1      -6.440  -1.444  -6.065  0.00  0.00    +0.003 A 
ATOM     38  C   UNL     1      -6.558  -2.459  -5.135  0.00  0.00    +0.039 A 
ATOM     39  C   UNL     1      -5.933  -2.352  -3.906  0.00  0.00    +0.134 A 
ATOM     40  F   UNL     1      -6.045  -3.347  -2.999  0.00  0.00    -0.205 F 
ENDBRANCH  32  34
ENDBRANCH  20  32
TORSDOF 4
