REMARK  Name = ZINC35867599
REMARK  7 active torsions:
REMARK  status: ('A' for Active; 'I' for Inactive)
REMARK    1  A    between atoms: C_1  and  C_2
REMARK    2  A    between atoms: C_7  and  N_8
REMARK    3  A    between atoms: C_24  and  C_26
REMARK    4  A    between atoms: C_26  and  C_27
REMARK    5  A    between atoms: C_27  and  C_28
REMARK    6  A    between atoms: C_27  and  C_29
REMARK    7  A    between atoms: C_31  and  C_35
REMARK                            x       y       z     vdW  Elec       q    Type
REMARK                         _______ _______ _______ _____ _____    ______ ____
ROOT
ATOM      1  N   UNL     1      -2.371  -0.044   2.437  0.00  0.00    -0.269 N 
ATOM      2  C   UNL     1      -1.205   0.231   3.055  0.00  0.00    +0.307 C 
ATOM      3  O   UNL     1      -0.151  -0.041   2.513  0.00  0.00    -0.252 OA
ATOM      4  N   UNL     1      -1.207   0.806   4.274  0.00  0.00    -0.282 N 
ATOM      5  C   UNL     1      -2.469   1.022   4.996  0.00  0.00    +0.128 C 
ATOM      6  C   UNL     1      -2.365   0.357   6.374  0.00  0.00    +0.125 C 
ATOM      7  N   UNL     1      -1.106   0.779   7.005  0.00  0.00    -0.312 N 
ATOM      8  C   UNL     1       0.155   0.562   6.283  0.00  0.00    +0.125 C 
ATOM      9  C   UNL     1       0.052   1.222   4.907  0.00  0.00    +0.128 C 
ATOM     10  C   UNL     1      -1.109   1.369   8.256  0.00  0.00    +0.133 A 
ATOM     11  C   UNL     1      -1.132   0.567   9.431  0.00  0.00    +0.051 A 
ATOM     12  C   UNL     1      -1.157  -0.892   9.545  0.00  0.00    -0.025 A 
ATOM     13  C   UNL     1      -1.176  -1.408  10.791  0.00  0.00    -0.004 A 
ATOM     14  S   UNL     1      -1.161  -0.004  11.873  0.00  0.00    -0.073 S 
ATOM     15  C   UNL     1      -1.131   1.278  10.648  0.00  0.00    +0.114 A 
ATOM     16  N   UNL     1      -1.112   2.596  10.677  0.00  0.00    -0.225 NA
ATOM     17  C   UNL     1      -1.092   3.286   9.553  0.00  0.00    +0.133 A 
ATOM     18  N   UNL     1      -1.084   2.686   8.376  0.00  0.00    -0.217 NA
ATOM     19  C   UNL     1      -1.204  -2.856  11.173  0.00  0.00    +0.046 C 
ATOM     20  C   UNL     1      -1.585  -3.677   9.933  0.00  0.00    -0.009 C 
ATOM     21  C   UNL     1      -0.730  -3.208   8.752  0.00  0.00    +0.008 C 
ATOM     22  C   UNL     1      -1.163  -1.806   8.323  0.00  0.00    +0.037 C 
ATOM     23  C   UNL     1      -1.326  -5.162  10.200  0.00  0.00    +0.008 C 
ATOM     24  H   UNL     1      -3.209   0.227   2.841  0.00  0.00    +0.156 HD
ENDROOT
BRANCH   1  31
ATOM     25  C   UNL     1      -4.583  -1.727   1.830  0.00  0.00    +0.045 C 
ATOM     26  C   UNL     1      -3.431  -1.550   0.875  0.00  0.00    -0.029 A 
ATOM     27  C   UNL     1      -3.431  -2.211  -0.338  0.00  0.00    +0.005 A 
ATOM     28  C   UNL     1      -2.374  -2.050  -1.215  0.00  0.00    +0.000 A 
ATOM     29  C   UNL     1      -1.314  -1.227  -0.881  0.00  0.00    +0.002 A 
ATOM     30  C   UNL     1      -1.308  -0.564   0.331  0.00  0.00    +0.023 A 
ATOM     31  C   UNL     1      -2.371  -0.719   1.211  0.00  0.00    +0.038 A 
ENDBRANCH   1  31
BRANCH  17  32
ATOM     32  C   UNL     1      -1.070   4.792   9.613  0.00  0.00    +0.079 C 
BRANCH  32  33
ATOM     33  C   UNL     1       0.380   5.280   9.646  0.00  0.00    -0.010 C 
ATOM     34  C   UNL     1       1.070   4.918   8.329  0.00  0.00    +0.007 C 
ATOM     35  C   UNL     1       0.402   6.799   9.832  0.00  0.00    +0.007 C 
ENDBRANCH  32  33
ENDBRANCH  17  32
TORSDOF 3
