REMARK  Name = ZINC12687831
REMARK  10 active torsions:
REMARK  status: ('A' for Active; 'I' for Inactive)
REMARK    1  A    between atoms: C_1  and  C_2
REMARK    2  A    between atoms: C_2  and  C_4
REMARK    3  A    between atoms: C_2  and  N_12
REMARK    4  A    between atoms: C_13  and  C_15
REMARK    5  A    between atoms: C_15  and  C_17
REMARK    6  A    between atoms: C_15  and  S_18
REMARK    7  A    between atoms: S_18  and  C_19
REMARK    8  A    between atoms: C_21  and  C_24
REMARK    9  A    between atoms: C_27  and  O_30
REMARK   10  A    between atoms: O_30  and  C_31
REMARK                            x       y       z     vdW  Elec       q    Type
REMARK                         _______ _______ _______ _____ _____    ______ ____
ROOT
ATOM      1  C   UNL     1      -4.487   1.218   0.631  0.00  0.00    +0.137 C 
ATOM      2  C   UNL     1      -5.203   1.711   1.890  0.00  0.00    +0.029 C 
ENDROOT
BRANCH   1   4
ATOM      3  N   UNL     1      -2.103   1.072   1.277  0.00  0.00    -0.308 N 
ATOM      4  C   UNL     1      -3.073   1.740   0.621  0.00  0.00    +0.227 C 
ATOM      5  O   UNL     1      -2.807   2.760   0.021  0.00  0.00    -0.275 OA
ATOM      6  H   UNL     1      -2.344   0.147   1.821  0.00  0.00    +0.149 HD
BRANCH   3   8
ATOM      7  C   UNL     1      -0.013   1.086   0.008  0.00  0.00    +0.033 C 
ATOM      8  C   UNL     1      -0.729   1.579   1.267  0.00  0.00    +0.102 C 
BRANCH   8   9
ATOM      9  C   UNL     1       0.000   1.080   2.488  0.00  0.00    -0.009 A 
ATOM     10  C   UNL     1      -0.411  -0.084   3.110  0.00  0.00    +0.008 A 
ATOM     11  C   UNL     1       0.257  -0.543   4.230  0.00  0.00    +0.020 A 
ATOM     12  C   UNL     1       1.337   0.164   4.729  0.00  0.00    +0.042 A 
ATOM     13  C   UNL     1       1.749   1.329   4.107  0.00  0.00    +0.040 A 
ATOM     14  C   UNL     1       1.083   1.784   2.982  0.00  0.00    +0.047 A 
ATOM     15 CL   UNL     1       1.604   3.241   2.196  0.00  0.00    -0.083 Cl
ATOM     16 CL   UNL     1       2.176  -0.412   6.135  0.00  0.00    -0.083 Cl
ENDBRANCH   8   9
ENDBRANCH   3   8
ENDBRANCH   1   4
BRANCH   1  17
ATOM     17  S   UNL     1      -5.362   1.817  -0.835  0.00  0.00    -0.074 S 
BRANCH  17  18
ATOM     18  C   UNL     1      -6.890   0.959  -0.652  0.00  0.00    +0.185 A 
ATOM     19  N   UNL     1      -7.965   1.029  -1.492  0.00  0.00    -0.201 NA
ATOM     20  C   UNL     1      -8.916   0.197  -0.948  0.00  0.00    +0.182 A 
ATOM     21  N   UNL     1      -8.403  -0.308   0.149  0.00  0.00    -0.152 NA
ATOM     22  N   UNL     1      -7.208   0.133   0.319  0.00  0.00    -0.253 N 
ATOM     23  H   UNL     1      -6.618  -0.196   1.187  0.00  0.00    +0.191 HD
BRANCH  20  24
ATOM     24  C   UNL     1     -10.261  -0.077  -1.497  0.00  0.00    +0.021 A 
ATOM     25  C   UNL     1     -10.678   0.549  -2.672  0.00  0.00    +0.015 A 
ATOM     26  C   UNL     1     -11.931   0.287  -3.184  0.00  0.00    +0.046 A 
ATOM     27  C   UNL     1     -12.782  -0.591  -2.525  0.00  0.00    +0.120 A 
ATOM     28  C   UNL     1     -12.373  -1.211  -1.352  0.00  0.00    +0.046 A 
ATOM     29  C   UNL     1     -11.119  -0.959  -0.837  0.00  0.00    +0.015 A 
BRANCH  27  30
ATOM     30  O   UNL     1     -14.019  -0.842  -3.028  0.00  0.00    -0.495 OA
ATOM     31  C   UNL     1     -14.375  -0.170  -4.238  0.00  0.00    +0.277 C 
ENDBRANCH  27  30
ENDBRANCH  20  24
ENDBRANCH  17  18
ENDBRANCH   1  17
TORSDOF 7
