REMARK  Name = ZINC28623857
REMARK  6 active torsions:
REMARK  status: ('A' for Active; 'I' for Inactive)
REMARK    1  A    between atoms: C_2  and  C_3
REMARK    2  A    between atoms: C_3  and  N_4
REMARK    3  A    between atoms: C_5  and  C_7
REMARK    4  A    between atoms: C_7  and  N_8
REMARK    5  A    between atoms: C_16  and  C_29
REMARK    6  A    between atoms: C_21  and  C_23
REMARK                            x       y       z     vdW  Elec       q    Type
REMARK                         _______ _______ _______ _____ _____    ______ ____
ROOT
ATOM      1  N   UNL     1       5.718   4.491   1.296  0.00  0.00    +0.387 N 
ATOM      2  C   UNL     1       5.338   5.460   0.259  0.00  0.00    -0.059 C 
ATOM      3  C   UNL     1       3.833   5.729   0.343  0.00  0.00    +0.088 C 
ATOM      4  N   UNL     1       3.102   4.465   0.173  0.00  0.00    -0.318 N 
ATOM      5  C   UNL     1       3.482   3.497   1.211  0.00  0.00    +0.088 C 
ATOM      6  C   UNL     1       4.987   3.228   1.127  0.00  0.00    -0.059 C 
ATOM      7  C   UNL     1       1.735   4.680   0.172  0.00  0.00    +0.134 A 
ATOM      8  C   UNL     1       0.930   4.176  -0.886  0.00  0.00    +0.056 A 
ATOM      9  C   UNL     1       1.320   3.410  -2.066  0.00  0.00    +0.008 A 
ATOM     10  C   UNL     1       0.359   3.037  -2.947  0.00  0.00    +0.057 A 
ATOM     11  S   UNL     1      -1.135   3.703  -2.240  0.00  0.00    -0.076 S 
ATOM     12  C   UNL     1      -0.450   4.452  -0.786  0.00  0.00    +0.114 A 
ATOM     13  N   UNL     1      -0.944   5.134   0.227  0.00  0.00    -0.220 NA
ATOM     14  C   UNL     1      -0.145   5.581   1.188  0.00  0.00    +0.163 A 
ATOM     15  N   UNL     1       1.165   5.355   1.155  0.00  0.00    -0.212 NA
ATOM     16  H   UNL     1       5.443   4.915   2.274  0.00  0.00    -0.081 HD
ENDROOT
BRANCH  14  17
ATOM     17  C   UNL     1      -0.723   6.347   2.318  0.00  0.00    +0.019 A 
ATOM     18  C   UNL     1       0.102   6.818   3.338  0.00  0.00    +0.011 A 
ATOM     19  C   UNL     1      -0.441   7.534   4.385  0.00  0.00    +0.001 A 
ATOM     20  C   UNL     1      -1.803   7.776   4.429  0.00  0.00    +0.000 A 
ATOM     21  C   UNL     1      -2.627   7.306   3.422  0.00  0.00    +0.001 A 
ATOM     22  C   UNL     1      -2.094   6.593   2.367  0.00  0.00    +0.011 A 
ENDBRANCH  14  17
BRANCH   9  23
ATOM     23  C   UNL     1       2.735   3.050  -2.296  0.00  0.00    +0.021 A 
ATOM     24  C   UNL     1       3.292   1.811  -2.471  0.00  0.00    +0.016 A 
ATOM     25  C   UNL     1       4.653   1.720  -2.673  0.00  0.00    +0.008 A 
ATOM     26  C   UNL     1       5.396   2.854  -2.692  0.00  0.00    +0.046 A 
ATOM     27  S   UNL     1       4.161   4.116  -2.426  0.00  0.00    -0.097 S 
ENDBRANCH   9  23
BRANCH   1  28
ATOM     28  C   UNL     1       7.169   4.263   1.298  0.00  0.00    +0.019 C 
BRANCH  28  30
ATOM     29  N   UNL     1       8.841   3.135   2.730  0.00  0.00    -0.313 N 
ATOM     30  C   UNL     1       7.551   3.465   2.517  0.00  0.00    +0.197 C 
ATOM     31  O   UNL     1       6.699   3.120   3.308  0.00  0.00    -0.278 OA
ATOM     32  H   UNL     1       9.614   3.449   2.013  0.00  0.00    +0.149 HD
BRANCH  29  33
ATOM     33  C   UNL     1       9.213   2.359   3.915  0.00  0.00    +0.131 C 
BRANCH  33  35
ATOM     34  C   UNL     1      11.419   2.482   4.952  0.00  0.00    +0.005 C 
ATOM     35  C   UNL     1      10.701   2.126   3.917  0.00  0.00    -0.016 C 
ENDBRANCH  33  35
ENDBRANCH  29  33
ENDBRANCH  28  30
ENDBRANCH   1  28
TORSDOF 6
