REMARK  Name = ZINC54201831
REMARK  7 active torsions:
REMARK  status: ('A' for Active; 'I' for Inactive)
REMARK    1  A    between atoms: C_1  and  C_2
REMARK    2  A    between atoms: C_6  and  N_8
REMARK    3  A    between atoms: C_9  and  C_11
REMARK    4  A    between atoms: C_11  and  S_12
REMARK    5  A    between atoms: S_12  and  C_13
REMARK    6  A    between atoms: C_16  and  N_18
REMARK    7  A    between atoms: N_18  and  C_19
REMARK                            x       y       z     vdW  Elec       q    Type
REMARK                         _______ _______ _______ _____ _____    ______ ____
ROOT
ATOM      1  C   UNL     1      -0.263  -7.418   4.945  0.00  0.00    +0.160 A 
ATOM      2  N   UNL     1      -0.252  -6.855   6.145  0.00  0.00    -0.133 NA
ATOM      3  N   UNL     1      -0.367  -7.534   7.202  0.00  0.00    -0.123 NA
ATOM      4  C   UNL     1      -0.506  -8.850   7.178  0.00  0.00    +0.208 A 
ATOM      5  S   UNL     1      -0.472  -9.135   5.410  0.00  0.00    -0.023 S 
ENDROOT
BRANCH   1   6
ATOM      6  S   UNL     1      -0.120  -6.687   3.349  0.00  0.00    -0.088 S 
BRANCH   6   7
ATOM      7  C   UNL     1       0.065  -4.915   3.693  0.00  0.00    +0.172 C 
BRANCH   7   9
ATOM      8  N   UNL     1       0.347  -2.823   2.404  0.00  0.00    -0.285 N 
ATOM      9  C   UNL     1       0.198  -4.163   2.394  0.00  0.00    +0.227 C 
ATOM     10  O   UNL     1       0.172  -4.762   1.340  0.00  0.00    -0.275 OA
ATOM     11  H   UNL     1       0.446  -2.352   3.246  0.00  0.00    +0.155 HD
BRANCH   8  17
ATOM     12  C   UNL     1       2.001   0.967  -0.256  0.00  0.00    +0.044 C 
ATOM     13  C   UNL     1       1.152  -0.271  -0.117  0.00  0.00    -0.049 A 
ATOM     14  C   UNL     1       0.385  -0.705  -1.183  0.00  0.00    +0.003 A 
ATOM     15  C   UNL     1      -0.395  -1.840  -1.061  0.00  0.00    +0.002 A 
ATOM     16  C   UNL     1      -0.409  -2.545   0.127  0.00  0.00    +0.023 A 
ATOM     17  C   UNL     1       0.360  -2.112   1.199  0.00  0.00    +0.034 A 
ATOM     18  C   UNL     1       1.146  -0.974   1.071  0.00  0.00    +0.026 A 
ENDBRANCH   8  17
ENDBRANCH   7   9
ENDBRANCH   6   7
ENDBRANCH   1   6
BRANCH   4  19
ATOM     19  N   UNL     1      -0.644  -9.753   8.225  0.00  0.00    -0.164 NA
BRANCH  19  20
ATOM     20  C   UNL     1      -0.649  -9.306   9.516  0.00  0.00    +0.177 C 
ATOM     21  N   UNL     1      -0.541  -8.060   9.953  0.00  0.00    -0.152 NA
ATOM     22  C   UNL     1      -0.560  -7.756  11.231  0.00  0.00    +0.277 C 
ATOM     23  O   UNL     1      -0.460  -6.606  11.622  0.00  0.00    -0.267 OA
ATOM     24  C   UNL     1      -0.712  -8.902  12.175  0.00  0.00    +0.092 C 
ATOM     25  C   UNL     1      -0.766  -8.909  13.553  0.00  0.00    +0.065 C 
ATOM     26  C   UNL     1      -0.850  -7.744  14.457  0.00  0.00    +0.010 A 
ATOM     27  C   UNL     1      -0.898  -6.369  14.238  0.00  0.00    +0.010 A 
ATOM     28  C   UNL     1      -0.976  -5.507  15.313  0.00  0.00    +0.001 A 
ATOM     29  C   UNL     1      -1.006  -6.009  16.604  0.00  0.00    +0.002 A 
ATOM     30  C   UNL     1      -0.958  -7.370  16.832  0.00  0.00    +0.024 A 
ATOM     31  C   UNL     1      -0.881  -8.255  15.762  0.00  0.00    +0.042 A 
ATOM     32  N   UNL     1      -0.821  -9.643  15.715  0.00  0.00    -0.281 N 
ATOM     33  C   UNL     1      -0.759 -10.088  14.448  0.00  0.00    +0.250 C 
ATOM     34  O   UNL     1      -0.703 -11.252  14.100  0.00  0.00    -0.270 OA
ATOM     35  S   UNL     1      -0.812 -10.260  11.017  0.00  0.00    -0.049 S 
ATOM     36  H   UNL     1      -0.828 -10.217  16.496  0.00  0.00    +0.155 HD
ENDBRANCH  19  20
ENDBRANCH   4  19
TORSDOF 6
