REMARK  Name = ZINC01022405
REMARK  8 active torsions:
REMARK  status: ('A' for Active; 'I' for Inactive)
REMARK    1  A    between atoms: C_1  and  C_2
REMARK    2  A    between atoms: C_6  and  N_9
REMARK    3  A    between atoms: C_7  and  C_8
REMARK    4  A    between atoms: C_18  and  C_32
REMARK    5  A    between atoms: C_32  and  O_33
REMARK    6  A    between atoms: C_32  and  O_35
REMARK    7  A    between atoms: O_33  and  C_34
REMARK    8  A    between atoms: O_35  and  C_36
REMARK                            x       y       z     vdW  Elec       q    Type
REMARK                         _______ _______ _______ _____ _____    ______ ____
ROOT
ATOM      1  N   UNL     1      -0.340  -1.838   3.180  0.00  0.00    -0.210 N 
ATOM      2  C   UNL     1      -1.431  -2.430   3.769  0.00  0.00    +0.231 C 
ATOM      3  O   UNL     1      -2.596  -2.122   3.633  0.00  0.00    -0.274 OA
ATOM      4  C   UNL     1      -0.887  -3.521   4.598  0.00  0.00    +0.101 C 
ATOM      5  C   UNL     1       0.477  -2.888   4.978  0.00  0.00    +0.108 C 
ATOM      6  C   UNL     1       0.858  -2.256   3.722  0.00  0.00    +0.231 C 
ATOM      7  O   UNL     1       1.970  -2.124   3.260  0.00  0.00    -0.274 OA
ATOM      8  C   UNL     1       1.130  -3.685   6.030  0.00  0.00    +0.084 C 
ATOM      9  C   UNL     1       0.777  -5.153   5.914  0.00  0.00    -0.028 A 
ATOM     10  C   UNL     1       1.683  -6.175   5.842  0.00  0.00    +0.005 A 
ATOM     11  C   UNL     1       1.219  -7.482   5.788  0.00  0.00    +0.000 A 
ATOM     12  C   UNL     1      -0.136  -7.753   5.810  0.00  0.00    +0.000 A 
ATOM     13  C   UNL     1      -1.057  -6.712   5.865  0.00  0.00    +0.004 A 
ATOM     14  C   UNL     1      -0.592  -5.436   5.892  0.00  0.00    -0.035 A 
ATOM     15  C   UNL     1      -1.481  -4.149   5.827  0.00  0.00    +0.062 C 
ATOM     16  C   UNL     1      -1.035  -3.407   7.084  0.00  0.00    -0.035 A 
ATOM     17  C   UNL     1       0.317  -3.233   7.250  0.00  0.00    -0.028 A 
ATOM     18  C   UNL     1       0.822  -2.671   8.378  0.00  0.00    +0.005 A 
ATOM     19  C   UNL     1      -0.064  -2.262   9.370  0.00  0.00    +0.000 A 
ATOM     20  C   UNL     1      -1.425  -2.429   9.196  0.00  0.00    +0.000 A 
ATOM     21  C   UNL     1      -1.896  -2.958   8.048  0.00  0.00    +0.004 A 
ENDROOT
BRANCH   1  27
ATOM     22  C   UNL     1      -0.728   2.831   1.684  0.00  0.00    +0.044 C 
ATOM     23  C   UNL     1      -0.623   1.359   1.381  0.00  0.00    -0.046 A 
ATOM     24  C   UNL     1      -0.620   0.922   0.069  0.00  0.00    +0.004 A 
ATOM     25  C   UNL     1      -0.524  -0.428  -0.213  0.00  0.00    +0.002 A 
ATOM     26  C   UNL     1      -0.431  -1.345   0.816  0.00  0.00    +0.024 A 
ATOM     27  C   UNL     1      -0.434  -0.910   2.134  0.00  0.00    +0.047 A 
ATOM     28  C   UNL     1      -0.524   0.447   2.414  0.00  0.00    -0.026 A 
ATOM     29  C   UNL     1      -0.522   0.924   3.843  0.00  0.00    +0.046 C 
ENDBRANCH   1  27
BRANCH   8  30
ATOM     30  C   UNL     1       2.631  -3.414   6.153  0.00  0.00    +0.265 C 
BRANCH  30  31
ATOM     31  O   UNL     1       3.179  -4.227   7.192  0.00  0.00    -0.353 OA
ATOM     32  C   UNL     1       4.513  -3.876   7.563  0.00  0.00    +0.197 C 
ENDBRANCH  30  31
BRANCH  30  33
ATOM     33  O   UNL     1       3.274  -3.726   4.915  0.00  0.00    -0.353 OA
ATOM     34  C   UNL     1       4.513  -3.044   4.716  0.00  0.00    +0.197 C 
ENDBRANCH  30  33
ENDBRANCH   8  30
TORSDOF 4
