REMARK  Name = ZINC09409661
REMARK  9 active torsions:
REMARK  status: ('A' for Active; 'I' for Inactive)
REMARK    1  A    between atoms: C_1  and  O_2
REMARK    2  A    between atoms: O_2  and  C_3
REMARK    3  A    between atoms: C_6  and  O_32
REMARK    4  A    between atoms: C_7  and  C_9
REMARK    5  A    between atoms: C_11  and  C_23
REMARK    6  A    between atoms: C_13  and  C_18
REMARK    7  A    between atoms: C_15  and  O_17
REMARK    8  A    between atoms: C_23  and  C_25
REMARK    9  A    between atoms: O_32  and  C_33
REMARK                            x       y       z     vdW  Elec       q    Type
REMARK                         _______ _______ _______ _____ _____    ______ ____
ROOT
ATOM      1  C   UNL     1       1.210  -3.964  -2.236  0.00  0.00    +0.124 C 
ATOM      2  C   UNL     1       0.138  -4.630  -3.111  0.00  0.00    +0.150 C 
ATOM      3  C   UNL     1       0.396  -6.138  -3.128  0.00  0.00    +0.284 C 
ATOM      4  N   UNL     1       0.580  -6.642  -1.772  0.00  0.00    -0.306 N 
ATOM      5  C   UNL     1       0.906  -5.899  -0.768  0.00  0.00    +0.256 C 
ATOM      6  N   UNL     1       1.102  -4.545  -0.888  0.00  0.00    -0.293 N 
ATOM      7  O   UNL     1       1.573  -6.407  -3.894  0.00  0.00    -0.194 OA
ATOM      8  H   UNL     1       1.167  -3.983  -0.101  0.00  0.00    +0.151 HD
ATOM      9  H   UNL     1       0.450  -7.590  -1.615  0.00  0.00    +0.167 HD
ENDROOT
BRANCH   1  14
ATOM     10  C   UNL     1       1.594  -0.244  -2.780  0.00  0.00    +0.121 A 
ATOM     11  C   UNL     1       0.522   0.255  -2.055  0.00  0.00    +0.049 A 
ATOM     12  C   UNL     1      -0.325  -0.610  -1.390  0.00  0.00    +0.049 A 
ATOM     13  C   UNL     1      -0.103  -1.978  -1.448  0.00  0.00    +0.125 A 
ATOM     14  C   UNL     1       0.969  -2.477  -2.173  0.00  0.00    +0.019 A 
ATOM     15  C   UNL     1       1.812  -1.612  -2.843  0.00  0.00    +0.054 A 
BRANCH  10  17
ATOM     16  C   UNL     1       2.143   2.004  -3.327  0.00  0.00    +0.277 C 
ATOM     17  O   UNL     1       2.427   0.608  -3.435  0.00  0.00    -0.495 OA
ENDBRANCH  10  17
BRANCH  13  18
ATOM     18  O   UNL     1      -0.936  -2.830  -0.793  0.00  0.00    -0.495 OA
ATOM     19  C   UNL     1      -2.019  -2.247  -0.065  0.00  0.00    +0.277 C 
ENDBRANCH  13  18
ENDBRANCH   1  14
BRANCH   3  20
ATOM     20  C   UNL     1      -0.796  -6.848  -3.772  0.00  0.00    +0.441 C 
ATOM     21  F   UNL     1      -0.962  -6.386  -5.082  0.00  0.00    -0.166 F 
ATOM     22  F   UNL     1      -0.565  -8.227  -3.790  0.00  0.00    -0.166 F 
ATOM     23  F   UNL     1      -1.954  -6.579  -3.033  0.00  0.00    -0.166 F 
ENDBRANCH   3  20
BRANCH   5  24
ATOM     24  O   UNL     1       1.061  -6.474   0.444  0.00  0.00    -0.483 OA
ATOM     25  H   UNL     1       0.907  -7.429   0.449  0.00  0.00    +0.295 HD
ENDBRANCH   5  24
BRANCH   2  26
ATOM     26  C   UNL     1       0.218  -4.085  -4.514  0.00  0.00    +0.173 C 
ATOM     27  O   UNL     1       1.298  -3.922  -5.040  0.00  0.00    -0.292 OA
BRANCH  26  28
ATOM     28  C   UNL     1      -1.014  -3.752  -5.244  0.00  0.00    +0.018 A 
ATOM     29  C   UNL     1      -2.262  -3.933  -4.638  0.00  0.00    +0.014 A 
ATOM     30  C   UNL     1      -3.412  -3.618  -5.328  0.00  0.00    +0.039 A 
ATOM     31  C   UNL     1      -3.334  -3.123  -6.621  0.00  0.00    +0.123 A 
ATOM     32  C   UNL     1      -2.101  -2.941  -7.228  0.00  0.00    +0.039 A 
ATOM     33  C   UNL     1      -0.943  -3.245  -6.547  0.00  0.00    +0.014 A 
ATOM     34  F   UNL     1      -4.466  -2.817  -7.293  0.00  0.00    -0.205 F 
ENDBRANCH  26  28
ENDBRANCH   2  26
TORSDOF 7
