REMARK  Name = ZINC06752947
REMARK  7 active torsions:
REMARK  status: ('A' for Active; 'I' for Inactive)
REMARK    1  A    between atoms: C_1  and  C_2
REMARK    2  A    between atoms: C_2  and  C_3
REMARK    3  A    between atoms: C_3  and  N_4
REMARK    4  A    between atoms: C_5  and  C_22
REMARK    5  A    between atoms: C_8  and  C_15
REMARK    6  A    between atoms: C_20  and  O_21
REMARK    7  A    between atoms: C_26  and  O_28
REMARK                            x       y       z     vdW  Elec       q    Type
REMARK                         _______ _______ _______ _____ _____    ______ ____
ROOT
ATOM      1  N   UNL     1      -1.413  -1.998   0.005  0.00  0.00    -0.285 N 
ATOM      2  C   UNL     1      -1.407  -2.844  -1.194  0.00  0.00    +0.141 C 
ATOM      3  C   UNL     1      -1.386  -4.268  -0.708  0.00  0.00    +0.035 A 
ATOM      4  C   UNL     1      -1.369  -5.588  -1.025  0.00  0.00    +0.075 A 
ATOM      5  N   UNL     1      -1.354  -6.274   0.156  0.00  0.00    -0.276 N 
ATOM      6  H   UNL     1      -1.339  -7.240   0.239  0.00  0.00    +0.189 HD
ATOM      7  N   UNL     1      -1.361  -5.449   1.142  0.00  0.00    -0.168 NA
ATOM      8  C   UNL     1      -1.380  -4.206   0.704  0.00  0.00    +0.153 A 
ATOM      9  C   UNL     1      -1.392  -2.785   1.095  0.00  0.00    +0.268 C 
ATOM     10  O   UNL     1      -1.385  -2.381   2.241  0.00  0.00    -0.268 OA
ENDROOT
BRANCH   4  11
ATOM     11  C   UNL     1      -1.368  -6.171  -2.385  0.00  0.00    +0.042 A 
ATOM     12  C   UNL     1      -2.454  -6.926  -2.825  0.00  0.00    +0.013 A 
ATOM     13  C   UNL     1      -2.448  -7.466  -4.094  0.00  0.00    +0.001 A 
ATOM     14  C   UNL     1      -1.367  -7.263  -4.934  0.00  0.00    +0.004 A 
ATOM     15  C   UNL     1      -0.284  -6.516  -4.508  0.00  0.00    +0.046 A 
ATOM     16  C   UNL     1      -0.278  -5.963  -3.238  0.00  0.00    +0.126 A 
BRANCH  16  17
ATOM     17  O   UNL     1       0.783  -5.224  -2.821  0.00  0.00    -0.506 OA
ATOM     18  H   UNL     1       1.475  -5.741  -2.387  0.00  0.00    +0.292 HD
ENDBRANCH  16  17
ENDBRANCH   4  11
BRANCH   2  19
ATOM     19  C   UNL     1      -0.180  -2.560  -2.022  0.00  0.00    -0.019 A 
ATOM     20  C   UNL     1       1.038  -2.353  -1.402  0.00  0.00    +0.006 A 
ATOM     21  C   UNL     1       2.166  -2.092  -2.158  0.00  0.00    +0.004 A 
ATOM     22  C   UNL     1       2.078  -2.037  -3.536  0.00  0.00    +0.045 A 
ATOM     23  C   UNL     1       0.856  -2.245  -4.160  0.00  0.00    +0.117 A 
ATOM     24  C   UNL     1      -0.273  -2.513  -3.399  0.00  0.00    +0.051 A 
BRANCH  23  25
ATOM     25  O   UNL     1       0.767  -2.192  -5.515  0.00  0.00    -0.507 OA
ATOM     26  H   UNL     1       0.911  -3.042  -5.952  0.00  0.00    +0.292 HD
ENDBRANCH  23  25
ENDBRANCH   2  19
BRANCH   1  27
ATOM     27  C   UNL     1      -1.433  -0.534   0.013  0.00  0.00    +0.109 C 
BRANCH  27  29
ATOM     28  C   UNL     1      -0.019   1.526   0.010  0.00  0.00    +0.005 C 
ATOM     29  C   UNL     1       0.002  -0.004   0.002  0.00  0.00    +0.016 C 
ENDBRANCH  27  29
ENDBRANCH   1  27
TORSDOF 6
