REMARK  Name = ZINC16732527
REMARK  10 active torsions:
REMARK  status: ('A' for Active; 'I' for Inactive)
REMARK    1  A    between atoms: C_2  and  C_3
REMARK    2  A    between atoms: C_3  and  O_4
REMARK    3  A    between atoms: O_4  and  C_5
REMARK    4  A    between atoms: C_8  and  C_11
REMARK    5  A    between atoms: C_11  and  C_12
REMARK    6  A    between atoms: C_13  and  C_28
REMARK    7  A    between atoms: N_15  and  C_20
REMARK    8  A    between atoms: C_20  and  C_21
REMARK    9  A    between atoms: C_21  and  C_22
REMARK   10  A    between atoms: C_22  and  N_23
REMARK                            x       y       z     vdW  Elec       q    Type
REMARK                         _______ _______ _______ _____ _____    ______ ____
ROOT
ATOM      1  C   UNL     1       6.129  -6.376   2.367  0.00  0.00    +0.076 C 
ATOM      2  C   UNL     1       4.949  -6.599   3.285  0.00  0.00    +0.145 C 
ATOM      3  N   UNL     1       5.375  -7.610   4.260  0.00  0.00    -0.283 N 
ATOM      4  C   UNL     1       6.643  -7.955   3.971  0.00  0.00    +0.288 C 
ATOM      5  O   UNL     1       7.300  -8.772   4.585  0.00  0.00    -0.266 OA
ATOM      6  C   UNL     1       7.117  -7.197   2.795  0.00  0.00    +0.249 C 
ATOM      7  O   UNL     1       8.344  -7.304   2.235  0.00  0.00    -0.282 OA
ENDROOT
BRANCH   2   8
ATOM      8  C   UNL     1       3.768  -7.103   2.497  0.00  0.00    -0.022 A 
ATOM      9  C   UNL     1       3.777  -8.386   1.983  0.00  0.00    +0.007 A 
ATOM     10  C   UNL     1       2.693  -8.850   1.261  0.00  0.00    +0.015 A 
ATOM     11  C   UNL     1       1.600  -8.028   1.052  0.00  0.00    +0.018 A 
ATOM     12  C   UNL     1       1.591  -6.744   1.566  0.00  0.00    +0.015 A 
ATOM     13  C   UNL     1       2.673  -6.284   2.292  0.00  0.00    +0.007 A 
ATOM     14 BR   UNL     1       0.117  -8.661   0.063  0.00  0.00    -0.050 Br
ENDBRANCH   2   8
BRANCH   1  15
ATOM     15  C   UNL     1       6.190  -5.454   1.229  0.00  0.00    +0.195 C 
ATOM     16  O   UNL     1       6.298  -5.889   0.098  0.00  0.00    -0.287 OA
BRANCH  15  20
ATOM     17  C   UNL     1       5.988  -1.262   1.879  0.00  0.00    +0.121 A 
ATOM     18  C   UNL     1       6.165  -1.756   0.592  0.00  0.00    +0.046 A 
ATOM     19  C   UNL     1       6.232  -3.114   0.377  0.00  0.00    +0.015 A 
ATOM     20  C   UNL     1       6.120  -3.997   1.455  0.00  0.00    +0.022 A 
ATOM     21  C   UNL     1       5.941  -3.496   2.748  0.00  0.00    +0.015 A 
ATOM     22  C   UNL     1       5.881  -2.136   2.955  0.00  0.00    +0.046 A 
BRANCH  17  23
ATOM     23  O   UNL     1       5.923   0.077   2.087  0.00  0.00    -0.488 OA
BRANCH  23  24
ATOM     24  C   UNL     1       6.040   0.919   0.938  0.00  0.00    +0.256 C 
BRANCH  24  26
ATOM     25  C   UNL     1       6.788   3.242   0.878  0.00  0.00    +0.007 C 
ATOM     26  C   UNL     1       5.946   2.362   1.361  0.00  0.00    +0.006 C 
ENDBRANCH  24  26
ENDBRANCH  23  24
ENDBRANCH  17  23
ENDBRANCH  15  20
ENDBRANCH   1  15
BRANCH   3  27
ATOM     27  C   UNL     1       4.562  -8.148   5.353  0.00  0.00    +0.111 C 
BRANCH  27  28
ATOM     28  C   UNL     1       3.797  -9.379   4.862  0.00  0.00    +0.040 C 
BRANCH  28  29
ATOM     29  C   UNL     1       2.948  -9.941   6.004  0.00  0.00    +0.124 C 
BRANCH  29  30
ATOM     30  N   UNL     1       2.216 -11.120   5.534  0.00  0.00    -0.338 N 
ATOM     31  C   UNL     1       0.973 -11.128   4.961  0.00  0.00    +0.104 A 
ATOM     32  C   UNL     1       0.681 -12.413   4.681  0.00  0.00    +0.101 A 
ATOM     33  N   UNL     1       1.718 -13.168   5.072  0.00  0.00    -0.352 N 
ATOM     34  C   UNL     1       2.643 -12.400   5.579  0.00  0.00    +0.173 A 
ATOM     35  H   UNL     1       1.774 -14.133   4.988  0.00  0.00    +0.166 HD
ENDBRANCH  29  30
ENDBRANCH  28  29
ENDBRANCH  27  28
ENDBRANCH   3  27
TORSDOF 10
