REMARK  Name = ZINC12377425
REMARK  3 active torsions:
REMARK  status: ('A' for Active; 'I' for Inactive)
REMARK    1  A    between atoms: C_12  and  C_14
REMARK    2  A    between atoms: N_19  and  S_20
REMARK    3  A    between atoms: S_20  and  C_23
REMARK                            x       y       z     vdW  Elec       q    Type
REMARK                         _______ _______ _______ _____ _____    ______ ____
ROOT
ATOM      1  C   UNL     1      -0.018   1.503   0.010  0.00  0.00    +0.166 C 
ATOM      2  C   UNL     1      -0.785   2.024  -1.223  0.00  0.00    +0.031 C 
ATOM      3  C   UNL     1      -1.562   3.243  -0.660  0.00  0.00    +0.019 C 
ATOM      4  C   UNL     1      -1.909   2.758   0.769  0.00  0.00    +0.110 C 
ATOM      5  N   UNL     1      -0.726   1.987   1.205  0.00  0.00    -0.165 NA
ENDROOT
BRANCH   1  17
ATOM      6  C   UNL     1       2.436   1.334  -4.171  0.00  0.00    +0.000 A 
ATOM      7  C   UNL     1       2.973   1.411  -2.899  0.00  0.00    +0.002 A 
ATOM      8  C   UNL     1       2.362   0.761  -1.844  0.00  0.00    +0.024 A 
ATOM      9  C   UNL     1       1.198   0.027  -2.068  0.00  0.00    +0.039 A 
ATOM     10  C   UNL     1       0.656  -0.022  -3.336  0.00  0.00    -0.026 A 
ATOM     11  C   UNL     1       1.272   0.616  -4.390  0.00  0.00    +0.005 A 
ATOM     12  C   UNL     1      -0.640  -0.783  -3.556  0.00  0.00    +0.037 C 
ATOM     13  C   UNL     1      -0.385  -2.274  -3.364  0.00  0.00    +0.006 C 
ATOM     14  C   UNL     1      -0.495  -2.668  -1.898  0.00  0.00    +0.020 C 
ATOM     15  C   UNL     1       0.631  -2.136  -1.042  0.00  0.00    +0.114 C 
ATOM     16  N   UNL     1       0.598  -0.664  -1.011  0.00  0.00    -0.270 N 
ATOM     17  C   UNL     1       0.002  -0.004   0.002  0.00  0.00    +0.239 C 
ATOM     18  O   UNL     1      -0.517  -0.623   0.907  0.00  0.00    -0.273 OA
ENDBRANCH   1  17
BRANCH   5  19
ATOM     19  S   UNL     1      -0.273   1.711   2.773  0.00  0.00    +0.062 S 
ATOM     20  O   UNL     1      -1.447   1.836   3.564  0.00  0.00    -0.153 OA
ATOM     21  O   UNL     1       0.518   0.530   2.766  0.00  0.00    -0.153 OA
BRANCH  19  22
ATOM     22  C   UNL     1       0.796   3.029   3.246  0.00  0.00    +0.106 A 
ATOM     23  C   UNL     1       2.160   2.916   3.053  0.00  0.00    +0.030 A 
ATOM     24  C   UNL     1       2.999   3.952   3.419  0.00  0.00    +0.022 A 
ATOM     25  C   UNL     1       2.474   5.098   3.989  0.00  0.00    +0.041 A 
ATOM     26  C   UNL     1       1.109   5.209   4.186  0.00  0.00    +0.022 A 
ATOM     27  C   UNL     1       0.271   4.174   3.815  0.00  0.00    +0.030 A 
ATOM     28 CL   UNL     1       3.527   6.397   4.454  0.00  0.00    -0.084 Cl
ENDBRANCH  19  22
ENDBRANCH   5  19
TORSDOF 3
