REMARK  Name = ZINC64215462
REMARK  6 active torsions:
REMARK  status: ('A' for Active; 'I' for Inactive)
REMARK    1  A    between atoms: C_4  and  C_7
REMARK    2  A    between atoms: C_9  and  C_17
REMARK    3  A    between atoms: C_17  and  C_19
REMARK    4  A    between atoms: C_17  and  C_29
REMARK    5  A    between atoms: C_19  and  N_20
REMARK    6  A    between atoms: C_21  and  C_23
REMARK                            x       y       z     vdW  Elec       q    Type
REMARK                         _______ _______ _______ _____ _____    ______ ____
ROOT
ATOM      1  C   UNL     1       4.205  -0.344  -2.669  0.00  0.00    +0.065 C 
ENDROOT
BRANCH   1   3
ATOM      2  C   UNL     1       3.470  -0.690  -0.092  0.00  0.00    +0.137 C 
ATOM      3  C   UNL     1       3.877  -1.185  -1.462  0.00  0.00    -0.025 C 
ATOM      4  C   UNL     1       3.888  -2.535  -1.385  0.00  0.00    +0.000 A 
ATOM      5  C   UNL     1       4.195  -3.584  -2.364  0.00  0.00    +0.010 A 
ATOM      6  C   UNL     1       4.116  -4.880  -1.983  0.00  0.00    +0.001 A 
ATOM      7  C   UNL     1       3.749  -5.244  -0.681  0.00  0.00    +0.002 A 
ATOM      8  C   UNL     1       3.453  -4.337   0.274  0.00  0.00    +0.026 A 
ATOM      9  C   UNL     1       3.503  -2.946  -0.016  0.00  0.00    +0.043 A 
ATOM     10  N   UNL     1       3.264  -1.890   0.726  0.00  0.00    -0.374 N 
ATOM     11  H   UNL     1       2.997  -1.900   1.659  0.00  0.00    +0.161 HD
BRANCH   2  15
ATOM     12  C   UNL     1      -0.155   1.554  -0.356  0.00  0.00    +0.000 A 
ATOM     13  C   UNL     1       1.058   2.209  -0.257  0.00  0.00    +0.000 A 
ATOM     14  C   UNL     1       2.231   1.483  -0.172  0.00  0.00    +0.006 A 
ATOM     15  C   UNL     1       2.191   0.102  -0.184  0.00  0.00    -0.021 A 
ATOM     16  C   UNL     1       0.978  -0.554  -0.282  0.00  0.00    +0.006 A 
ATOM     17  C   UNL     1      -0.195   0.172  -0.369  0.00  0.00    +0.000 A 
ENDBRANCH   2  15
ENDBRANCH   1   3
BRANCH   1  18
ATOM     18  C   UNL     1       5.483   0.415  -2.421  0.00  0.00    -0.039 A 
ATOM     19  C   UNL     1       6.656  -0.272  -2.170  0.00  0.00    +0.004 A 
ATOM     20  C   UNL     1       7.829   0.423  -1.942  0.00  0.00    +0.000 A 
ATOM     21  C   UNL     1       7.829   1.805  -1.966  0.00  0.00    +0.000 A 
ATOM     22  C   UNL     1       6.656   2.492  -2.218  0.00  0.00    +0.000 A 
ATOM     23  C   UNL     1       5.484   1.797  -2.450  0.00  0.00    +0.004 A 
ENDBRANCH   1  18
BRANCH   1  24
ATOM     24  C   UNL     1       4.377  -1.249  -3.890  0.00  0.00    +0.116 C 
BRANCH  24  25
ATOM     25  N   UNL     1       4.558  -0.425  -5.088  0.00  0.00    -0.312 N 
ATOM     26  C   UNL     1       4.730  -1.010  -6.289  0.00  0.00    +0.242 C 
ATOM     27  O   UNL     1       4.735  -2.220  -6.379  0.00  0.00    -0.273 OA
ATOM     28  H   UNL     1       4.553   0.543  -5.016  0.00  0.00    +0.149 HD
BRANCH  26  29
ATOM     29  C   UNL     1       4.915  -0.163  -7.521  0.00  0.00    +0.204 C 
ATOM     30  C   UNL     1       3.629   0.644  -7.800  0.00  0.00    +0.043 C 
ATOM     31  C   UNL     1       3.531   0.583  -9.349  0.00  0.00    +0.031 C 
ATOM     32  C   UNL     1       4.107  -0.829  -9.624  0.00  0.00    +0.161 C 
ATOM     33  O   UNL     1       5.157  -1.002  -8.656  0.00  0.00    -0.367 OA
ENDBRANCH  26  29
ENDBRANCH  24  25
ENDBRANCH   1  24
TORSDOF 6
