REMARK  Name = ZINC04324434
REMARK  8 active torsions:
REMARK  status: ('A' for Active; 'I' for Inactive)
REMARK    1  A    between atoms: C_4  and  S_7
REMARK    2  A    between atoms: S_7  and  C_8
REMARK    3  A    between atoms: C_8  and  C_9
REMARK    4  A    between atoms: C_9  and  C_11
REMARK    5  A    between atoms: C_9  and  O_26
REMARK    6  A    between atoms: C_11  and  N_48
REMARK    7  A    between atoms: N_14  and  C_17
REMARK    8  A    between atoms: C_20  and  C_22
REMARK                            x       y       z     vdW  Elec       q    Type
REMARK                         _______ _______ _______ _____ _____    ______ ____
ROOT
ATOM      1  C   UNL     1      -5.081   3.984   5.469  0.00  0.00    -0.059 C 
ATOM      2  C   UNL     1      -4.410   3.474   4.191  0.00  0.00    +0.088 C 
ATOM      3  N   UNL     1      -2.959   3.389   4.403  0.00  0.00    -0.320 N 
ATOM      4  C   UNL     1      -2.644   2.481   5.515  0.00  0.00    +0.088 C 
ATOM      5  C   UNL     1      -3.314   2.992   6.793  0.00  0.00    -0.059 C 
ATOM      6  N   UNL     1      -4.775   3.051   6.573  0.00  0.00    +0.383 N 
ATOM      7  H   UNL     1      -5.113   2.115   6.322  0.00  0.00    -0.082 HD
ENDROOT
BRANCH   3   8
ATOM      8  C   UNL     1      -2.307   2.996   3.240  0.00  0.00    +0.099 A 
ATOM      9  C   UNL     1      -0.923   2.857   3.238  0.00  0.00    +0.042 A 
ATOM     10  C   UNL     1      -0.288   2.466   2.073  0.00  0.00    +0.017 A 
ATOM     11  C   UNL     1      -1.062   2.224   0.945  0.00  0.00    +0.071 A 
ATOM     12  C   UNL     1      -2.430   2.387   1.017  0.00  0.00    +0.096 A 
ATOM     13  N   UNL     1      -3.089   2.765   2.145  0.00  0.00    -0.349 N 
ATOM     14  H   UNL     1      -4.110   2.870   2.172  0.00  0.00    +0.167 HD
BRANCH  11  15
ATOM     15  C   UNL     1      -0.412   1.796  -0.345  0.00  0.00    +0.419 C 
ATOM     16  F   UNL     1      -0.338   0.399  -0.388  0.00  0.00    -0.166 F 
ATOM     17  F   UNL     1       0.876   2.334  -0.421  0.00  0.00    -0.166 F 
ATOM     18  F   UNL     1      -1.174   2.255  -1.425  0.00  0.00    -0.166 F 
ENDBRANCH  11  15
ENDBRANCH   3   8
BRANCH   6  19
ATOM     19  C   UNL     1      -5.454   3.492   7.810  0.00  0.00    -0.046 C 
BRANCH  19  20
ATOM     20  C   UNL     1      -4.740   4.705   8.410  0.00  0.00    +0.108 C 
BRANCH  20  21
ATOM     21  O   UNL     1      -4.879   5.822   7.529  0.00  0.00    -0.393 OA
ATOM     22  H   UNL     1      -5.795   6.083   7.366  0.00  0.00    +0.210 HD
ENDBRANCH  20  21
BRANCH  20  23
ATOM     23  C   UNL     1      -5.362   5.044   9.766  0.00  0.00    +0.103 C 
BRANCH  23  24
ATOM     24  S   UNL     1      -4.515   6.483  10.476  0.00  0.00    -0.123 S 
BRANCH  24  28
ATOM     25  C   UNL     1      -6.622   7.152  14.429  0.00  0.00    +0.000 A 
ATOM     26  C   UNL     1      -5.585   7.986  14.050  0.00  0.00    +0.001 A 
ATOM     27  C   UNL     1      -4.941   7.785  12.846  0.00  0.00    +0.015 A 
ATOM     28  C   UNL     1      -5.335   6.743  12.014  0.00  0.00    +0.008 A 
ATOM     29  C   UNL     1      -6.380   5.911  12.396  0.00  0.00    +0.015 A 
ATOM     30  C   UNL     1      -7.016   6.115  13.604  0.00  0.00    +0.001 A 
ENDBRANCH  24  28
ENDBRANCH  23  24
ENDBRANCH  20  23
ENDBRANCH  19  20
ENDBRANCH   6  19
TORSDOF 8
