REMARK  Name = ZINC37121468
REMARK  5 active torsions:
REMARK  status: ('A' for Active; 'I' for Inactive)
REMARK    1  A    between atoms: C_1  and  C_2
REMARK    2  A    between atoms: C_2  and  C_4
REMARK    3  A    between atoms: C_2  and  N_13
REMARK    4  A    between atoms: C_8  and  N_10
REMARK    5  A    between atoms: N_13  and  C_14
REMARK                            x       y       z     vdW  Elec       q    Type
REMARK                         _______ _______ _______ _____ _____    ______ ____
ROOT
ATOM      1  C   UNL     1      -0.019   1.526   0.010  0.00  0.00    +0.033 C 
ATOM      2  C   UNL     1       0.002  -0.004   0.002  0.00  0.00    +0.098 C 
ENDROOT
BRANCH   2   3
ATOM      3  C   UNL     1       0.707  -0.490  -1.238  0.00  0.00    -0.025 A 
ATOM      4  C   UNL     1       0.037  -0.522  -2.447  0.00  0.00    +0.005 A 
ATOM      5  C   UNL     1       0.684  -0.967  -3.584  0.00  0.00    +0.003 A 
ATOM      6  C   UNL     1       2.002  -1.381  -3.513  0.00  0.00    +0.033 A 
ATOM      7  C   UNL     1       2.672  -1.349  -2.304  0.00  0.00    +0.127 A 
ATOM      8  C   UNL     1       2.026  -0.899  -1.167  0.00  0.00    +0.038 A 
BRANCH   7   9
ATOM      9  N   UNL     1       4.082  -1.792  -2.228  0.00  0.00    +0.056 N 
ATOM     10  O   UNL     1       4.647  -2.183  -3.222  0.00  0.00    -0.126 OA
ATOM     11  O   UNL     1       4.668  -1.764  -1.171  0.00  0.00    -0.126 OA
ENDBRANCH   7   9
ENDBRANCH   2   3
BRANCH   2  12
ATOM     12  N   UNL     1      -1.372  -0.511   0.012  0.00  0.00    -0.336 N 
ATOM     13  H   UNL     1      -1.810  -0.743  -0.822  0.00  0.00    +0.147 HD
BRANCH  12  14
ATOM     14  C   UNL     1      -2.053  -0.660   1.224  0.00  0.00    +0.043 A 
ATOM     15  C   UNL     1      -1.430  -0.323   2.418  0.00  0.00    +0.039 A 
ATOM     16  C   UNL     1      -2.105  -0.472   3.614  0.00  0.00    +0.020 A 
ATOM     17  C   UNL     1      -3.402  -0.957   3.623  0.00  0.00    +0.016 A 
ATOM     18  C   UNL     1      -4.025  -1.294   2.435  0.00  0.00    +0.018 A 
ATOM     19  C   UNL     1      -3.357  -1.141   1.235  0.00  0.00    +0.039 A 
ATOM     20 BR   UNL     1      -4.213  -1.595  -0.389  0.00  0.00    -0.048 Br
ATOM     21 BR   UNL     1      -1.258  -0.014   5.241  0.00  0.00    -0.050 Br
ENDBRANCH  12  14
ENDBRANCH   2  12
TORSDOF 4
