REMARK  Name = ZINC22288964
REMARK  9 active torsions:
REMARK  status: ('A' for Active; 'I' for Inactive)
REMARK    1  A    between atoms: C_1  and  C_2
REMARK    2  A    between atoms: C_2  and  C_3
REMARK    3  A    between atoms: C_3  and  C_5
REMARK    4  A    between atoms: C_3  and  C_6
REMARK    5  A    between atoms: C_6  and  C_8
REMARK    6  A    between atoms: C_6  and  N_23
REMARK    7  A    between atoms: C_13  and  C_16
REMARK    8  A    between atoms: C_16  and  N_17
REMARK    9  A    between atoms: C_24  and  C_26
REMARK                            x       y       z     vdW  Elec       q    Type
REMARK                         _______ _______ _______ _____ _____    ______ ____
ROOT
ATOM      1  C   UNL     1       3.256  -0.757   2.228  0.00  0.00    +0.239 C 
ATOM      2  O   UNL     1       3.973  -0.050   2.904  0.00  0.00    -0.273 OA
ATOM      3  N   UNL     1       3.292  -2.095   2.380  0.00  0.00    -0.263 N 
ATOM      4  C   UNL     1       4.073  -2.660   3.381  0.00  0.00    +0.165 A 
ATOM      5  N   UNL     1       4.234  -3.933   3.672  0.00  0.00    -0.231 NA
ATOM      6  C   UNL     1       5.019  -4.313   4.664  0.00  0.00    +0.034 A 
ATOM      7  C   UNL     1       5.645  -3.334   5.362  0.00  0.00    +0.070 A 
ATOM      8  S   UNL     1       5.048  -1.883   4.511  0.00  0.00    -0.060 S 
ATOM      9  H   UNL     1       2.773  -2.664   1.791  0.00  0.00    +0.157 HD
ENDROOT
BRANCH   1  10
ATOM     10  C   UNL     1       2.324  -0.138   1.219  0.00  0.00    +0.162 C 
BRANCH  10  11
ATOM     11  N   UNL     1       2.488   1.318   1.231  0.00  0.00    -0.300 N 
ATOM     12  C   UNL     1       2.391   2.017   0.083  0.00  0.00    +0.245 C 
ATOM     13  O   UNL     1       2.080   1.452  -0.948  0.00  0.00    -0.270 OA
ATOM     14  H   UNL     1       2.666   1.779   2.066  0.00  0.00    +0.150 HD
BRANCH  12  15
ATOM     15  C   UNL     1       2.664   3.470   0.076  0.00  0.00    +0.037 A 
ATOM     16  C   UNL     1       3.026   4.120   1.257  0.00  0.00    +0.013 A 
ATOM     17  C   UNL     1       3.280   5.476   1.244  0.00  0.00    +0.001 A 
ATOM     18  C   UNL     1       3.174   6.192   0.064  0.00  0.00    +0.000 A 
ATOM     19  C   UNL     1       2.814   5.553  -1.110  0.00  0.00    +0.001 A 
ATOM     20  C   UNL     1       2.564   4.196  -1.112  0.00  0.00    +0.013 A 
ENDBRANCH  12  15
ENDBRANCH  10  11
BRANCH  10  21
ATOM     21  C   UNL     1       0.878  -0.491   1.576  0.00  0.00    +0.015 C 
ATOM     22  C   UNL     1      -0.052  -0.025   0.454  0.00  0.00    +0.010 C 
BRANCH  21  24
ATOM     23  C   UNL     1       1.302  -0.387   4.036  0.00  0.00    +0.004 C 
ATOM     24  C   UNL     1       0.490   0.206   2.882  0.00  0.00    +0.002 C 
ENDBRANCH  21  24
ENDBRANCH  10  21
ENDBRANCH   1  10
BRANCH   6  25
ATOM     25  C   UNL     1       5.209  -5.768   5.004  0.00  0.00    -0.022 C 
BRANCH  25  26
ATOM     26  N   UNL     1       4.127  -6.208   5.895  0.00  0.00    +0.383 N 
ATOM     27  C   UNL     1       4.221  -5.487   7.170  0.00  0.00    -0.078 C 
ATOM     28  C   UNL     1       3.049  -5.882   8.071  0.00  0.00    -0.019 C 
ATOM     29  C   UNL     1       3.097  -7.390   8.331  0.00  0.00    -0.004 C 
ATOM     30  C   UNL     1       3.074  -8.130   6.990  0.00  0.00    -0.019 C 
ATOM     31  C   UNL     1       4.245  -7.652   6.129  0.00  0.00    -0.078 C 
ATOM     32  H   UNL     1       3.236  -6.010   5.463  0.00  0.00    -0.081 HD
ENDBRANCH  25  26
ENDBRANCH   6  25
TORSDOF 7
