REMARK  Name = ZINC12800007
REMARK  14 active torsions:
REMARK  status: ('A' for Active; 'I' for Inactive)
REMARK    1  A    between atoms: C_1  and  C_2
REMARK    2  A    between atoms: C_2  and  O_3
REMARK    3  A    between atoms: O_3  and  C_4
REMARK    4  A    between atoms: C_4  and  C_6
REMARK    5  A    between atoms: C_7  and  C_20
REMARK    6  A    between atoms: C_12  and  C_14
REMARK    7  A    between atoms: C_17  and  C_19
REMARK    8  A    between atoms: C_20  and  O_21
REMARK    9  A    between atoms: O_21  and  C_22
REMARK   10  A    between atoms: C_22  and  C_24
REMARK   11  A    between atoms: C_24  and  N_25
REMARK   12  A    between atoms: C_26  and  C_28
REMARK   13  A    between atoms: C_32  and  O_34
REMARK   14  A    between atoms: O_34  and  C_35
REMARK                            x       y       z     vdW  Elec       q    Type
REMARK                         _______ _______ _______ _____ _____    ______ ____
ROOT
ATOM      1  C   UNL     1       4.618  11.891   1.125  0.00  0.00    +0.084 C 
ATOM      2  C   UNL     1       4.344  11.254  -0.035  0.00  0.00    +0.061 C 
ATOM      3  N   UNL     1       3.961  11.948  -1.146  0.00  0.00    -0.269 N 
ATOM      4  C   UNL     1       3.816  13.279  -1.178  0.00  0.00    +0.305 C 
ATOM      5  O   UNL     1       3.465  13.808  -2.214  0.00  0.00    -0.252 OA
ATOM      6  N   UNL     1       4.054  14.052  -0.099  0.00  0.00    -0.285 N 
ATOM      7  C   UNL     1       4.479  13.399   1.151  0.00  0.00    +0.179 C 
ATOM      8  H   UNL     1       3.778  11.449  -1.958  0.00  0.00    +0.156 HD
ATOM      9  H   UNL     1       3.947  15.015  -0.145  0.00  0.00    +0.151 HD
ENDROOT
BRANCH   7  10
ATOM     10  C   UNL     1       3.482  13.756   2.223  0.00  0.00    +0.130 A 
ATOM     11  C   UNL     1       3.780  14.186   3.462  0.00  0.00    +0.047 A 
ATOM     12  C   UNL     1       2.551  14.399   4.128  0.00  0.00    +0.045 A 
ATOM     13  C   UNL     1       1.576  14.086   3.256  0.00  0.00    +0.102 A 
ATOM     14  O   UNL     1       2.146  13.703   2.102  0.00  0.00    -0.463 OA
ATOM     15  C   UNL     1       0.095  14.161   3.526  0.00  0.00    +0.086 C 
ENDBRANCH   7  10
BRANCH   1  16
ATOM     16  C   UNL     1       5.020  11.173   2.275  0.00  0.00    +0.339 C 
ATOM     17  O   UNL     1       6.195  11.138   2.590  0.00  0.00    -0.245 OA
BRANCH  16  18
ATOM     18  O   UNL     1       4.101  10.529   3.024  0.00  0.00    -0.462 OA
BRANCH  18  20
ATOM     19  C   UNL     1       3.401   9.162   4.890  0.00  0.00    +0.048 C 
ATOM     20  C   UNL     1       4.579   9.824   4.173  0.00  0.00    +0.229 C 
ENDBRANCH  18  20
ENDBRANCH  16  18
ENDBRANCH   1  16
BRANCH   2  21
ATOM     21  C   UNL     1       4.470   9.754  -0.104  0.00  0.00    +0.283 C 
BRANCH  21  22
ATOM     22  O   UNL     1       3.161   9.169  -0.337  0.00  0.00    -0.458 OA
BRANCH  22  23
ATOM     23  C   UNL     1       3.099   7.831  -0.426  0.00  0.00    +0.325 C 
ATOM     24  O   UNL     1       4.104   7.171  -0.312  0.00  0.00    -0.249 OA
BRANCH  23  25
ATOM     25  C   UNL     1       1.775   7.153  -0.666  0.00  0.00    +0.225 C 
BRANCH  25  26
ATOM     26  N   UNL     1       1.972   5.702  -0.722  0.00  0.00    -0.301 N 
ATOM     27  C   UNL     1       0.920   4.886  -0.930  0.00  0.00    +0.245 C 
ATOM     28  O   UNL     1      -0.193   5.354  -1.071  0.00  0.00    -0.270 OA
ATOM     29  H   UNL     1       2.861   5.329  -0.609  0.00  0.00    +0.150 HD
BRANCH  27  30
ATOM     30  C   UNL     1       1.119   3.422  -0.986  0.00  0.00    +0.040 A 
ATOM     31  C   UNL     1       2.396   2.883  -0.824  0.00  0.00    +0.013 A 
ATOM     32  C   UNL     1       2.579   1.516  -0.878  0.00  0.00    +0.004 A 
ATOM     33  C   UNL     1       1.500   0.678  -1.091  0.00  0.00    +0.046 A 
ATOM     34  C   UNL     1       0.227   1.206  -1.258  0.00  0.00    +0.128 A 
ATOM     35  C   UNL     1       0.032   2.576  -1.202  0.00  0.00    +0.059 A 
BRANCH  34  36
ATOM     36  O   UNL     1      -0.829   0.378  -1.473  0.00  0.00    -0.434 OA
BRANCH  36  37
ATOM     37  C   UNL     1      -0.556  -1.024  -1.514  0.00  0.00    +0.541 C 
ATOM     38  F   UNL     1       0.348  -1.293  -2.546  0.00  0.00    -0.166 F 
ATOM     39  F   UNL     1      -0.004  -1.428  -0.293  0.00  0.00    -0.166 F 
ENDBRANCH  36  37
ENDBRANCH  34  36
ENDBRANCH  27  30
ENDBRANCH  25  26
ENDBRANCH  23  25
ENDBRANCH  22  23
ENDBRANCH  21  22
ENDBRANCH   2  21
TORSDOF 12
