REMARK  Name = ZINC41583980
REMARK  11 active torsions:
REMARK  status: ('A' for Active; 'I' for Inactive)
REMARK    1  A    between atoms: C_1  and  C_2
REMARK    2  A    between atoms: C_2  and  O_3
REMARK    3  A    between atoms: O_3  and  C_4
REMARK    4  A    between atoms: C_9  and  O_10
REMARK    5  A    between atoms: O_10  and  C_11
REMARK    6  A    between atoms: C_12  and  C_34
REMARK    7  A    between atoms: C_20  and  O_33
REMARK    8  A    between atoms: C_21  and  C_22
REMARK    9  A    between atoms: C_22  and  N_23
REMARK   10  A    between atoms: C_25  and  C_32
REMARK   11  A    between atoms: C_28  and  C_31
REMARK                            x       y       z     vdW  Elec       q    Type
REMARK                         _______ _______ _______ _____ _____    ______ ____
ROOT
ATOM      1  C   UNL     1      -5.134  -2.087   0.088  0.00  0.00    +0.213 A 
ATOM      2  C   UNL     1      -5.337  -3.417   0.164  0.00  0.00    +0.148 A 
ATOM      3  O   UNL     1      -6.560  -3.961   0.219  0.00  0.00    -0.456 OA
ATOM      4  C   UNL     1      -7.684  -3.216   0.202  0.00  0.00    +0.144 A 
ATOM      5  C   UNL     1      -7.592  -1.815   0.124  0.00  0.00    +0.068 A 
ATOM      6  C   UNL     1      -6.252  -1.205   0.069  0.00  0.00    +0.235 A 
ATOM      7  O   UNL     1      -6.106   0.004   0.005  0.00  0.00    -0.283 OA
ATOM      8  C   UNL     1      -8.748  -1.033   0.106  0.00  0.00    +0.019 A 
ATOM      9  C   UNL     1      -9.973  -1.634   0.165  0.00  0.00    +0.046 A 
ATOM     10  C   UNL     1     -10.074  -3.022   0.242  0.00  0.00    +0.122 A 
ATOM     11  C   UNL     1      -8.936  -3.811   0.260  0.00  0.00    +0.020 A 
ATOM     12  C   UNL     1      -4.139  -4.331   0.188  0.00  0.00    +0.090 C 
ENDROOT
BRANCH  10  13
ATOM     13  O   UNL     1     -11.298  -3.605   0.300  0.00  0.00    -0.506 OA
ATOM     14  H   UNL     1     -11.672  -3.821  -0.565  0.00  0.00    +0.292 HD
ENDBRANCH  10  13
BRANCH   1  15
ATOM     15  O   UNL     1      -3.868  -1.589   0.035  0.00  0.00    -0.445 OA
BRANCH  15  21
ATOM     16  C   UNL     1      -2.231  -0.345  -1.171  0.00  0.00    +0.163 A 
ATOM     17  C   UNL     1      -1.828   0.274  -2.343  0.00  0.00    +0.049 A 
ATOM     18  C   UNL     1      -2.659   0.269  -3.449  0.00  0.00    +0.004 A 
ATOM     19  C   UNL     1      -3.892  -0.353  -3.388  0.00  0.00    +0.004 A 
ATOM     20  C   UNL     1      -4.300  -0.973  -2.221  0.00  0.00    +0.050 A 
ATOM     21  C   UNL     1      -3.470  -0.976  -1.111  0.00  0.00    +0.170 A 
BRANCH  16  22
ATOM     22  O   UNL     1      -1.415  -0.341  -0.083  0.00  0.00    -0.489 OA
BRANCH  22  24
ATOM     23  C   UNL     1       0.615   0.225   1.099  0.00  0.00    +0.048 C 
ATOM     24  C   UNL     1      -0.158   0.326  -0.217  0.00  0.00    +0.226 C 
ENDBRANCH  22  24
ENDBRANCH  16  22
ENDBRANCH  15  21
ENDBRANCH   1  15
BRANCH  11  25
ATOM     25  C   UNL     1      -9.057  -5.311   0.344  0.00  0.00    -0.036 C 
BRANCH  25  26
ATOM     26  N   UNL     1      -9.067  -5.724   1.754  0.00  0.00    +0.383 N 
ATOM     27  C   UNL     1      -7.775  -5.396   2.367  0.00  0.00    -0.075 C 
ATOM     28  C   UNL     1      -7.808  -5.749   3.856  0.00  0.00    -0.031 C 
ATOM     29  C   UNL     1      -8.084  -7.247   4.013  0.00  0.00    +0.003 C 
ATOM     30  C   UNL     1      -9.398  -7.592   3.305  0.00  0.00    -0.031 C 
ATOM     31  C   UNL     1      -9.305  -7.170   1.837  0.00  0.00    -0.075 C 
ATOM     32  C   UNL     1     -10.552  -6.848   3.980  0.00  0.00    +0.005 C 
ATOM     33  C   UNL     1      -6.460  -5.408   4.492  0.00  0.00    +0.005 C 
ATOM     34  H   UNL     1      -9.803  -5.234   2.241  0.00  0.00    -0.081 HD
ENDBRANCH  25  26
ENDBRANCH  11  25
TORSDOF 7
