REMARK  Name = ZINC38603886
REMARK  8 active torsions:
REMARK  status: ('A' for Active; 'I' for Inactive)
REMARK    1  A    between atoms: C_1  and  C_2
REMARK    2  A    between atoms: C_2  and  C_4
REMARK    3  A    between atoms: C_2  and  N_21
REMARK    4  A    between atoms: N_6  and  C_7
REMARK    5  A    between atoms: C_15  and  C_17
REMARK    6  A    between atoms: C_17  and  O_19
REMARK    7  A    between atoms: O_19  and  C_20
REMARK    8  A    between atoms: N_24  and  C_27
REMARK                            x       y       z     vdW  Elec       q    Type
REMARK                         _______ _______ _______ _____ _____    ______ ____
ROOT
ATOM      1  C   UNL     1       0.573  -0.514   1.302  0.00  0.00    +0.234 C 
ATOM      2  O   UNL     1       1.429  -1.354   1.120  0.00  0.00    -0.274 OA
ATOM      3  N   UNL     1       0.279  -0.114   2.554  0.00  0.00    -0.285 N 
ATOM      4  H   UNL     1      -0.370   0.593   2.698  0.00  0.00    +0.155 HD
ENDROOT
BRANCH   3   5
ATOM      5  C   UNL     1       0.892  -0.701   3.620  0.00  0.00    +0.053 C 
ATOM      6  C   UNL     1       0.527  -0.604   4.952  0.00  0.00    +0.018 A 
ATOM      7  C   UNL     1      -0.523   0.083   5.607  0.00  0.00    +0.011 A 
ATOM      8  C   UNL     1      -0.643  -0.002   6.955  0.00  0.00    +0.001 A 
ATOM      9  C   UNL     1       0.248  -0.755   7.724  0.00  0.00    +0.002 A 
ATOM     10  C   UNL     1       1.276  -1.438   7.165  0.00  0.00    +0.026 A 
ATOM     11  C   UNL     1       1.468  -1.399   5.759  0.00  0.00    +0.045 A 
ATOM     12  N   UNL     1       2.373  -1.965   4.987  0.00  0.00    -0.367 N 
ATOM     13  C   UNL     1       2.108  -1.599   3.591  0.00  0.00    +0.234 C 
ATOM     14  H   UNL     1       3.096  -2.535   5.291  0.00  0.00    +0.161 HD
BRANCH  13  15
ATOM     15  C   UNL     1       3.289  -0.857   3.019  0.00  0.00    +0.335 C 
ATOM     16  O   UNL     1       4.143  -0.422   3.755  0.00  0.00    -0.248 OA
BRANCH  15  17
ATOM     17  O   UNL     1       3.391  -0.679   1.693  0.00  0.00    -0.466 OA
ATOM     18  C   UNL     1       4.536   0.033   1.220  0.00  0.00    +0.280 C 
ENDBRANCH  15  17
ENDBRANCH  13  15
ENDBRANCH   3   5
BRANCH   1  20
ATOM     19  C   UNL     1       0.069   1.593   0.096  0.00  0.00    +0.034 C 
ATOM     20  C   UNL     1      -0.161   0.080   0.128  0.00  0.00    +0.140 C 
BRANCH  20  21
ATOM     21  N   UNL     1       0.339  -0.518  -1.117  0.00  0.00    -0.295 NA
ATOM     22  C   UNL     1       1.770  -0.237  -1.298  0.00  0.00    +0.066 C 
ATOM     23  C   UNL     1       2.265  -0.926  -2.572  0.00  0.00    -0.063 C 
ATOM     24  N   UNL     1       1.502  -0.430  -3.724  0.00  0.00    +0.383 N 
ATOM     25  C   UNL     1       0.078  -0.740  -3.541  0.00  0.00    -0.063 C 
ATOM     26  C   UNL     1      -0.435  -0.049  -2.275  0.00  0.00    +0.066 C 
ATOM     27  H   UNL     1       1.621   0.569  -3.802  0.00  0.00    -0.081 HD
BRANCH  24  28
ATOM     28  C   UNL     1       1.989  -1.078  -4.949  0.00  0.00    -0.068 C 
ATOM     29  C   UNL     1       3.472  -0.754  -5.142  0.00  0.00    -0.015 C 
ATOM     30  C   UNL     1       3.980  -1.429  -6.418  0.00  0.00    -0.002 C 
ATOM     31  C   UNL     1       3.185  -0.913  -7.619  0.00  0.00    -0.000 C 
ATOM     32  C   UNL     1       1.702  -1.237  -7.426  0.00  0.00    -0.002 C 
ATOM     33  C   UNL     1       1.194  -0.562  -6.150  0.00  0.00    -0.015 C 
ENDBRANCH  24  28
ENDBRANCH  20  21
ENDBRANCH   1  20
TORSDOF 6
