REMARK  Name = ZINC39202462
REMARK  3 active torsions:
REMARK  status: ('A' for Active; 'I' for Inactive)
REMARK    1  A    between atoms: C_15  and  N_16
REMARK    2  A    between atoms: N_19  and  C_22
REMARK    3  A    between atoms: C_22  and  C_23
REMARK                            x       y       z     vdW  Elec       q    Type
REMARK                         _______ _______ _______ _____ _____    ______ ____
ROOT
ATOM      1  N   UNL     1       4.461  -0.186   1.001  0.00  0.00    -0.295 NA
ATOM      2  C   UNL     1       4.536   1.280   1.065  0.00  0.00    +0.067 C 
ATOM      3  C   UNL     1       5.257   1.696   2.349  0.00  0.00    -0.063 C 
ATOM      4  N   UNL     1       6.608   1.119   2.361  0.00  0.00    +0.384 N 
ATOM      5  C   UNL     1       6.516  -0.347   2.321  0.00  0.00    -0.063 C 
ATOM      6  C   UNL     1       5.805  -0.779   1.037  0.00  0.00    +0.067 C 
ATOM      7  H   UNL     1       7.120   1.445   1.555  0.00  0.00    -0.081 HD
ENDROOT
BRANCH   1  22
ATOM      8  C   UNL     1       4.574   2.282  -3.163  0.00  0.00    +0.000 A 
ATOM      9  C   UNL     1       5.573   1.564  -2.530  0.00  0.00    +0.000 A 
ATOM     10  C   UNL     1       5.220   0.656  -1.564  0.00  0.00    +0.006 A 
ATOM     11  C   UNL     1       3.874   0.456  -1.192  0.00  0.00    -0.023 A 
ATOM     12  C   UNL     1       2.915   1.179  -1.759  0.00  0.00    -0.042 A 
ATOM     13  C   UNL     1       3.271   2.086  -2.785  0.00  0.00    +0.004 A 
ATOM     14  C   UNL     1       1.433   1.298  -1.479  0.00  0.00    +0.040 C 
ATOM     15  C   UNL     1       0.723  -0.006  -1.295  0.00  0.00    +0.040 C 
ATOM     16  C   UNL     1       1.211  -0.834  -0.126  0.00  0.00    -0.042 A 
ATOM     17  C   UNL     1       0.099  -1.329   0.597  0.00  0.00    +0.004 A 
ATOM     18  C   UNL     1       0.244  -2.163   1.674  0.00  0.00    +0.000 A 
ATOM     19  C   UNL     1       1.516  -2.546   2.062  0.00  0.00    +0.000 A 
ATOM     20  C   UNL     1       2.593  -2.047   1.373  0.00  0.00    +0.006 A 
ATOM     21  C   UNL     1       2.431  -1.155   0.291  0.00  0.00    -0.023 A 
ATOM     22  C   UNL     1       3.724  -0.624  -0.192  0.00  0.00    +0.118 C 
ENDBRANCH   1  22
BRANCH   4  23
ATOM     23  C   UNL     1       7.306   1.532   3.585  0.00  0.00    -0.041 C 
BRANCH  23  24
ATOM     24  C   UNL     1       8.731   1.043   3.540  0.00  0.00    -0.046 A 
ATOM     25  C   UNL     1       9.091  -0.101   4.227  0.00  0.00    +0.004 A 
ATOM     26  C   UNL     1      10.397  -0.550   4.186  0.00  0.00    +0.020 A 
ATOM     27  C   UNL     1      11.346   0.145   3.458  0.00  0.00    +0.042 A 
ATOM     28  C   UNL     1      10.987   1.290   2.770  0.00  0.00    +0.040 A 
ATOM     29  C   UNL     1       9.678   1.736   2.807  0.00  0.00    +0.044 A 
ATOM     30 CL   UNL     1       9.224   3.170   1.939  0.00  0.00    -0.083 Cl
ATOM     31 CL   UNL     1      12.987  -0.419   3.407  0.00  0.00    -0.083 Cl
ENDBRANCH  23  24
ENDBRANCH   4  23
TORSDOF 3
