REMARK  Name = ZINC05635604
REMARK  4 active torsions:
REMARK  status: ('A' for Active; 'I' for Inactive)
REMARK    1  A    between atoms: N_9  and  C_10
REMARK    2  A    between atoms: C_10  and  C_12
REMARK    3  A    between atoms: C_10  and  C_20
REMARK    4  A    between atoms: C_12  and  C_13
REMARK                            x       y       z     vdW  Elec       q    Type
REMARK                         _______ _______ _______ _____ _____    ______ ____
ROOT
ATOM      1  C   UNL     1      -1.160  -0.897   0.008  0.00  0.00    +0.164 C 
ENDROOT
BRANCH   1  10
ATOM      2  C   UNL     1       4.089  -0.459  -0.039  0.00  0.00    +0.002 A 
ATOM      3  C   UNL     1       3.351  -1.636  -0.039  0.00  0.00    +0.002 A 
ATOM      4  C   UNL     1       1.985  -1.601  -0.026  0.00  0.00    +0.029 A 
ATOM      5  C   UNL     1       1.325  -0.376  -0.013  0.00  0.00    +0.090 A 
ATOM      6  C   UNL     1       2.066   0.818  -0.013  0.00  0.00    +0.113 A 
ATOM      7  C   UNL     1       3.466   0.754  -0.027  0.00  0.00    +0.032 A 
ATOM      8  N   UNL     1       1.190   1.843   0.001  0.00  0.00    -0.129 NA
ATOM      9  N   UNL     1      -0.017   1.399   0.010  0.00  0.00    -0.064 NA
ATOM     10  N   UNL     1       0.002  -0.004   0.002  0.00  0.00    -0.235 N 
ENDBRANCH   1  10
BRANCH   1  11
ATOM     11  C   UNL     1      -1.979  -0.645   1.248  0.00  0.00    +0.085 A 
ATOM     12  C   UNL     1      -2.160   0.553   1.844  0.00  0.00    +0.118 A 
ATOM     13  N   UNL     1      -2.964   0.347   2.932  0.00  0.00    -0.306 N 
ATOM     14  C   UNL     1      -3.465   1.188   3.882  0.00  0.00    +0.092 A 
ATOM     15  C   UNL     1      -4.252   0.717   4.871  0.00  0.00    +0.018 A 
ATOM     16  C   UNL     1      -4.568  -0.651   4.934  0.00  0.00    +0.005 A 
ATOM     17  C   UNL     1      -4.076  -1.500   3.993  0.00  0.00    +0.047 A 
ATOM     18  C   UNL     1      -3.254  -0.992   2.967  0.00  0.00    +0.138 A 
ATOM     19  N   UNL     1      -2.653  -1.570   1.937  0.00  0.00    -0.231 NA
ENDBRANCH   1  11
BRANCH   1  20
ATOM     20  C   UNL     1      -2.015  -0.629  -1.232  0.00  0.00    +0.068 C 
BRANCH  20  21
ATOM     21  C   UNL     1      -3.142  -1.628  -1.290  0.00  0.00    -0.045 A 
ATOM     22  C   UNL     1      -2.969  -2.826  -1.958  0.00  0.00    +0.005 A 
ATOM     23  C   UNL     1      -4.000  -3.745  -2.007  0.00  0.00    +0.020 A 
ATOM     24  C   UNL     1      -5.209  -3.461  -1.396  0.00  0.00    +0.041 A 
ATOM     25  C   UNL     1      -5.383  -2.260  -0.733  0.00  0.00    +0.020 A 
ATOM     26  C   UNL     1      -4.349  -1.344  -0.680  0.00  0.00    +0.005 A 
ATOM     27 CL   UNL     1      -6.507  -4.612  -1.463  0.00  0.00    -0.084 Cl
ENDBRANCH  20  21
ENDBRANCH   1  20
TORSDOF 4
