REMARK  Name = ZINC08919504
REMARK  10 active torsions:
REMARK  status: ('A' for Active; 'I' for Inactive)
REMARK    1  A    between atoms: C_1  and  C_2
REMARK    2  A    between atoms: C_2  and  C_3
REMARK    3  A    between atoms: C_3  and  C_4
REMARK    4  A    between atoms: C_3  and  C_5
REMARK    5  A    between atoms: C_3  and  C_6
REMARK    6  A    between atoms: C_15  and  O_38
REMARK    7  A    between atoms: C_17  and  C_20
REMARK    8  A    between atoms: C_23  and  O_26
REMARK    9  A    between atoms: O_26  and  C_27
REMARK   10  A    between atoms: C_27  and  C_29
REMARK                            x       y       z     vdW  Elec       q    Type
REMARK                         _______ _______ _______ _____ _____    ______ ____
ROOT
ATOM      1  C   UNL     1       0.066  -0.578  -6.975  0.00  0.00    -0.000 C 
ATOM      2  C   UNL     1       1.169  -1.458  -6.381  0.00  0.00    +0.009 C 
ATOM      3  C   UNL     1       1.557  -0.942  -4.995  0.00  0.00    +0.037 C 
ATOM      4  C   UNL     1       0.296  -0.804  -4.150  0.00  0.00    -0.023 A 
ATOM      5  C   UNL     1      -0.925  -0.756  -4.731  0.00  0.00    -0.004 A 
ATOM      6  S   UNL     1      -2.066  -0.597  -3.383  0.00  0.00    -0.078 S 
ATOM      7  C   UNL     1      -0.949  -0.596  -2.087  0.00  0.00    +0.080 A 
ATOM      8  C   UNL     1       0.304  -0.716  -2.700  0.00  0.00    +0.068 A 
ATOM      9  C   UNL     1       1.496  -0.739  -1.814  0.00  0.00    +0.220 C 
ATOM     10  N   UNL     1       1.323  -0.447  -0.554  0.00  0.00    -0.223 NA
ATOM     11  C   UNL     1       0.064  -0.003   0.030  0.00  0.00    +0.224 C 
ATOM     12  N   UNL     1      -1.096  -0.512  -0.725  0.00  0.00    -0.313 N 
ATOM     13  C   UNL     1      -1.234  -0.821  -6.195  0.00  0.00    +0.046 C 
ATOM     14  H   UNL     1      -1.919  -0.773  -0.284  0.00  0.00    +0.149 HD
ENDROOT
BRANCH  11  15
ATOM     15  C   UNL     1       0.027   1.504   0.031  0.00  0.00    -0.005 A 
ATOM     16  C   UNL     1      -1.185   2.164  -0.055  0.00  0.00    +0.011 A 
ATOM     17  C   UNL     1      -1.222   3.545  -0.049  0.00  0.00    +0.047 A 
ATOM     18  C   UNL     1      -0.041   4.269   0.032  0.00  0.00    +0.132 A 
ATOM     19  C   UNL     1       1.174   3.604   0.113  0.00  0.00    +0.047 A 
ATOM     20  C   UNL     1       1.205   2.223   0.112  0.00  0.00    +0.011 A 
BRANCH  18  21
ATOM     21  O   UNL     1      -0.074   5.628   0.033  0.00  0.00    -0.422 OA
BRANCH  21  22
ATOM     22  C   UNL     1       0.414   6.252  -1.057  0.00  0.00    +0.345 C 
ATOM     23  O   UNL     1       0.760   5.603  -2.025  0.00  0.00    -0.245 OA
BRANCH  22  24
ATOM     24  C   UNL     1       0.528   7.722  -1.076  0.00  0.00    +0.063 A 
ATOM     25  C   UNL     1       0.131   8.470   0.036  0.00  0.00    +0.019 A 
ATOM     26  C   UNL     1       0.238   9.843   0.016  0.00  0.00    +0.050 A 
ATOM     27  C   UNL     1       0.742  10.489  -1.105  0.00  0.00    +0.166 A 
ATOM     28  C   UNL     1       1.141   9.748  -2.219  0.00  0.00    +0.167 A 
ATOM     29  C   UNL     1       1.040   8.371  -2.203  0.00  0.00    +0.064 A 
ATOM     30  O   UNL     1       1.592  10.611  -3.176  0.00  0.00    -0.453 OA
ATOM     31  C   UNL     1       1.849  11.848  -2.487  0.00  0.00    +0.466 C 
ATOM     32  O   UNL     1       0.944  11.812  -1.368  0.00  0.00    -0.453 OA
ENDBRANCH  22  24
ENDBRANCH  21  22
ENDBRANCH  18  21
ENDBRANCH  11  15
BRANCH   1  33
ATOM     33  C   UNL     1      -0.141  -0.939  -8.448  0.00  0.00    -0.032 C 
ATOM     34  C   UNL     1       1.162  -0.710  -9.217  0.00  0.00    +0.011 C 
ATOM     35  C   UNL     1      -0.548  -2.409  -8.560  0.00  0.00    +0.011 C 
BRANCH  33  37
ATOM     36  C   UNL     1      -1.450  -0.419 -10.511  0.00  0.00    +0.004 C 
ATOM     37  C   UNL     1      -1.243  -0.058  -9.039  0.00  0.00    +0.003 C 
ENDBRANCH  33  37
ENDBRANCH   1  33
BRANCH   9  38
ATOM     38  O   UNL     1       2.721  -1.052  -2.297  0.00  0.00    -0.492 OA
ATOM     39  H   UNL     1       3.422  -1.035  -1.631  0.00  0.00    +0.294 HD
ENDBRANCH   9  38
TORSDOF 7
