REMARK  Name = ZINC35744526
REMARK  11 active torsions:
REMARK  status: ('A' for Active; 'I' for Inactive)
REMARK    1  A    between atoms: C_1  and  O_2
REMARK    2  A    between atoms: O_2  and  C_3
REMARK    3  A    between atoms: C_3  and  C_4
REMARK    4  A    between atoms: C_4  and  C_6
REMARK    5  A    between atoms: C_4  and  O_29
REMARK    6  A    between atoms: C_6  and  N_7
REMARK    7  A    between atoms: N_7  and  C_8
REMARK    8  A    between atoms: C_8  and  C_10
REMARK    9  A    between atoms: C_8  and  C_17
REMARK   10  A    between atoms: C_10  and  C_11
REMARK   11  A    between atoms: C_19  and  C_22
REMARK                            x       y       z     vdW  Elec       q    Type
REMARK                         _______ _______ _______ _____ _____    ______ ____
ROOT
ATOM      1  C   UNL     1       2.192  -4.520  -3.304  0.00  0.00    +0.023 C 
ENDROOT
BRANCH   1   2
ATOM      2  C   UNL     1       2.296  -5.997  -3.020  0.00  0.00    +0.214 A 
ATOM      3  N   UNL     1       3.340  -6.743  -3.244  0.00  0.00    -0.193 NA
ATOM      4  C   UNL     1       3.088  -8.011  -2.872  0.00  0.00    +0.202 A 
ATOM      5  N   UNL     1       1.866  -8.075  -2.405  0.00  0.00    -0.056 NA
ATOM      6  O   UNL     1       1.333  -6.761  -2.490  0.00  0.00    -0.339 OA
BRANCH   4   7
ATOM      7  C   UNL     1       4.036  -9.148  -2.975  0.00  0.00    +0.023 A 
ATOM      8  C   UNL     1       5.316  -8.946  -3.489  0.00  0.00    +0.013 A 
ATOM      9  C   UNL     1       6.194 -10.007  -3.582  0.00  0.00    +0.016 A 
ATOM     10  C   UNL     1       5.805 -11.269  -3.168  0.00  0.00    +0.018 A 
ATOM     11  C   UNL     1       4.535 -11.474  -2.658  0.00  0.00    +0.016 A 
ATOM     12  C   UNL     1       3.652 -10.419  -2.554  0.00  0.00    +0.013 A 
ATOM     13 BR   UNL     1       7.013 -12.718  -3.300  0.00  0.00    -0.050 Br
ENDBRANCH   4   7
ENDBRANCH   1   2
BRANCH   1  14
ATOM     14  N   UNL     1       1.579  -3.842  -2.154  0.00  0.00    +0.389 N 
ATOM     15  H   UNL     1       2.099  -4.063  -1.318  0.00  0.00    -0.085 HD
ATOM     16  H   UNL     1       0.625  -4.154  -2.049  0.00  0.00    -0.085 HD
BRANCH  14  17
ATOM     17  C   UNL     1       1.599  -2.390  -2.374  0.00  0.00    -0.048 C 
BRANCH  17  18
ATOM     18  C   UNL     1       1.082  -1.677  -1.123  0.00  0.00    +0.123 C 
BRANCH  18  19
ATOM     19  O   UNL     1      -0.256  -2.100  -0.852  0.00  0.00    -0.391 OA
ATOM     20  H   UNL     1      -0.880  -1.911  -1.566  0.00  0.00    +0.210 HD
ENDBRANCH  18  19
BRANCH  18  21
ATOM     21  C   UNL     1       1.103  -0.165  -1.352  0.00  0.00    +0.188 C 
BRANCH  21  23
ATOM     22  C   UNL     1       0.720   1.930  -0.252  0.00  0.00    +0.194 C 
ATOM     23  O   UNL     1       0.732   0.505  -0.146  0.00  0.00    -0.381 OA
ENDBRANCH  21  23
ENDBRANCH  18  21
ENDBRANCH  17  18
ENDBRANCH  14  17
ENDBRANCH   1  14
BRANCH   1  24
ATOM     24  C   UNL     1       1.326  -4.300  -4.547  0.00  0.00    +0.029 C 
BRANCH  24  25
ATOM     25  C   UNL     1       2.011  -4.897  -5.749  0.00  0.00    -0.048 A 
ATOM     26  C   UNL     1       2.973  -4.173  -6.427  0.00  0.00    +0.003 A 
ATOM     27  C   UNL     1       3.602  -4.721  -7.529  0.00  0.00    +0.000 A 
ATOM     28  C   UNL     1       3.268  -5.993  -7.954  0.00  0.00    +0.000 A 
ATOM     29  C   UNL     1       2.307  -6.718  -7.275  0.00  0.00    +0.000 A 
ATOM     30  C   UNL     1       1.681  -6.172  -6.170  0.00  0.00    +0.003 A 
ENDBRANCH  24  25
ENDBRANCH   1  24
TORSDOF 10
