REMARK  Name = ZINC63633459
REMARK  5 active torsions:
REMARK  status: ('A' for Active; 'I' for Inactive)
REMARK    1  A    between atoms: C_1  and  C_2
REMARK    2  A    between atoms: C_8  and  C_28
REMARK    3  A    between atoms: N_16  and  C_17
REMARK    4  A    between atoms: C_17  and  C_18
REMARK    5  A    between atoms: C_18  and  C_19
REMARK                            x       y       z     vdW  Elec       q    Type
REMARK                         _______ _______ _______ _____ _____    ______ ____
ROOT
ATOM      1  C   UNL     1       0.198   1.548  -0.058  0.00  0.00    +0.024 C 
ATOM      2  C   UNL     1       0.160   0.018  -0.050  0.00  0.00    +0.062 C 
ATOM      3  C   UNL     1       0.888  -0.523  -1.288  0.00  0.00    +0.114 C 
ATOM      4  C   UNL     1       0.900  -2.029  -1.193  0.00  0.00    +0.221 C 
ATOM      5  O   UNL     1       1.000  -2.692  -2.204  0.00  0.00    -0.275 OA
ATOM      6  N   UNL     1       0.801  -2.642  -0.006  0.00  0.00    -0.244 N 
ATOM      7  C   UNL     1       0.677  -4.110   0.043  0.00  0.00    +0.230 C 
ATOM      8  N   UNL     1      -0.360  -4.472   1.008  0.00  0.00    -0.228 NA
ATOM      9  C   UNL     1      -0.838  -3.653   1.886  0.00  0.00    +0.180 C 
ATOM     10  N   UNL     1      -0.435  -2.341   1.981  0.00  0.00    -0.286 N 
ATOM     11  C   UNL     1       0.790  -1.934   1.274  0.00  0.00    +0.239 C 
ATOM     12  N   UNL     1       0.844  -0.487   1.145  0.00  0.00    -0.280 NA
ATOM     13  N   UNL     1      -1.791  -4.114   2.764  0.00  0.00    -0.317 N 
ATOM     14  H   UNL     1      -0.946  -1.701   2.500  0.00  0.00    +0.152 HD
ATOM     15  H   UNL     1      -2.164  -3.517   3.432  0.00  0.00    +0.149 HD
ATOM     16  H   UNL     1       1.796  -0.157   1.183  0.00  0.00    +0.125 HD
ENDROOT
BRANCH   7  17
ATOM     17  C   UNL     1       0.301  -4.630  -1.321  0.00  0.00    -0.005 A 
ATOM     18  C   UNL     1       1.196  -5.401  -2.038  0.00  0.00    +0.007 A 
ATOM     19  C   UNL     1       0.851  -5.878  -3.288  0.00  0.00    +0.000 A 
ATOM     20  C   UNL     1      -0.390  -5.583  -3.822  0.00  0.00    +0.000 A 
ATOM     21  C   UNL     1      -1.285  -4.812  -3.105  0.00  0.00    +0.000 A 
ATOM     22  C   UNL     1      -0.942  -4.339  -1.853  0.00  0.00    +0.007 A 
ENDBRANCH   7  17
BRANCH  13  23
ATOM     23  C   UNL     1      -2.243  -5.505   2.691  0.00  0.00    +0.108 C 
BRANCH  23  24
ATOM     24  C   UNL     1      -3.297  -5.756   3.770  0.00  0.00    +0.052 C 
BRANCH  24  25
ATOM     25  C   UNL     1      -3.763  -7.188   3.695  0.00  0.00    -0.040 C 
ATOM     26  C   UNL     1      -3.301  -8.232   4.421  0.00  0.00    -0.001 A 
ATOM     27  C   UNL     1      -2.267  -8.343   5.457  0.00  0.00    +0.010 A 
ATOM     28  C   UNL     1      -2.023  -9.551   6.013  0.00  0.00    +0.001 A 
ATOM     29  C   UNL     1      -2.731 -10.697   5.625  0.00  0.00    +0.002 A 
ATOM     30  C   UNL     1      -3.695 -10.675   4.681  0.00  0.00    +0.026 A 
ATOM     31  C   UNL     1      -4.035  -9.457   4.030  0.00  0.00    +0.043 A 
ATOM     32  N   UNL     1      -4.915  -9.181   3.099  0.00  0.00    -0.380 N 
ATOM     33  C   UNL     1      -4.844  -7.746   2.798  0.00  0.00    +0.144 C 
ATOM     34  H   UNL     1      -5.517  -9.817   2.682  0.00  0.00    +0.160 HD
ENDBRANCH  24  25
ENDBRANCH  23  24
ENDBRANCH  13  23
TORSDOF 4
