REMARK  Name = ZINC23696855
REMARK  8 active torsions:
REMARK  status: ('A' for Active; 'I' for Inactive)
REMARK    1  A    between atoms: C_1  and  C_2
REMARK    2  A    between atoms: C_4  and  C_7
REMARK    3  A    between atoms: C_7  and  S_8
REMARK    4  A    between atoms: S_8  and  C_9
REMARK    5  A    between atoms: C_14  and  C_15
REMARK    6  A    between atoms: N_17  and  C_18
REMARK    7  A    between atoms: N_17  and  C_19
REMARK    8  A    between atoms: C_19  and  C_20
REMARK                            x       y       z     vdW  Elec       q    Type
REMARK                         _______ _______ _______ _____ _____    ______ ____
ROOT
ATOM      1  C   UNL     1      -4.087  -1.341  -1.228  0.00  0.00    +0.248 C 
ATOM      2  O   UNL     1      -3.707  -1.935  -2.219  0.00  0.00    -0.270 OA
ATOM      3  N   UNL     1      -3.424  -1.479  -0.064  0.00  0.00    -0.293 N 
ATOM      4  C   UNL     1      -3.821  -0.690   1.105  0.00  0.00    +0.133 C 
ENDROOT
BRANCH   1  10
ATOM      5  C   UNL     1      -6.458  -0.935  -1.893  0.00  0.00    +0.020 A 
ATOM      6  C   UNL     1      -7.571  -0.104  -1.952  0.00  0.00    +0.015 A 
ATOM      7  C   UNL     1      -7.506   1.175  -1.440  0.00  0.00    +0.001 A 
ATOM      8  C   UNL     1      -6.336   1.640  -0.860  0.00  0.00    +0.001 A 
ATOM      9  C   UNL     1      -5.224   0.830  -0.788  0.00  0.00    +0.014 A 
ATOM     10  C   UNL     1      -5.273  -0.469  -1.302  0.00  0.00    +0.050 A 
BRANCH   5  11
ATOM     11  S   UNL     1      -6.536  -2.567  -2.553  0.00  0.00    -0.118 S 
BRANCH  11  12
ATOM     12  C   UNL     1      -8.228  -2.703  -3.192  0.00  0.00    +0.130 C 
BRANCH  12  16
ATOM     13  C   UNL     1      -9.540  -7.521  -2.890  0.00  0.00    +0.073 C 
ATOM     14  C   UNL     1      -9.050  -6.267  -3.568  0.00  0.00    +0.076 A 
ATOM     15  N   UNL     1      -8.870  -5.071  -3.058  0.00  0.00    -0.248 NA
ATOM     16  C   UNL     1      -8.431  -4.070  -3.792  0.00  0.00    +0.059 A 
ATOM     17  C   UNL     1      -8.170  -4.298  -5.105  0.00  0.00    +0.071 A 
ATOM     18  S   UNL     1      -8.581  -6.034  -5.223  0.00  0.00    -0.081 S 
ENDBRANCH  12  16
ENDBRANCH  11  12
ENDBRANCH   5  11
ENDBRANCH   1  10
BRANCH   3  19
ATOM     19  C   UNL     1      -2.305  -2.420   0.035  0.00  0.00    +0.181 C 
BRANCH  19  20
ATOM     20  C   UNL     1      -1.022  -1.714  -0.321  0.00  0.00    +0.128 A 
ATOM     21  N   UNL     1       0.135  -2.425  -0.288  0.00  0.00    -0.309 N 
ATOM     22  H   UNL     1       0.120  -3.488  -0.007  0.00  0.00    +0.170 HD
ATOM     23  C   UNL     1       1.314  -1.837  -0.600  0.00  0.00    +0.259 A 
ATOM     24  O   UNL     1       2.358  -2.461  -0.574  0.00  0.00    -0.267 OA
ATOM     25  C   UNL     1       1.284  -0.414  -0.970  0.00  0.00    +0.065 A 
ATOM     26  C   UNL     1       2.441   0.285  -1.307  0.00  0.00    +0.015 A 
ATOM     27  C   UNL     1       2.355   1.618  -1.645  0.00  0.00    +0.001 A 
ATOM     28  C   UNL     1       1.127   2.267  -1.652  0.00  0.00    +0.002 A 
ATOM     29  C   UNL     1      -0.028   1.595  -1.322  0.00  0.00    +0.028 A 
ATOM     30  C   UNL     1       0.033   0.243  -0.976  0.00  0.00    +0.078 A 
ATOM     31  N   UNL     1      -1.080  -0.458  -0.644  0.00  0.00    -0.232 NA
ENDBRANCH  19  20
ENDBRANCH   3  19
TORSDOF 6
