REMARK  Name = ZINC19941653
REMARK  10 active torsions:
REMARK  status: ('A' for Active; 'I' for Inactive)
REMARK    1  A    between atoms: C_1  and  C_2
REMARK    2  A    between atoms: C_5  and  C_42
REMARK    3  A    between atoms: C_6  and  N_8
REMARK    4  A    between atoms: N_11  and  C_14
REMARK    5  A    between atoms: C_14  and  C_16
REMARK    6  A    between atoms: C_14  and  C_30
REMARK    7  A    between atoms: C_20  and  C_29
REMARK    8  A    between atoms: C_22  and  C_28
REMARK    9  A    between atoms: N_34  and  C_35
REMARK   10  A    between atoms: C_35  and  C_36
REMARK                            x       y       z     vdW  Elec       q    Type
REMARK                         _______ _______ _______ _____ _____    ______ ____
ROOT
ATOM      1  C   UNL     1      -8.158   2.692   1.162  0.00  0.00    +0.162 C 
ENDROOT
BRANCH   1   2
ATOM      2  C   UNL     1      -8.861   1.411   0.796  0.00  0.00    +0.042 A 
ATOM      3  C   UNL     1      -9.890   0.963   1.558  0.00  0.00    +0.021 A 
ATOM      4  C   UNL     1     -10.552  -0.285   1.176  0.00  0.00    -0.001 A 
ATOM      5  C   UNL     1     -11.619  -0.797   1.922  0.00  0.00    +0.013 A 
ATOM      6  C   UNL     1     -12.216  -1.964   1.539  0.00  0.00    -0.050 A 
ATOM      7  C   UNL     1     -11.773  -2.647   0.414  0.00  0.00    +0.008 A 
ATOM      8  C   UNL     1     -10.724  -2.162  -0.336  0.00  0.00    -0.026 A 
ATOM      9  C   UNL     1     -10.100  -0.976   0.035  0.00  0.00    +0.052 A 
ATOM     10  N   UNL     1      -9.049  -0.467  -0.698  0.00  0.00    -0.322 N 
ATOM     11  H   UNL     1      -8.689  -1.003  -1.588  0.00  0.00    +0.169 HD
ATOM     12  C   UNL     1      -8.451   0.683  -0.342  0.00  0.00    +0.254 A 
ATOM     13  O   UNL     1      -7.527   1.106  -1.016  0.00  0.00    -0.268 OA
ATOM     14  C   UNL     1     -10.254  -2.915  -1.555  0.00  0.00    +0.046 C 
ATOM     15  C   UNL     1     -13.365  -2.515   2.343  0.00  0.00    +0.044 C 
ENDBRANCH   1   2
BRANCH   1  19
ATOM     16  N   UNL     1      -4.423   2.221   3.080  0.00  0.00    -0.327 N 
ATOM     17  C   UNL     1      -5.120   1.011   2.622  0.00  0.00    +0.120 C 
ATOM     18  C   UNL     1      -6.604   1.325   2.420  0.00  0.00    +0.104 C 
ATOM     19  N   UNL     1      -6.743   2.412   1.440  0.00  0.00    -0.286 NA
ATOM     20  C   UNL     1      -6.046   3.622   1.898  0.00  0.00    +0.104 C 
ATOM     21  C   UNL     1      -4.562   3.308   2.100  0.00  0.00    +0.120 C 
BRANCH  16  27
ATOM     22  C   UNL     1       0.017   0.864   1.467  0.00  0.00    +0.044 C 
ATOM     23  C   UNL     1      -0.902   1.295   2.581  0.00  0.00    -0.049 A 
ATOM     24  C   UNL     1      -0.412   1.427   3.868  0.00  0.00    +0.004 A 
ATOM     25  C   UNL     1      -1.252   1.822   4.893  0.00  0.00    +0.005 A 
ATOM     26  C   UNL     1      -2.583   2.086   4.635  0.00  0.00    -0.029 A 
ATOM     27  C   UNL     1      -3.078   1.955   3.344  0.00  0.00    +0.033 A 
ATOM     28  C   UNL     1      -2.230   1.563   2.315  0.00  0.00    +0.026 A 
ATOM     29  C   UNL     1      -3.497   2.517   5.753  0.00  0.00    +0.045 C 
ENDBRANCH  16  27
ENDBRANCH   1  19
BRANCH   1  30
ATOM     30  C   UNL     1      -8.802   3.287   2.388  0.00  0.00    +0.173 A 
ATOM     31  N   UNL     1      -8.671   2.867   3.623  0.00  0.00    -0.111 NA
ATOM     32  N   UNL     1      -9.375   3.635   4.380  0.00  0.00    -0.023 NA
ATOM     33  N   UNL     1      -9.953   4.533   3.661  0.00  0.00    -0.044 NA
ATOM     34  N   UNL     1      -9.620   4.355   2.427  0.00  0.00    -0.225 N 
BRANCH  34  35
ATOM     35  C   UNL     1     -10.054   5.162   1.284  0.00  0.00    +0.179 C 
BRANCH  35  36
ATOM     36  C   UNL     1     -11.345   4.577   0.707  0.00  0.00    +0.140 C 
ATOM     37  C   UNL     1     -11.851   5.447  -0.470  0.00  0.00    +0.035 C 
ATOM     38  C   UNL     1     -12.685   4.409  -1.268  0.00  0.00    +0.031 C 
ATOM     39  C   UNL     1     -11.889   3.105  -1.042  0.00  0.00    +0.160 C 
ATOM     40  O   UNL     1     -11.094   3.283   0.136  0.00  0.00    -0.375 OA
ENDBRANCH  35  36
ENDBRANCH  34  35
ENDBRANCH   1  30
TORSDOF 6
