REMARK  Name = ZINC44020704
REMARK  4 active torsions:
REMARK  status: ('A' for Active; 'I' for Inactive)
REMARK    1  A    between atoms: C_1  and  C_2
REMARK    2  A    between atoms: C_10  and  O_25
REMARK    3  A    between atoms: C_11  and  O_24
REMARK    4  A    between atoms: C_21  and  O_23
REMARK                            x       y       z     vdW  Elec       q    Type
REMARK                         _______ _______ _______ _____ _____    ______ ____
ROOT
ATOM      1  C   UNL     1      -0.019   1.526   0.010  0.00  0.00    +0.014 C 
ATOM      2  C   UNL     1       0.002  -0.004   0.002  0.00  0.00    -0.003 C 
ATOM      3  C   UNL     1       0.762  -0.501  -1.213  0.00  0.00    +0.010 C 
ATOM      4  C   UNL     1       2.144   0.171  -1.189  0.00  0.00    +0.009 C 
ATOM      5  C   UNL     1       2.890  -0.116   0.107  0.00  0.00    +0.023 C 
ATOM      6  C   UNL     1       3.332  -1.553   0.148  0.00  0.00    -0.037 A 
ATOM      7  C   UNL     1       3.768  -2.130  -1.039  0.00  0.00    +0.008 A 
ATOM      8  C   UNL     1       4.193  -3.442  -1.072  0.00  0.00    +0.049 A 
ATOM      9  C   UNL     1       4.188  -4.196   0.091  0.00  0.00    +0.159 A 
ATOM     10  C   UNL     1       3.751  -3.623   1.278  0.00  0.00    +0.162 A 
ATOM     11  C   UNL     1       3.321  -2.300   1.305  0.00  0.00    +0.001 A 
ATOM     12  C   UNL     1       2.849  -1.743   2.623  0.00  0.00    +0.039 C 
ATOM     13  C   UNL     1       2.839  -0.216   2.588  0.00  0.00    +0.009 C 
ATOM     14  C   UNL     1       2.054   0.217   1.346  0.00  0.00    +0.000 C 
ATOM     15  C   UNL     1       0.751  -0.527   1.257  0.00  0.00    +0.001 C 
ATOM     16  C   UNL     1      -0.262  -0.234   2.369  0.00  0.00    +0.007 C 
ATOM     17  C   UNL     1      -1.615  -0.639   1.722  0.00  0.00    +0.032 C 
ATOM     18  C   UNL     1      -1.413  -0.541   0.189  0.00  0.00    +0.121 C 
ENDROOT
BRANCH  18  19
ATOM     19  O   UNL     1      -1.536  -1.833  -0.410  0.00  0.00    -0.391 OA
ATOM     20  H   UNL     1      -2.415  -2.225  -0.322  0.00  0.00    +0.210 HD
ENDBRANCH  18  19
BRANCH  10  21
ATOM     21  O   UNL     1       3.744  -4.360   2.421  0.00  0.00    -0.503 OA
ATOM     22  H   UNL     1       4.566  -4.308   2.927  0.00  0.00    +0.292 HD
ENDBRANCH  10  21
BRANCH   9  23
ATOM     23  O   UNL     1       4.608  -5.489   0.069  0.00  0.00    -0.503 OA
ATOM     24  H   UNL     1       5.554  -5.598   0.238  0.00  0.00    +0.292 HD
ENDBRANCH   9  23
TORSDOF 3
