REMARK  Name = ZINC43737444
REMARK  11 active torsions:
REMARK  status: ('A' for Active; 'I' for Inactive)
REMARK    1  A    between atoms: C_1  and  C_2
REMARK    2  A    between atoms: C_2  and  C_5
REMARK    3  A    between atoms: N_3  and  O_4
REMARK    4  A    between atoms: C_5  and  O_34
REMARK    5  A    between atoms: C_6  and  O_33
REMARK    6  A    between atoms: C_11  and  C_32
REMARK    7  A    between atoms: C_21  and  C_31
REMARK    8  A    between atoms: C_24  and  O_27
REMARK    9  A    between atoms: O_27  and  C_28
REMARK   10  A    between atoms: C_28  and  C_30
REMARK   11  A    between atoms: O_34  and  C_35
REMARK                            x       y       z     vdW  Elec       q    Type
REMARK                         _______ _______ _______ _____ _____    ______ ____
ROOT
ATOM      1  C   UNL     1       0.015  -0.590  -1.333  0.00  0.00    +0.141 C 
ATOM      2  C   UNL     1      -1.239  -0.212  -2.160  0.00  0.00    +0.153 C 
ATOM      3  C   UNL     1      -1.904  -1.550  -2.585  0.00  0.00    +0.039 C 
ATOM      4  C   UNL     1      -0.737  -2.543  -2.535  0.00  0.00    +0.004 C 
ATOM      5  C   UNL     1      -0.013  -2.112  -1.232  0.00  0.00    +0.008 C 
ATOM      6  C   UNL     1       1.333  -2.812  -1.219  0.00  0.00    +0.010 C 
ATOM      7  C   UNL     1       1.057  -4.321  -1.116  0.00  0.00    +0.005 C 
ATOM      8  C   UNL     1       0.178  -4.814  -2.262  0.00  0.00    +0.003 C 
ATOM      9  C   UNL     1      -1.121  -4.005  -2.395  0.00  0.00    +0.000 C 
ATOM     10  C   UNL     1      -1.859  -4.465  -3.657  0.00  0.00    +0.031 C 
ATOM     11  C   UNL     1      -2.083  -5.947  -3.587  0.00  0.00    -0.027 C 
ATOM     12  C   UNL     1      -1.317  -6.749  -2.907  0.00  0.00    -0.064 C 
ATOM     13  C   UNL     1      -0.131  -6.290  -2.073  0.00  0.00    -0.008 C 
ATOM     14  C   UNL     1       1.089  -7.134  -2.453  0.00  0.00    +0.015 C 
ATOM     15  C   UNL     1       0.756  -8.616  -2.274  0.00  0.00    +0.046 C 
ATOM     16  C   UNL     1      -0.376  -9.009  -3.224  0.00  0.00    +0.180 C 
ATOM     17  C   UNL     1      -1.639  -8.233  -2.919  0.00  0.00    +0.075 C 
ATOM     18  C   UNL     1      -0.416  -6.532  -0.590  0.00  0.00    +0.016 C 
ATOM     19  C   UNL     1      -0.837  -2.537  -0.015  0.00  0.00    +0.015 C 
ENDROOT
BRANCH   1  21
ATOM     20  C   UNL     1       1.069  -0.174   1.018  0.00  0.00    +0.067 C 
ATOM     21  C   UNL     1      -0.060   0.026   0.040  0.00  0.00    +0.089 C 
ATOM     22  N   UNL     1      -1.082   0.719   0.376  0.00  0.00    -0.094 NA
BRANCH  22  23
ATOM     23  O   UNL     1      -1.153   1.297   1.666  0.00  0.00    -0.409 OA
ATOM     24  H   UNL     1      -1.962   1.802   1.827  0.00  0.00    +0.328 HD
ENDBRANCH  22  23
ENDBRANCH   1  21
BRANCH   2  25
ATOM     25  O   UNL     1      -2.143   0.553  -1.359  0.00  0.00    -0.389 OA
ATOM     26  H   UNL     1      -2.949   0.820  -1.822  0.00  0.00    +0.210 HD
ENDBRANCH   2  25
BRANCH   1  27
ATOM     27  O   UNL     1       1.201  -0.160  -2.004  0.00  0.00    -0.368 OA
ATOM     28  C   UNL     1       1.340   1.260  -2.085  0.00  0.00    +0.195 C 
ENDBRANCH   1  27
BRANCH  16  29
ATOM     29  O   UNL     1      -0.001  -8.693  -4.567  0.00  0.00    -0.461 OA
BRANCH  29  30
ATOM     30  C   UNL     1      -0.511  -9.466  -5.539  0.00  0.00    +0.304 C 
ATOM     31  O   UNL     1      -1.250 -10.380  -5.260  0.00  0.00    -0.251 OA
ATOM     32  C   UNL     1      -0.161  -9.193  -6.979  0.00  0.00    +0.136 C 
ENDBRANCH  29  30
ENDBRANCH  16  29
TORSDOF 6
