REMARK  Name = ZINC39635816
REMARK  6 active torsions:
REMARK  status: ('A' for Active; 'I' for Inactive)
REMARK    1  A    between atoms: C_1  and  C_2
REMARK    2  A    between atoms: C_8  and  N_10
REMARK    3  A    between atoms: C_11  and  C_13
REMARK    4  A    between atoms: C_24  and  C_26
REMARK    5  A    between atoms: C_29  and  O_32
REMARK    6  A    between atoms: O_32  and  C_33
REMARK                            x       y       z     vdW  Elec       q    Type
REMARK                         _______ _______ _______ _____ _____    ______ ____
ROOT
ATOM      1  C   UNL     1       0.443   1.010   4.488  0.00  0.00    +0.100 C 
ATOM      2  C   UNL     1      -0.263   2.384   4.506  0.00  0.00    +0.121 C 
ATOM      3  N   UNL     1      -0.065   2.889   5.885  0.00  0.00    -0.296 N 
ATOM      4  C   UNL     1       1.322   2.493   6.228  0.00  0.00    +0.115 C 
ATOM      5  C   UNL     1       1.483   1.085   5.619  0.00  0.00    -0.004 C 
ATOM      6  C   UNL     1       1.197   0.019   6.672  0.00  0.00    -0.010 C 
ATOM      7  C   UNL     1       2.276   0.077   7.757  0.00  0.00    -0.082 C 
ATOM      8  N   UNL     1       3.594  -0.147   7.150  0.00  0.00    +0.379 N 
ATOM      9  C   UNL     1       3.901   0.934   6.206  0.00  0.00    -0.082 C 
ATOM     10  C   UNL     1       2.890   0.913   5.056  0.00  0.00    -0.010 C 
ATOM     11  C   UNL     1      -0.947   3.557   6.655  0.00  0.00    +0.247 C 
ATOM     12  O   UNL     1      -2.095   3.697   6.282  0.00  0.00    -0.270 OA
ATOM     13  H   UNL     1       4.297  -0.169   7.874  0.00  0.00    -0.086 HD
ATOM     14  H   UNL     1       3.592  -1.029   6.660  0.00  0.00    -0.086 HD
ENDROOT
BRANCH  11  15
ATOM     15  C   UNL     1      -0.518   4.119   7.951  0.00  0.00    +0.037 A 
ATOM     16  C   UNL     1       0.837   4.356   8.198  0.00  0.00    +0.016 A 
ATOM     17  C   UNL     1       1.232   4.880   9.408  0.00  0.00    +0.047 A 
ATOM     18  C   UNL     1       0.286   5.174  10.383  0.00  0.00    +0.130 A 
ATOM     19  C   UNL     1      -1.062   4.940  10.141  0.00  0.00    +0.047 A 
ATOM     20  C   UNL     1      -1.467   4.421   8.932  0.00  0.00    +0.016 A 
BRANCH  18  21
ATOM     21  O   UNL     1       0.680   5.690  11.575  0.00  0.00    -0.406 OA
BRANCH  21  22
ATOM     22  C   UNL     1      -0.344   5.968  12.532  0.00  0.00    +0.575 C 
ATOM     23  F   UNL     1      -1.027   4.787  12.841  0.00  0.00    -0.133 F 
ATOM     24  F   UNL     1       0.234   6.491  13.694  0.00  0.00    -0.133 F 
ATOM     25  F   UNL     1      -1.241   6.899  11.997  0.00  0.00    -0.133 F 
ENDBRANCH  21  22
ENDBRANCH  18  21
ENDBRANCH  11  15
BRANCH   1  27
ATOM     26  N   UNL     1       1.264  -0.462   2.678  0.00  0.00    -0.312 N 
ATOM     27  C   UNL     1       1.125   0.788   3.163  0.00  0.00    +0.218 C 
ATOM     28  O   UNL     1       1.548   1.733   2.532  0.00  0.00    -0.275 OA
ATOM     29  H   UNL     1       0.926  -1.219   3.182  0.00  0.00    +0.149 HD
BRANCH  26  36
ATOM     30  C   UNL     1      -0.078  -1.921   0.567  0.00  0.00    +0.009 C 
ATOM     31  C   UNL     1       1.435  -1.992   0.777  0.00  0.00    +0.006 C 
ATOM     32  C   UNL     1       2.127  -2.218  -0.568  0.00  0.00    +0.005 C 
ATOM     33  C   UNL     1       3.641  -2.288  -0.358  0.00  0.00    +0.000 C 
ATOM     34  C   UNL     1       4.133  -0.975   0.254  0.00  0.00    +0.002 C 
ATOM     35  C   UNL     1       3.441  -0.749   1.600  0.00  0.00    +0.022 C 
ATOM     36  C   UNL     1       1.927  -0.678   1.389  0.00  0.00    +0.076 C 
ENDBRANCH  26  36
ENDBRANCH   1  27
TORSDOF 5
