REMARK  Name = ZINC36370416
REMARK  7 active torsions:
REMARK  status: ('A' for Active; 'I' for Inactive)
REMARK    1  A    between atoms: C_1  and  C_2
REMARK    2  A    between atoms: N_7  and  C_9
REMARK    3  A    between atoms: C_9  and  C_11
REMARK    4  A    between atoms: C_9  and  C_19
REMARK    5  A    between atoms: C_15  and  O_17
REMARK    6  A    between atoms: O_17  and  C_18
REMARK    7  A    between atoms: C_25  and  C_27
REMARK                            x       y       z     vdW  Elec       q    Type
REMARK                         _______ _______ _______ _____ _____    ______ ____
ROOT
ATOM      1  C   UNL     1       1.413  -2.463   2.461  0.00  0.00    +0.006 C 
ENDROOT
BRANCH   1   2
ATOM      2  C   UNL     1       1.430  -3.970   2.459  0.00  0.00    +0.050 A 
ATOM      3  C   UNL     1       2.468  -4.803   2.600  0.00  0.00    +0.282 A 
ATOM      4  N   UNL     1       2.284  -6.163   2.572  0.00  0.00    -0.169 N 
ATOM      5  C   UNL     1       1.006  -6.616   2.397  0.00  0.00    +0.200 A 
ATOM      6  S   UNL     1       0.068  -5.111   2.279  0.00  0.00    -0.050 S 
ATOM      7  N   UNL     1       0.997  -7.920   2.393  0.00  0.00    -0.197 NA
ATOM      8  C   UNL     1       2.247  -8.372   2.563  0.00  0.00    +0.218 A 
ATOM      9  N   UNL     1       3.063  -7.346   2.676  0.00  0.00    -0.138 NA
ATOM     10  O   UNL     1       3.719  -4.296   2.771  0.00  0.00    -0.265 OA
BRANCH   8  11
ATOM     11  C   UNL     1       2.645  -9.794   2.615  0.00  0.00    +0.173 A 
ATOM     12  C   UNL     1       1.811 -10.861   2.494  0.00  0.00    +0.053 A 
ATOM     13  C   UNL     1       2.611 -12.016   2.603  0.00  0.00    +0.042 A 
ATOM     14  C   UNL     1       3.881 -11.601   2.784  0.00  0.00    +0.196 A 
ATOM     15  O   UNL     1       3.898 -10.258   2.785  0.00  0.00    -0.460 OA
ENDBRANCH   8  11
ENDBRANCH   1   2
BRANCH   1  21
ATOM     16  C   UNL     1      -0.019   1.526   0.010  0.00  0.00    +0.005 C 
ATOM     17  C   UNL     1       0.002  -0.004   0.002  0.00  0.00    -0.031 C 
ATOM     18  C   UNL     1       0.721  -0.499  -1.257  0.00  0.00    -0.001 C 
ATOM     19  C   UNL     1       0.805  -2.027  -1.217  0.00  0.00    -0.018 C 
ATOM     20  C   UNL     1       1.518  -2.460   0.066  0.00  0.00    -0.077 C 
ATOM     21  N   UNL     1       0.768  -1.979   1.233  0.00  0.00    +0.388 N 
ATOM     22  C   UNL     1       0.744  -0.512   1.240  0.00  0.00    -0.074 C 
ATOM     23  H   UNL     1      -0.177  -2.330   1.192  0.00  0.00    -0.080 HD
ENDBRANCH   1  21
BRANCH   1  24
ATOM     24  C   UNL     1       0.645  -1.970   3.660  0.00  0.00    -0.053 A 
ATOM     25  C   UNL     1      -0.738  -1.957   3.636  0.00  0.00    +0.002 A 
ATOM     26  C   UNL     1      -1.446  -1.505   4.734  0.00  0.00    +0.004 A 
ATOM     27  C   UNL     1      -0.773  -1.066   5.858  0.00  0.00    +0.045 A 
ATOM     28  C   UNL     1       0.614  -1.079   5.885  0.00  0.00    +0.120 A 
ATOM     29  C   UNL     1       1.322  -1.538   4.783  0.00  0.00    +0.048 A 
BRANCH  28  30
ATOM     30  O   UNL     1       1.278  -0.647   6.989  0.00  0.00    -0.495 OA
ATOM     31  C   UNL     1       0.484  -0.194   8.087  0.00  0.00    +0.277 C 
ENDBRANCH  28  30
ENDBRANCH   1  24
TORSDOF 5
