REMARK  Name = ZINC10198656
REMARK  7 active torsions:
REMARK  status: ('A' for Active; 'I' for Inactive)
REMARK    1  A    between atoms: C_1  and  C_2
REMARK    2  A    between atoms: C_2  and  C_3
REMARK    3  A    between atoms: C_12  and  O_14
REMARK    4  A    between atoms: O_14  and  C_15
REMARK    5  A    between atoms: C_15  and  C_16
REMARK    6  A    between atoms: C_20  and  C_27
REMARK    7  A    between atoms: C_23  and  C_26
REMARK                            x       y       z     vdW  Elec       q    Type
REMARK                         _______ _______ _______ _____ _____    ______ ____
ROOT
ATOM      1  C   UNL     1       0.707  -0.490  -1.238  0.00  0.00    -0.030 A 
ATOM      2  C   UNL     1       2.028  -0.806  -1.210  0.00  0.00    +0.096 A 
ATOM      3  C   UNL     1       2.666  -1.259  -2.384  0.00  0.00    +0.337 A 
ATOM      4  O   UNL     1       3.850  -1.539  -2.345  0.00  0.00    -0.245 OA
ATOM      5  O   UNL     1       2.000  -1.390  -3.542  0.00  0.00    -0.422 OA
ATOM      6  C   UNL     1       0.686  -1.093  -3.638  0.00  0.00    +0.143 A 
ATOM      7  C   UNL     1      -0.014  -0.640  -2.503  0.00  0.00    +0.021 A 
ATOM      8  C   UNL     1      -1.377  -0.336  -2.597  0.00  0.00    +0.015 A 
ATOM      9  C   UNL     1      -2.025  -0.485  -3.789  0.00  0.00    +0.046 A 
ATOM     10  C   UNL     1      -1.338  -0.938  -4.914  0.00  0.00    +0.125 A 
ATOM     11  C   UNL     1       0.014  -1.233  -4.842  0.00  0.00    +0.092 A 
ENDROOT
BRANCH   1  13
ATOM     12  C   UNL     1      -0.019   1.526   0.010  0.00  0.00    +0.009 C 
ATOM     13  C   UNL     1       0.002  -0.004   0.002  0.00  0.00    +0.033 C 
ENDBRANCH   1  13
BRANCH  10  14
ATOM     14  O   UNL     1      -1.997  -1.081  -6.092  0.00  0.00    -0.483 OA
BRANCH  14  15
ATOM     15  C   UNL     1      -3.387  -0.749  -6.103  0.00  0.00    +0.324 C 
BRANCH  15  16
ATOM     16  C   UNL     1      -3.945  -0.969  -7.485  0.00  0.00    +0.253 C 
ATOM     17  O   UNL     1      -3.223  -1.369  -8.374  0.00  0.00    -0.272 OA
ATOM     18  N   UNL     1      -5.246  -0.719  -7.734  0.00  0.00    -0.298 N 
ATOM     19  C   UNL     1      -6.131  -0.228  -6.669  0.00  0.00    +0.111 C 
ATOM     20  C   UNL     1      -6.821   1.051  -7.153  0.00  0.00    +0.004 C 
ATOM     21  C   UNL     1      -7.529   0.773  -8.481  0.00  0.00    +0.009 C 
ATOM     22  C   UNL     1      -6.499   0.353  -9.532  0.00  0.00    +0.004 C 
ATOM     23  C   UNL     1      -5.804  -0.928  -9.077  0.00  0.00    +0.111 C 
ATOM     24  C   UNL     1      -7.204   0.108 -10.868  0.00  0.00    +0.009 C 
ATOM     25  C   UNL     1      -7.846   1.504  -6.111  0.00  0.00    +0.009 C 
ENDBRANCH  15  16
ENDBRANCH  14  15
ENDBRANCH  10  14
TORSDOF 4
