REMARK  Name = ZINC58167188
REMARK  3 active torsions:
REMARK  status: ('A' for Active; 'I' for Inactive)
REMARK    1  A    between atoms: C_8  and  C_10
REMARK    2  A    between atoms: C_12  and  C_16
REMARK    3  A    between atoms: C_21  and  N_22
REMARK                            x       y       z     vdW  Elec       q    Type
REMARK                         _______ _______ _______ _____ _____    ______ ____
ROOT
ATOM      1  C   UNL     1       3.169  -4.029  -0.091  0.00  0.00    +0.188 A 
ATOM      2  N   UNL     1       4.446  -4.433  -0.076  0.00  0.00    -0.206 NA
ATOM      3  C   UNL     1       4.497  -5.748  -0.105  0.00  0.00    +0.158 A 
ATOM      4  N   UNL     1       3.221  -6.215  -0.139  0.00  0.00    -0.258 N 
ATOM      5  H   UNL     1       2.942  -7.144  -0.165  0.00  0.00    +0.191 HD
ATOM      6  N   UNL     1       2.385  -5.087  -0.123  0.00  0.00    -0.151 NA
ENDROOT
BRANCH   1  14
ATOM      7  C   UNL     1      -0.026   1.348  -0.025  0.00  0.00    +0.001 A 
ATOM      8  C   UNL     1       1.147   2.091   0.007  0.00  0.00    +0.001 A 
ATOM      9  C   UNL     1       2.365   1.440   0.011  0.00  0.00    +0.015 A 
ATOM     10  C   UNL     1       2.400   0.063  -0.017  0.00  0.00    +0.020 A 
ATOM     11  C   UNL     1       1.222  -0.717  -0.049  0.00  0.00    -0.010 A 
ATOM     12  C   UNL     1      -0.006  -0.011  -0.051  0.00  0.00    +0.009 A 
ATOM     13  C   UNL     1       1.443  -2.152  -0.075  0.00  0.00    +0.027 A 
ATOM     14  C   UNL     1       2.713  -2.623  -0.068  0.00  0.00    +0.059 A 
ATOM     15  S   UNL     1       3.703  -1.141  -0.024  0.00  0.00    -0.085 S 
ENDBRANCH   1  14
BRANCH   3  16
ATOM     16  C   UNL     1       5.725  -6.571  -0.101  0.00  0.00    +0.039 A 
ATOM     17  C   UNL     1       5.637  -7.960  -0.012  0.00  0.00    +0.013 A 
ATOM     18  C   UNL     1       6.786  -8.724  -0.008  0.00  0.00    +0.001 A 
ATOM     19  C   UNL     1       8.028  -8.117  -0.093  0.00  0.00    +0.002 A 
ATOM     20  C   UNL     1       8.129  -6.743  -0.182  0.00  0.00    +0.023 A 
ATOM     21  C   UNL     1       6.983  -5.960  -0.192  0.00  0.00    +0.035 A 
BRANCH  21  22
ATOM     22  N   UNL     1       7.082  -4.574  -0.288  0.00  0.00    -0.357 N 
ATOM     23  H   UNL     1       6.288  -4.024  -0.207  0.00  0.00    +0.142 HD
ATOM     24  H   UNL     1       7.947  -4.159  -0.435  0.00  0.00    +0.142 HD
ENDBRANCH  21  22
ENDBRANCH   3  16
TORSDOF 3
