REMARK  Name = ZINC54687124
REMARK  6 active torsions:
REMARK  status: ('A' for Active; 'I' for Inactive)
REMARK    1  A    between atoms: C_4  and  N_7
REMARK    2  A    between atoms: C_10  and  C_13
REMARK    3  A    between atoms: C_13  and  N_14
REMARK    4  A    between atoms: N_17  and  C_18
REMARK    5  A    between atoms: C_18  and  C_19
REMARK    6  A    between atoms: C_19  and  N_20
REMARK                            x       y       z     vdW  Elec       q    Type
REMARK                         _______ _______ _______ _____ _____    ______ ____
ROOT
ATOM      1  N   UNL     1       7.064  -3.844   0.849  0.00  0.00    -0.299 N 
ATOM      2  C   UNL     1       7.580  -4.857   1.573  0.00  0.00    +0.300 C 
ATOM      3  O   UNL     1       6.846  -5.566   2.234  0.00  0.00    -0.253 OA
ATOM      4  N   UNL     1       8.908  -5.085   1.563  0.00  0.00    -0.301 N 
ATOM      5  H   UNL     1       7.650  -3.278   0.321  0.00  0.00    +0.150 HD
ATOM      6  H   UNL     1       9.493  -4.519   1.035  0.00  0.00    +0.150 HD
ENDROOT
BRANCH   1   7
ATOM      7  C   UNL     1       5.621  -3.596   0.859  0.00  0.00    +0.110 C 
BRANCH   7  11
ATOM      8  N   UNL     1       3.620  -0.649  -0.036  0.00  0.00    -0.330 N 
ATOM      9  C   UNL     1       4.954  -0.021  -0.040  0.00  0.00    +0.105 C 
ATOM     10  C   UNL     1       5.899  -1.095   0.556  0.00  0.00    +0.025 C 
ATOM     11  C   UNL     1       5.302  -2.398  -0.037  0.00  0.00    +0.025 C 
ATOM     12  C   UNL     1       3.786  -2.110  -0.046  0.00  0.00    +0.110 C 
BRANCH   8  16
ATOM     13  C   UNL     1      -0.017   1.379   0.010  0.00  0.00    +0.000 A 
ATOM     14  C   UNL     1       1.169   2.089   0.002  0.00  0.00    +0.002 A 
ATOM     15  C   UNL     1       2.377   1.420  -0.013  0.00  0.00    +0.023 A 
ATOM     16  C   UNL     1       2.400   0.031  -0.021  0.00  0.00    +0.030 A 
ATOM     17  C   UNL     1       1.206  -0.680  -0.013  0.00  0.00    +0.023 A 
ATOM     18  C   UNL     1       0.002  -0.004   0.002  0.00  0.00    +0.002 A 
ENDBRANCH   8  16
ENDBRANCH   7  11
ENDBRANCH   1   7
BRANCH   4  19
ATOM     19  C   UNL     1       9.468  -6.186   2.350  0.00  0.00    +0.087 C 
BRANCH  19  20
ATOM     20  C   UNL     1      10.987  -6.225   2.165  0.00  0.00    -0.059 C 
BRANCH  20  21
ATOM     21  N   UNL     1      11.548  -7.330   2.954  0.00  0.00    +0.384 N 
ATOM     22  C   UNL     1      13.015  -7.269   2.894  0.00  0.00    -0.073 C 
ATOM     23  C   UNL     1      13.595  -8.203   3.970  0.00  0.00    +0.024 C 
ATOM     24  C   UNL     1      12.875  -9.508   3.869  0.00  0.00    -0.011 A 
ATOM     25  C   UNL     1      11.725  -9.746   3.178  0.00  0.00    -0.054 A 
ATOM     26  C   UNL     1      11.232 -11.048   3.220  0.00  0.00    +0.009 A 
ATOM     27  C   UNL     1      11.889 -11.998   3.927  0.00  0.00    +0.045 A 
ATOM     28  S   UNL     1      13.273 -11.078   4.584  0.00  0.00    -0.101 S 
ATOM     29  C   UNL     1      11.056  -8.604   2.418  0.00  0.00    -0.042 C 
ATOM     30  H   UNL     1      11.252  -7.236   3.914  0.00  0.00    -0.081 HD
ENDBRANCH  20  21
ENDBRANCH  19  20
ENDBRANCH   4  19
TORSDOF 6
