REMARK  Name = ZINC14187690
REMARK  9 active torsions:
REMARK  status: ('A' for Active; 'I' for Inactive)
REMARK    1  A    between atoms: C_1  and  C_2
REMARK    2  A    between atoms: C_2  and  O_3
REMARK    3  A    between atoms: O_3  and  C_4
REMARK    4  A    between atoms: C_7  and  C_10
REMARK    5  A    between atoms: N_15  and  C_16
REMARK    6  A    between atoms: C_16  and  N_17
REMARK    7  A    between atoms: N_23  and  C_24
REMARK    8  A    between atoms: C_24  and  C_25
REMARK    9  A    between atoms: C_24  and  C_26
REMARK                            x       y       z     vdW  Elec       q    Type
REMARK                         _______ _______ _______ _____ _____    ______ ____
ROOT
ATOM      1  C   UNL     1      -2.196  -6.026  -0.019  0.00  0.00    -0.035 C 
ATOM      2  C   UNL     1      -2.716  -6.448  -1.410  0.00  0.00    -0.012 C 
ATOM      3  C   UNL     1      -3.736  -7.568  -1.076  0.00  0.00    -0.020 C 
ATOM      4  C   UNL     1      -4.347  -7.050   0.251  0.00  0.00    -0.075 C 
ATOM      5  N   UNL     1      -3.212  -6.426   0.971  0.00  0.00    +0.397 N 
ATOM      6  H   UNL     1      -3.535  -5.612   1.474  0.00  0.00    -0.078 HD
ENDROOT
BRANCH   1  10
ATOM      7  C   UNL     1      -1.637  -1.791   0.098  0.00  0.00    +0.121 A 
ATOM      8  C   UNL     1      -0.545  -2.632  -0.062  0.00  0.00    +0.046 A 
ATOM      9  C   UNL     1      -0.728  -4.001  -0.100  0.00  0.00    +0.005 A 
ATOM     10  C   UNL     1      -1.999  -4.533   0.022  0.00  0.00    -0.061 A 
ATOM     11  C   UNL     1      -3.088  -3.697   0.182  0.00  0.00    +0.005 A 
ATOM     12  C   UNL     1      -2.910  -2.328   0.226  0.00  0.00    +0.046 A 
BRANCH   7  13
ATOM     13  O   UNL     1      -1.459  -0.444   0.136  0.00  0.00    -0.492 OA
BRANCH  13  15
ATOM     14  C   UNL     1      -0.120   1.566   0.064  0.00  0.00    +0.048 C 
ATOM     15  C   UNL     1      -0.121   0.037  -0.002  0.00  0.00    +0.225 C 
ENDBRANCH  13  15
ENDBRANCH   7  13
ENDBRANCH   1  10
BRANCH   5  16
ATOM     16  C   UNL     1      -2.631  -7.390   1.915  0.00  0.00    +0.069 C 
BRANCH  16  17
ATOM     17  N   UNL     1      -1.584  -6.733   2.701  0.00  0.00    -0.289 N 
ATOM     18  C   UNL     1      -0.273  -6.985   2.455  0.00  0.00    +0.141 A 
ATOM     19  S   UNL     1       0.436  -8.021   1.292  0.00  0.00    -0.023 S 
ATOM     20  S   UNL     1       0.512  -5.941   3.674  0.00  0.00    -0.028 S 
ATOM     21  C   UNL     1      -0.971  -5.263   4.402  0.00  0.00    +0.153 A 
ATOM     22  N   UNL     1      -1.909  -5.844   3.699  0.00  0.00    -0.279 N 
ATOM     23  N   UNL     1      -1.096  -4.351   5.441  0.00  0.00    -0.322 N 
ATOM     24  H   UNL     1      -1.976  -4.069   5.735  0.00  0.00    +0.148 HD
ATOM     25  H   UNL     1      -2.840  -5.649   3.886  0.00  0.00    +0.189 HD
BRANCH  23  26
ATOM     26  C   UNL     1       0.101  -3.815   6.092  0.00  0.00    +0.066 C 
ATOM     27  C   UNL     1      -0.222  -2.454   6.712  0.00  0.00    +0.027 C 
ATOM     28  C   UNL     1       0.561  -4.778   7.189  0.00  0.00    +0.027 C 
ENDBRANCH  23  26
ENDBRANCH  16  17
ENDBRANCH   5  16
TORSDOF 6
