REMARK  Name = ZINC41583939
REMARK  11 active torsions:
REMARK  status: ('A' for Active; 'I' for Inactive)
REMARK    1  A    between atoms: C_1  and  C_2
REMARK    2  A    between atoms: C_5  and  C_37
REMARK    3  A    between atoms: N_8  and  C_10
REMARK    4  A    between atoms: C_10  and  C_11
REMARK    5  A    between atoms: C_12  and  O_36
REMARK    6  A    between atoms: C_18  and  C_32
REMARK    7  A    between atoms: C_19  and  C_22
REMARK    8  A    between atoms: C_25  and  O_30
REMARK    9  A    between atoms: C_26  and  O_28
REMARK   10  A    between atoms: O_28  and  C_29
REMARK   11  A    between atoms: O_30  and  C_31
REMARK                            x       y       z     vdW  Elec       q    Type
REMARK                         _______ _______ _______ _____ _____    ______ ____
ROOT
ATOM      1  C   UNL     1       3.192  -1.806   1.712  0.00  0.00    +0.020 A 
ATOM      2  C   UNL     1       4.206  -2.560   1.147  0.00  0.00    +0.122 A 
ATOM      3  C   UNL     1       5.542  -2.227   1.360  0.00  0.00    +0.046 A 
ATOM      4  C   UNL     1       5.868  -1.146   2.129  0.00  0.00    +0.019 A 
ATOM      5  C   UNL     1       4.857  -0.375   2.701  0.00  0.00    +0.065 A 
ATOM      6  C   UNL     1       3.505  -0.702   2.494  0.00  0.00    +0.144 A 
ATOM      7  O   UNL     1       2.532   0.040   3.057  0.00  0.00    -0.450 OA
ATOM      8  C   UNL     1       2.773   1.253   3.558  0.00  0.00    +0.219 A 
ATOM      9  C   UNL     1       4.028   1.703   3.821  0.00  0.00    +0.077 A 
ATOM     10  C   UNL     1       5.165   0.805   3.531  0.00  0.00    +0.201 A 
ATOM     11  O   UNL     1       6.291   1.032   3.940  0.00  0.00    -0.286 OA
ENDROOT
BRANCH   9  12
ATOM     12  C   UNL     1       4.248   3.053   4.394  0.00  0.00    -0.007 A 
ATOM     13  C   UNL     1       3.977   3.293   5.740  0.00  0.00    +0.012 A 
ATOM     14  C   UNL     1       4.182   4.549   6.273  0.00  0.00    +0.050 A 
ATOM     15  C   UNL     1       4.658   5.576   5.472  0.00  0.00    +0.162 A 
ATOM     16  C   UNL     1       4.930   5.343   4.127  0.00  0.00    +0.162 A 
ATOM     17  C   UNL     1       4.732   4.083   3.590  0.00  0.00    +0.058 A 
BRANCH  16  18
ATOM     18  O   UNL     1       5.396   6.351   3.342  0.00  0.00    -0.491 OA
ATOM     19  C   UNL     1       5.654   6.040   1.971  0.00  0.00    +0.277 C 
ENDBRANCH  16  18
BRANCH  15  20
ATOM     20  O   UNL     1       4.858   6.813   6.001  0.00  0.00    -0.491 OA
ATOM     21  C   UNL     1       4.558   6.982   7.388  0.00  0.00    +0.277 C 
ENDBRANCH  15  20
ENDBRANCH   9  12
BRANCH   8  22
ATOM     22  C   UNL     1       1.605   2.161   3.844  0.00  0.00    +0.451 C 
ATOM     23  F   UNL     1       2.077   3.433   4.185  0.00  0.00    -0.163 F 
ATOM     24  F   UNL     1       0.797   2.253   2.705  0.00  0.00    -0.163 F 
ATOM     25  F   UNL     1       0.858   1.641   4.905  0.00  0.00    -0.163 F 
ENDBRANCH   8  22
BRANCH   2  26
ATOM     26  O   UNL     1       3.896  -3.636   0.379  0.00  0.00    -0.506 OA
ATOM     27  H   UNL     1       3.791  -3.431  -0.560  0.00  0.00    +0.292 HD
ENDBRANCH   2  26
BRANCH   1  28
ATOM     28  C   UNL     1       1.751  -2.178   1.473  0.00  0.00    -0.036 C 
BRANCH  28  34
ATOM     29  C   UNL     1       0.835   2.188  -0.543  0.00  0.00    +0.005 C 
ATOM     30  C   UNL     1       0.833   0.677  -0.783  0.00  0.00    -0.031 C 
ATOM     31  C   UNL     1      -0.577   0.222  -1.169  0.00  0.00    +0.003 C 
ATOM     32  C   UNL     1      -0.586  -1.301  -1.330  0.00  0.00    -0.031 C 
ATOM     33  C   UNL     1      -0.101  -1.948  -0.031  0.00  0.00    -0.075 C 
ATOM     34  N   UNL     1       1.262  -1.494   0.268  0.00  0.00    +0.383 N 
ATOM     35  C   UNL     1       1.266  -0.044   0.495  0.00  0.00    -0.075 C 
ATOM     36  C   UNL     1      -2.007  -1.774  -1.639  0.00  0.00    +0.005 C 
ATOM     37  H   UNL     1       1.867  -1.713  -0.509  0.00  0.00    -0.081 HD
ENDBRANCH  28  34
ENDBRANCH   1  28
TORSDOF 7
