REMARK  Name = ZINC64152171
REMARK  6 active torsions:
REMARK  status: ('A' for Active; 'I' for Inactive)
REMARK    1  A    between atoms: C_1  and  O_2
REMARK    2  A    between atoms: O_2  and  C_3
REMARK    3  A    between atoms: C_7  and  C_9
REMARK    4  A    between atoms: N_23  and  C_24
REMARK    5  A    between atoms: C_24  and  C_25
REMARK    6  A    between atoms: C_29  and  O_31
REMARK                            x       y       z     vdW  Elec       q    Type
REMARK                         _______ _______ _______ _____ _____    ______ ____
ROOT
ATOM      1  C   UNL     1      -2.540  -4.171   0.015  0.00  0.00    +0.114 C 
ATOM      2  C   UNL     1      -2.690  -4.682   1.450  0.00  0.00    +0.128 C 
ATOM      3  C   UNL     1      -4.059  -4.214   1.928  0.00  0.00    -0.035 C 
ATOM      4  C   UNL     1      -3.857  -3.556   3.061  0.00  0.00    -0.001 A 
ATOM      5  C   UNL     1      -4.790  -2.950   4.025  0.00  0.00    +0.010 A 
ATOM      6  C   UNL     1      -4.227  -2.328   5.094  0.00  0.00    +0.001 A 
ATOM      7  C   UNL     1      -2.846  -2.247   5.298  0.00  0.00    +0.002 A 
ATOM      8  C   UNL     1      -1.915  -2.780   4.467  0.00  0.00    +0.026 A 
ATOM      9  C   UNL     1      -2.385  -3.466   3.309  0.00  0.00    +0.043 A 
ATOM     10  N   UNL     1      -1.712  -4.092   2.363  0.00  0.00    -0.376 N 
ATOM     11  C   UNL     1      -5.305  -4.444   1.107  0.00  0.00    +0.049 C 
ATOM     12  C   UNL     1      -4.963  -4.000  -0.327  0.00  0.00    +0.090 C 
ATOM     13  N   UNL     1      -3.707  -4.620  -0.761  0.00  0.00    -0.289 NA
ATOM     14  H   UNL     1      -0.748  -4.150   2.277  0.00  0.00    +0.160 HD
ENDROOT
BRANCH   1  19
ATOM     15  C   UNL     1      -3.421  -0.549   0.632  0.00  0.00    +0.120 A 
ATOM     16  C   UNL     1      -2.362   0.101   0.015  0.00  0.00    +0.045 A 
ATOM     17  C   UNL     1      -1.366  -0.634  -0.598  0.00  0.00    +0.004 A 
ATOM     18  C   UNL     1      -1.424  -2.016  -0.597  0.00  0.00    +0.005 A 
ATOM     19  C   UNL     1      -2.479  -2.665   0.017  0.00  0.00    -0.025 A 
ATOM     20  C   UNL     1      -3.475  -1.935   0.636  0.00  0.00    +0.051 A 
BRANCH  15  22
ATOM     21  C   UNL     1      -4.282   1.595   1.193  0.00  0.00    +0.277 C 
ATOM     22  O   UNL     1      -4.402   0.172   1.236  0.00  0.00    -0.495 OA
ENDBRANCH  15  22
ENDBRANCH   1  19
BRANCH  13  23
ATOM     23  C   UNL     1      -3.490  -4.420  -2.200  0.00  0.00    +0.120 C 
BRANCH  23  24
ATOM     24  C   UNL     1      -4.585  -5.108  -2.973  0.00  0.00    -0.030 A 
ATOM     25  C   UNL     1      -4.434  -6.426  -3.362  0.00  0.00    +0.005 A 
ATOM     26  C   UNL     1      -5.437  -7.060  -4.071  0.00  0.00    +0.004 A 
ATOM     27  C   UNL     1      -6.594  -6.377  -4.394  0.00  0.00    +0.045 A 
ATOM     28  C   UNL     1      -6.748  -5.054  -4.005  0.00  0.00    +0.117 A 
ATOM     29  C   UNL     1      -5.742  -4.423  -3.288  0.00  0.00    +0.050 A 
BRANCH  28  30
ATOM     30  O   UNL     1      -7.885  -4.380  -4.321  0.00  0.00    -0.507 OA
ATOM     31  H   UNL     1      -8.583  -4.451  -3.654  0.00  0.00    +0.292 HD
ENDBRANCH  28  30
ENDBRANCH  23  24
ENDBRANCH  13  23
TORSDOF 5
