REMARK  Name = ZINC19972992
REMARK  15 active torsions:
REMARK  status: ('A' for Active; 'I' for Inactive)
REMARK    1  A    between atoms: C_1  and  C_2
REMARK    2  A    between atoms: C_2  and  C_3
REMARK    3  A    between atoms: C_10  and  C_15
REMARK    4  A    between atoms: C_15  and  C_17
REMARK    5  A    between atoms: C_15  and  N_26
REMARK    6  A    between atoms: N_21  and  C_22
REMARK    7  A    between atoms: C_22  and  C_23
REMARK    8  A    between atoms: C_22  and  C_24
REMARK    9  A    between atoms: C_22  and  C_25
REMARK   10  A    between atoms: N_26  and  C_27
REMARK   11  A    between atoms: N_26  and  C_36
REMARK   12  A    between atoms: C_27  and  C_28
REMARK   13  A    between atoms: C_32  and  O_34
REMARK   14  A    between atoms: O_34  and  C_35
REMARK   15  A    between atoms: C_36  and  C_37
REMARK                            x       y       z     vdW  Elec       q    Type
REMARK                         _______ _______ _______ _____ _____    ______ ____
ROOT
ATOM      1  C   UNL     1       0.583  -0.408  -0.932  0.00  0.00    +0.163 C 
ENDROOT
BRANCH   1   9
ATOM      2  C   UNL     1      -2.141  -5.944  -1.400  0.00  0.00    -0.047 A 
ATOM      3  C   UNL     1      -1.940  -6.328  -0.082  0.00  0.00    +0.005 A 
ATOM      4  C   UNL     1      -1.294  -5.493   0.804  0.00  0.00    +0.026 A 
ATOM      5  C   UNL     1      -0.838  -4.251   0.374  0.00  0.00    +0.049 A 
ATOM      6  C   UNL     1      -1.043  -3.865  -0.964  0.00  0.00    -0.001 A 
ATOM      7  C   UNL     1      -1.702  -4.729  -1.845  0.00  0.00    +0.013 A 
ATOM      8  C   UNL     1      -0.559  -2.556  -1.407  0.00  0.00    +0.021 A 
ATOM      9  C   UNL     1       0.072  -1.761  -0.509  0.00  0.00    +0.042 A 
ATOM     10  C   UNL     1       0.258  -2.198   0.820  0.00  0.00    +0.254 A 
ATOM     11  O   UNL     1       0.833  -1.470   1.611  0.00  0.00    -0.268 OA
ATOM     12  N   UNL     1      -0.187  -3.396   1.238  0.00  0.00    -0.322 N 
ATOM     13  H   UNL     1      -0.027  -3.690   2.286  0.00  0.00    +0.169 HD
BRANCH   2  15
ATOM     14  C   UNL     1      -1.827  -7.780  -3.037  0.00  0.00    +0.009 C 
ATOM     15  C   UNL     1      -2.851  -6.875  -2.350  0.00  0.00    +0.032 C 
ENDBRANCH   2  15
ENDBRANCH   1   9
BRANCH   1  16
ATOM     16  C   UNL     1       2.088  -0.397  -0.870  0.00  0.00    +0.174 A 
ATOM     17  N   UNL     1       2.828  -0.449   0.211  0.00  0.00    -0.111 NA
ATOM     18  N   UNL     1       4.064  -0.418  -0.150  0.00  0.00    -0.023 NA
ATOM     19  N   UNL     1       4.133  -0.348  -1.433  0.00  0.00    -0.043 NA
ATOM     20  N   UNL     1       2.936  -0.338  -1.914  0.00  0.00    -0.222 N 
BRANCH  20  21
ATOM     21  C   UNL     1       2.567  -0.271  -3.331  0.00  0.00    +0.059 C 
ATOM     22  C   UNL     1       1.788   1.019  -3.595  0.00  0.00    +0.036 C 
ATOM     23  C   UNL     1       3.834  -0.287  -4.188  0.00  0.00    +0.036 C 
ATOM     24  C   UNL     1       1.695  -1.476  -3.688  0.00  0.00    +0.036 C 
ENDBRANCH  20  21
ENDBRANCH   1  16
BRANCH   1  25
ATOM     25  N   UNL     1       0.048   0.622  -0.030  0.00  0.00    -0.282 NA
BRANCH  25  26
ATOM     26  C   UNL     1       0.519   1.958  -0.419  0.00  0.00    +0.120 C 
BRANCH  26  27
ATOM     27  C   UNL     1       0.159   2.950   0.657  0.00  0.00    -0.030 A 
ATOM     28  C   UNL     1      -1.050   3.619   0.603  0.00  0.00    +0.005 A 
ATOM     29  C   UNL     1      -1.386   4.526   1.591  0.00  0.00    +0.004 A 
ATOM     30  C   UNL     1      -0.509   4.774   2.629  0.00  0.00    +0.045 A 
ATOM     31  C   UNL     1       0.707   4.107   2.683  0.00  0.00    +0.120 A 
ATOM     32  C   UNL     1       1.039   3.194   1.693  0.00  0.00    +0.050 A 
BRANCH  31  33
ATOM     33  O   UNL     1       1.571   4.349   3.704  0.00  0.00    -0.495 OA
ATOM     34  C   UNL     1       1.163   5.302   4.687  0.00  0.00    +0.277 C 
ENDBRANCH  31  33
ENDBRANCH  26  27
ENDBRANCH  25  26
BRANCH  25  35
ATOM     35  C   UNL     1      -1.419   0.572   0.013  0.00  0.00    +0.117 C 
BRANCH  35  36
ATOM     36  C   UNL     1      -1.985   1.014  -1.338  0.00  0.00    +0.132 C 
ATOM     37  C   UNL     1      -3.525   1.117  -1.269  0.00  0.00    +0.035 C 
ATOM     38  C   UNL     1      -3.997   0.613  -2.651  0.00  0.00    +0.031 C 
ATOM     39  C   UNL     1      -2.687   0.265  -3.392  0.00  0.00    +0.160 C 
ATOM     40  O   UNL     1      -1.727   0.009  -2.344  0.00  0.00    -0.375 OA
ENDBRANCH  35  36
ENDBRANCH  25  35
ENDBRANCH   1  25
TORSDOF 10
