REMARK  Name = ZINC58467374
REMARK  6 active torsions:
REMARK  status: ('A' for Active; 'I' for Inactive)
REMARK    1  A    between atoms: C_9  and  C_12
REMARK    2  A    between atoms: C_12  and  N_13
REMARK    3  A    between atoms: N_16  and  C_17
REMARK    4  A    between atoms: C_17  and  C_18
REMARK    5  A    between atoms: C_18  and  C_20
REMARK    6  A    between atoms: C_18  and  N_25
REMARK                            x       y       z     vdW  Elec       q    Type
REMARK                         _______ _______ _______ _____ _____    ______ ____
ROOT
ATOM      1  N   UNL     1       6.000  -2.041  -0.819  0.00  0.00    -0.296 N 
ATOM      2  C   UNL     1       7.256  -2.523  -0.743  0.00  0.00    +0.300 C 
ATOM      3  O   UNL     1       7.468  -3.582  -0.185  0.00  0.00    -0.253 OA
ATOM      4  N   UNL     1       8.278  -1.831  -1.285  0.00  0.00    -0.301 N 
ATOM      5  H   UNL     1       5.831  -1.196  -1.264  0.00  0.00    +0.150 HD
ATOM      6  H   UNL     1       8.109  -0.986  -1.730  0.00  0.00    +0.150 HD
ENDROOT
BRANCH   1   7
ATOM      7  C   UNL     1       4.890  -2.793  -0.229  0.00  0.00    +0.153 C 
BRANCH   7  16
ATOM      8  C   UNL     1       0.109   1.323   0.649  0.00  0.00    +0.004 A 
ATOM      9  C   UNL     1       1.321   1.979   0.761  0.00  0.00    +0.004 A 
ATOM     10  C   UNL     1       2.503   1.282   0.605  0.00  0.00    +0.049 A 
ATOM     11  C   UNL     1       2.478  -0.079   0.335  0.00  0.00    +0.163 A 
ATOM     12  C   UNL     1       1.259  -0.737   0.220  0.00  0.00    +0.162 A 
ATOM     13  C   UNL     1       0.076  -0.032   0.379  0.00  0.00    +0.049 A 
ATOM     14  O   UNL     1       1.211  -2.070  -0.053  0.00  0.00    -0.485 OA
ATOM     15  C   UNL     1       2.415  -2.815   0.162  0.00  0.00    +0.275 C 
ATOM     16  C   UNL     1       3.582  -2.031  -0.453  0.00  0.00    +0.228 C 
ATOM     17  O   UNL     1       3.651  -0.753   0.187  0.00  0.00    -0.480 OA
ENDBRANCH   7  16
ENDBRANCH   1   7
BRANCH   4  18
ATOM     18  C   UNL     1       9.643  -2.355  -1.202  0.00  0.00    +0.095 C 
BRANCH  18  19
ATOM     19  C   UNL     1      10.585  -1.453  -2.003  0.00  0.00    -0.013 C 
BRANCH  19  20
ATOM     20  N   UNL     1      11.971  -1.902  -1.814  0.00  0.00    +0.386 N 
ATOM     21  C   UNL     1      12.901  -1.024  -2.570  0.00  0.00    -0.078 C 
ATOM     22  C   UNL     1      14.256  -1.242  -1.851  0.00  0.00    -0.020 C 
ATOM     23  C   UNL     1      13.844  -1.365  -0.366  0.00  0.00    -0.020 C 
ATOM     24  C   UNL     1      12.360  -1.773  -0.393  0.00  0.00    -0.078 C 
ATOM     25  H   UNL     1      12.071  -2.859  -2.117  0.00  0.00    -0.081 HD
ENDBRANCH  19  20
BRANCH  19  26
ATOM     26  C   UNL     1      10.228  -1.527  -3.466  0.00  0.00    -0.022 A 
ATOM     27  C   UNL     1       9.508  -0.655  -4.213  0.00  0.00    +0.009 A 
ATOM     28  C   UNL     1       9.304  -0.930  -5.553  0.00  0.00    +0.008 A 
ATOM     29  C   UNL     1       9.831  -2.064  -6.079  0.00  0.00    +0.045 A 
ATOM     30  S   UNL     1      10.650  -2.781  -4.664  0.00  0.00    -0.103 S 
ENDBRANCH  19  26
ENDBRANCH  18  19
ENDBRANCH   4  18
TORSDOF 6
