REMARK  Name = ZINC36278217
REMARK  7 active torsions:
REMARK  status: ('A' for Active; 'I' for Inactive)
REMARK    1  A    between atoms: C_1  and  C_2
REMARK    2  A    between atoms: C_7  and  C_9
REMARK    3  A    between atoms: C_7  and  C_10
REMARK    4  A    between atoms: N_11  and  C_13
REMARK    5  A    between atoms: C_13  and  C_14
REMARK    6  A    between atoms: C_15  and  C_24
REMARK    7  A    between atoms: C_20  and  N_23
REMARK                            x       y       z     vdW  Elec       q    Type
REMARK                         _______ _______ _______ _____ _____    ______ ____
ROOT
ATOM      1  C   UNL     1      -3.450  -2.500  -0.788  0.00  0.00    +0.035 A 
ATOM      2  C   UNL     1      -4.268  -2.744  -1.850  0.00  0.00    +0.093 A 
ATOM      3  N   UNL     1      -5.491  -2.275  -1.556  0.00  0.00    -0.228 NA
ATOM      4  C   UNL     1      -5.471  -1.742  -0.342  0.00  0.00    +0.138 A 
ATOM      5  N   UNL     1      -4.205  -1.875   0.165  0.00  0.00    -0.303 N 
ATOM      6  C   UNL     1      -3.907  -1.411   1.417  0.00  0.00    +0.115 A 
ATOM      7  C   UNL     1      -4.860  -0.817   2.175  0.00  0.00    +0.041 A 
ATOM      8  C   UNL     1      -6.171  -0.671   1.679  0.00  0.00    +0.028 A 
ATOM      9  C   UNL     1      -6.473  -1.121   0.432  0.00  0.00    +0.048 A 
ENDROOT
BRANCH   2  10
ATOM     10  C   UNL     1      -3.874  -3.413  -3.115  0.00  0.00    +0.020 A 
ATOM     11  C   UNL     1      -4.729  -4.333  -3.728  0.00  0.00    +0.013 A 
ATOM     12  C   UNL     1      -4.315  -4.929  -4.906  0.00  0.00    +0.020 A 
ATOM     13  C   UNL     1      -3.080  -4.599  -5.434  0.00  0.00    +0.111 A 
ATOM     14  N   UNL     1      -2.295  -3.727  -4.833  0.00  0.00    -0.263 NA
ATOM     15  C   UNL     1      -2.649  -3.129  -3.713  0.00  0.00    +0.120 A 
ENDBRANCH   2  10
BRANCH   7  16
ATOM     16  N   UNL     1      -4.542  -0.346   3.456  0.00  0.00    -0.357 N 
ATOM     17  H   UNL     1      -3.640  -0.446   3.799  0.00  0.00    +0.142 HD
ATOM     18  H   UNL     1      -5.223   0.079   4.000  0.00  0.00    +0.142 HD
ENDBRANCH   7  16
BRANCH   1  19
ATOM     19  C   UNL     1      -1.990  -2.857  -0.681  0.00  0.00    -0.021 C 
BRANCH  19  29
ATOM     20  C   UNL     1       0.098   1.555  -0.096  0.00  0.00    +0.009 C 
ATOM     21  C   UNL     1       0.099   0.020  -0.031  0.00  0.00    -0.048 C 
ATOM     22  C   UNL     1       0.910  -0.620  -1.190  0.00  0.00    -0.011 C 
ATOM     23  C   UNL     1       0.262  -2.033  -1.203  0.00  0.00    -0.067 C 
ATOM     24  C   UNL     1       0.769  -2.785   0.012  0.00  0.00    -0.009 C 
ATOM     25  C   UNL     1       0.838  -2.024   1.317  0.00  0.00    -0.036 C 
ATOM     26  C   UNL     1       0.701  -0.516   1.268  0.00  0.00    +0.011 C 
ATOM     27  C   UNL     1       2.219  -2.333   1.952  0.00  0.00    +0.011 C 
ATOM     28  C   UNL     1      -0.211  -2.591   2.293  0.00  0.00    +0.011 C 
ATOM     29  N   UNL     1      -1.180  -1.725  -1.113  0.00  0.00    +0.386 N 
ATOM     30  C   UNL     1      -1.317  -0.577  -0.198  0.00  0.00    -0.071 C 
ATOM     31  H   UNL     1      -1.501  -1.429  -2.038  0.00  0.00    -0.081 HD
ENDBRANCH  19  29
ENDBRANCH   1  19
TORSDOF 4
