REMARK  Name = ZINC67085099
REMARK  7 active torsions:
REMARK  status: ('A' for Active; 'I' for Inactive)
REMARK    1  A    between atoms: C_1  and  C_2
REMARK    2  A    between atoms: C_2  and  C_3
REMARK    3  A    between atoms: C_2  and  C_4
REMARK    4  A    between atoms: N_6  and  C_7
REMARK    5  A    between atoms: N_15  and  C_16
REMARK    6  A    between atoms: C_16  and  C_17
REMARK    7  A    between atoms: C_17  and  C_24
REMARK                            x       y       z     vdW  Elec       q    Type
REMARK                         _______ _______ _______ _____ _____    ______ ____
ROOT
ATOM      1  C   UNL     1      -3.350  -0.398  -1.374  0.00  0.00    +0.076 C 
ATOM      2  C   UNL     1      -3.402  -1.833  -1.904  0.00  0.00    +0.041 C 
ATOM      3  C   UNL     1      -4.822  -2.384  -1.734  0.00  0.00    +0.111 C 
ATOM      4  N   UNL     1      -5.766  -1.466  -2.384  0.00  0.00    -0.286 N 
ATOM      5  C   UNL     1      -5.738  -0.044  -2.013  0.00  0.00    +0.111 C 
ATOM      6  C   UNL     1      -4.309   0.480  -2.180  0.00  0.00    +0.041 C 
ATOM      7  C   UNL     1      -6.642  -1.919  -3.303  0.00  0.00    +0.302 C 
ATOM      8  O   UNL     1      -6.584  -3.073  -3.681  0.00  0.00    -0.253 OA
ATOM      9  N   UNL     1      -7.582  -1.092  -3.803  0.00  0.00    -0.298 N 
ATOM     10  H   UNL     1      -7.584  -0.154  -3.556  0.00  0.00    +0.150 HD
ENDROOT
BRANCH   1  13
ATOM     11  C   UNL     1      -1.074  -0.132  -0.544  0.00  0.00    +0.216 C 
ATOM     12  O   UNL     1      -1.383  -0.788   0.428  0.00  0.00    -0.276 OA
ATOM     13  N   UNL     1      -1.986   0.120  -1.504  0.00  0.00    -0.312 N 
ATOM     14  H   UNL     1      -1.739   0.646  -2.281  0.00  0.00    +0.149 HD
BRANCH  11  16
ATOM     15  C   UNL     1       0.288   1.929  -0.757  0.00  0.00    +0.017 C 
ATOM     16  C   UNL     1       0.329   0.402  -0.678  0.00  0.00    +0.069 C 
ATOM     17  C   UNL     1       1.155  -0.024   0.537  0.00  0.00    +0.017 C 
ENDBRANCH  11  16
ENDBRANCH   1  13
BRANCH   9  18
ATOM     18  C   UNL     1      -8.600  -1.610  -4.721  0.00  0.00    +0.117 C 
BRANCH  18  19
ATOM     19  C   UNL     1      -9.444  -0.451  -5.253  0.00  0.00    +0.011 C 
ATOM     20  C   UNL     1      -8.503   0.668  -5.740  0.00  0.00    +0.013 C 
ATOM     21  C   UNL     1      -7.904   0.383  -7.130  0.00  0.00    +0.001 C 
ATOM     22  C   UNL     1      -7.482  -1.052  -7.292  0.00  0.00    +0.000 C 
ATOM     23  C   UNL     1      -8.640  -1.833  -7.947  0.00  0.00    +0.000 C 
ATOM     24  C   UNL     1      -9.674  -2.197  -6.990  0.00  0.00    +0.001 C 
ATOM     25  C   UNL     1     -10.341  -0.964  -6.347  0.00  0.00    +0.013 C 
BRANCH  19  26
ATOM     26  C   UNL     1     -10.297   0.086  -4.133  0.00  0.00    -0.040 A 
ATOM     27  C   UNL     1     -10.209   1.417  -3.773  0.00  0.00    +0.004 A 
ATOM     28  C   UNL     1     -10.992   1.909  -2.746  0.00  0.00    +0.000 A 
ATOM     29  C   UNL     1     -11.864   1.069  -2.079  0.00  0.00    +0.000 A 
ATOM     30  C   UNL     1     -11.953  -0.262  -2.439  0.00  0.00    +0.000 A 
ATOM     31  C   UNL     1     -11.173  -0.753  -3.470  0.00  0.00    +0.004 A 
ENDBRANCH  19  26
ENDBRANCH  18  19
ENDBRANCH   9  18
TORSDOF 5
