REMARK  Name = ZINC39696201
REMARK  12 active torsions:
REMARK  status: ('A' for Active; 'I' for Inactive)
REMARK    1  A    between atoms: C_1  and  C_2
REMARK    2  A    between atoms: C_2  and  C_3
REMARK    3  A    between atoms: C_6  and  C_9
REMARK    4  A    between atoms: C_9  and  C_11
REMARK    5  A    between atoms: C_9  and  N_12
REMARK    6  A    between atoms: C_13  and  C_15
REMARK    7  A    between atoms: C_26  and  C_28
REMARK    8  A    between atoms: C_30  and  C_37
REMARK    9  A    between atoms: N_32  and  C_33
REMARK   10  A    between atoms: C_33  and  C_34
REMARK   11  A    between atoms: C_33  and  C_35
REMARK   12  A    between atoms: C_33  and  C_36
REMARK                            x       y       z     vdW  Elec       q    Type
REMARK                         _______ _______ _______ _____ _____    ______ ____
ROOT
ATOM      1  C   UNL     1       2.951  -0.679   8.201  0.00  0.00    +0.100 C 
ATOM      2  C   UNL     1       1.695  -1.413   8.721  0.00  0.00    +0.121 C 
ATOM      3  N   UNL     1       2.179  -2.220   9.865  0.00  0.00    -0.295 N 
ATOM      4  C   UNL     1       3.156  -1.339  10.550  0.00  0.00    +0.115 C 
ATOM      5  C   UNL     1       3.906  -0.629   9.405  0.00  0.00    -0.004 C 
ATOM      6  C   UNL     1       4.203   0.818   9.785  0.00  0.00    -0.010 C 
ATOM      7  C   UNL     1       5.200   0.842  10.947  0.00  0.00    -0.082 C 
ATOM      8  N   UNL     1       6.435   0.157  10.548  0.00  0.00    +0.379 N 
ATOM      9  C   UNL     1       6.157  -1.258  10.274  0.00  0.00    -0.082 C 
ATOM     10  C   UNL     1       5.200  -1.371   9.084  0.00  0.00    -0.010 C 
ATOM     11  C   UNL     1       1.814  -3.471  10.207  0.00  0.00    +0.265 C 
ATOM     12  O   UNL     1       2.313  -4.006  11.178  0.00  0.00    -0.268 OA
ATOM     13  H   UNL     1       6.807   0.593   9.717  0.00  0.00    -0.086 HD
ATOM     14  H   UNL     1       7.112   0.227  11.293  0.00  0.00    -0.086 HD
ENDROOT
BRANCH  11  15
ATOM     15  C   UNL     1       0.811  -4.190   9.406  0.00  0.00    +0.124 A 
ATOM     16  C   UNL     1       0.004  -3.659   8.415  0.00  0.00    +0.057 A 
ATOM     17  C   UNL     1      -0.771  -4.727   7.956  0.00  0.00    +0.061 A 
ATOM     18  N   UNL     1      -0.430  -5.791   8.637  0.00  0.00    -0.175 NA
ATOM     19  N   UNL     1       0.493  -5.516   9.486  0.00  0.00    -0.254 N 
ATOM     20  C   UNL     1      -1.814  -4.665   6.870  0.00  0.00    +0.067 C 
BRANCH  19  21
ATOM     21  C   UNL     1       1.110  -6.477  10.405  0.00  0.00    +0.056 C 
ATOM     22  C   UNL     1       0.788  -6.082  11.847  0.00  0.00    +0.036 C 
ATOM     23  C   UNL     1       0.559  -7.876  10.123  0.00  0.00    +0.036 C 
ATOM     24  C   UNL     1       2.626  -6.476  10.202  0.00  0.00    +0.036 C 
ENDBRANCH  19  21
ENDBRANCH  11  15
BRANCH   1  26
ATOM     25  N   UNL     1       4.404  -0.826   6.204  0.00  0.00    -0.308 N 
ATOM     26  C   UNL     1       3.577  -1.449   7.066  0.00  0.00    +0.219 C 
ATOM     27  O   UNL     1       3.336  -2.630   6.929  0.00  0.00    -0.275 OA
ATOM     28  H   UNL     1       4.539   0.133   6.269  0.00  0.00    +0.149 HD
BRANCH  25  29
ATOM     29  C   UNL     1       5.097  -1.595   5.168  0.00  0.00    +0.100 C 
ATOM     30  C   UNL     1       4.184  -1.751   3.951  0.00  0.00    +0.033 C 
BRANCH  29  34
ATOM     31  C   UNL     1       8.662   0.457   4.015  0.00  0.00    -0.048 A 
ATOM     32  C   UNL     1       8.668  -0.919   4.146  0.00  0.00    +0.004 A 
ATOM     33  C   UNL     1       7.515  -1.583   4.519  0.00  0.00    +0.006 A 
ATOM     34  C   UNL     1       6.355  -0.871   4.762  0.00  0.00    -0.027 A 
ATOM     35  C   UNL     1       6.349   0.505   4.632  0.00  0.00    +0.006 A 
ATOM     36  C   UNL     1       7.504   1.170   4.263  0.00  0.00    +0.004 A 
BRANCH  31  38
ATOM     37  C   UNL     1      10.721   1.553   4.858  0.00  0.00    +0.009 C 
ATOM     38  C   UNL     1       9.920   1.181   3.609  0.00  0.00    +0.032 C 
ENDBRANCH  31  38
ENDBRANCH  29  34
ENDBRANCH  25  29
ENDBRANCH   1  26
TORSDOF 6
