REMARK  Name = ZINC14878550
REMARK  9 active torsions:
REMARK  status: ('A' for Active; 'I' for Inactive)
REMARK    1  A    between atoms: C_1  and  C_2
REMARK    2  A    between atoms: C_3  and  C_15
REMARK    3  A    between atoms: N_6  and  C_9
REMARK    4  A    between atoms: N_7  and  C_8
REMARK    5  A    between atoms: C_15  and  N_16
REMARK    6  A    between atoms: C_23  and  C_27
REMARK    7  A    between atoms: C_27  and  N_28
REMARK    8  A    between atoms: C_30  and  C_37
REMARK    9  A    between atoms: C_33  and  C_36
REMARK                            x       y       z     vdW  Elec       q    Type
REMARK                         _______ _______ _______ _____ _____    ______ ____
ROOT
ATOM      1  N   UNL     1      -3.333  -0.556  -0.531  0.00  0.00    +0.387 N 
ATOM      2  C   UNL     1      -2.890   0.200  -1.698  0.00  0.00    -0.036 C 
ATOM      3  C   UNL     1      -3.599  -0.176  -2.980  0.00  0.00    +0.210 C 
ATOM      4  O   UNL     1      -4.987   0.173  -2.916  0.00  0.00    -0.494 OA
ATOM      5  C   UNL     1      -5.792  -0.752  -2.323  0.00  0.00    +0.122 A 
ATOM      6  C   UNL     1      -6.722  -1.453  -3.077  0.00  0.00    +0.046 A 
ATOM      7  C   UNL     1      -7.519  -2.404  -2.468  0.00  0.00    +0.008 A 
ATOM      8  C   UNL     1      -7.389  -2.657  -1.115  0.00  0.00    -0.033 A 
ATOM      9  C   UNL     1      -6.466  -1.952  -0.362  0.00  0.00    +0.010 A 
ATOM     10  C   UNL     1      -5.678  -0.995  -0.969  0.00  0.00    -0.022 A 
ATOM     11  C   UNL     1      -4.697  -0.184  -0.144  0.00  0.00    -0.039 C 
ATOM     12  H   UNL     1      -3.307  -1.541  -0.747  0.00  0.00    -0.081 HD
ENDROOT
BRANCH   1  13
ATOM     13  C   UNL     1      -2.423  -0.286   0.591  0.00  0.00    -0.035 C 
BRANCH  13  16
ATOM     14  C   UNL     1      -0.122   1.428  -0.620  0.00  0.00    +0.065 C 
ATOM     15  C   UNL     1      -0.044  -0.037  -0.277  0.00  0.00    +0.039 A 
ATOM     16  C   UNL     1      -1.041  -0.778   0.246  0.00  0.00    +0.023 A 
ATOM     17  C   UNL     1      -0.563  -2.099   0.418  0.00  0.00    +0.273 A 
ATOM     18  O   UNL     1      -1.194  -3.039   0.867  0.00  0.00    -0.266 OA
ATOM     19  N   UNL     1       0.716  -2.128  -0.007  0.00  0.00    -0.217 N 
ATOM     20  N   UNL     1       1.047  -0.841  -0.450  0.00  0.00    -0.284 N 
ATOM     21  C   UNL     1       2.341  -0.427  -1.000  0.00  0.00    +0.171 C 
BRANCH  19  22
ATOM     22  C   UNL     1       1.559  -3.244  -0.011  0.00  0.00    +0.067 A 
ATOM     23  C   UNL     1       2.847  -3.145   0.498  0.00  0.00    +0.028 A 
ATOM     24  C   UNL     1       3.677  -4.249   0.493  0.00  0.00    +0.002 A 
ATOM     25  C   UNL     1       3.226  -5.452  -0.018  0.00  0.00    +0.000 A 
ATOM     26  C   UNL     1       1.944  -5.554  -0.526  0.00  0.00    +0.002 A 
ATOM     27  C   UNL     1       1.108  -4.455  -0.519  0.00  0.00    +0.028 A 
ENDBRANCH  19  22
ENDBRANCH  13  16
ENDBRANCH   1  13
BRANCH   8  28
ATOM     28  C   UNL     1      -8.254  -3.702  -0.459  0.00  0.00    +0.119 C 
BRANCH  28  29
ATOM     29  N   UNL     1      -7.577  -5.005  -0.518  0.00  0.00    -0.293 NA
ATOM     30  C   UNL     1      -6.358  -5.003   0.304  0.00  0.00    +0.116 C 
ATOM     31  C   UNL     1      -5.655  -6.356   0.167  0.00  0.00    +0.130 C 
ATOM     32  O   UNL     1      -6.559  -7.398   0.542  0.00  0.00    -0.371 OA
ATOM     33  C   UNL     1      -7.757  -7.429  -0.238  0.00  0.00    +0.130 C 
ATOM     34  C   UNL     1      -8.482  -6.087  -0.105  0.00  0.00    +0.116 C 
ATOM     35  C   UNL     1      -8.665  -8.553   0.265  0.00  0.00    +0.039 C 
ATOM     36  C   UNL     1      -4.428  -6.389   1.081  0.00  0.00    +0.039 C 
ENDBRANCH  28  29
ENDBRANCH   8  28
TORSDOF 5
