REMARK  Name = ZINC63281312
REMARK  6 active torsions:
REMARK  status: ('A' for Active; 'I' for Inactive)
REMARK    1  A    between atoms: C_6  and  O_7
REMARK    2  A    between atoms: O_7  and  C_8
REMARK    3  A    between atoms: C_8  and  C_9
REMARK    4  A    between atoms: N_11  and  C_12
REMARK    5  A    between atoms: C_12  and  C_13
REMARK    6  A    between atoms: C_13  and  C_14
REMARK                            x       y       z     vdW  Elec       q    Type
REMARK                         _______ _______ _______ _____ _____    ______ ____
ROOT
ATOM      1  C   UNL     1      -2.375   0.068   0.034  0.00  0.00    +0.324 C 
ENDROOT
BRANCH   1   2
ATOM      2  C   UNL     1      -3.560  -0.863   0.044  0.00  0.00    +0.251 C 
ATOM      3  O   UNL     1      -3.388  -2.064   0.036  0.00  0.00    -0.272 OA
ATOM      4  N   UNL     1      -4.811  -0.362   0.064  0.00  0.00    -0.312 N 
ATOM      5  H   UNL     1      -4.948   0.598   0.070  0.00  0.00    +0.149 HD
BRANCH   4   6
ATOM      6  C   UNL     1      -5.963  -1.267   0.074  0.00  0.00    +0.108 C 
BRANCH   6   7
ATOM      7  C   UNL     1      -7.255  -0.449   0.095  0.00  0.00    +0.052 C 
BRANCH   7   8
ATOM      8  C   UNL     1      -8.440  -1.380   0.106  0.00  0.00    -0.040 C 
ATOM      9  C   UNL     1      -9.126  -1.810   1.189  0.00  0.00    +0.002 A 
ATOM     10  C   UNL     1      -8.980  -1.549   2.626  0.00  0.00    +0.048 A 
ATOM     11  C   UNL     1      -9.840  -2.138   3.490  0.00  0.00    +0.124 A 
ATOM     12  C   UNL     1     -10.864  -2.989   3.047  0.00  0.00    +0.040 A 
ATOM     13  C   UNL     1     -11.060  -3.276   1.743  0.00  0.00    +0.029 A 
ATOM     14  C   UNL     1     -10.214  -2.711   0.748  0.00  0.00    +0.043 A 
ATOM     15  N   UNL     1     -10.201  -2.833  -0.558  0.00  0.00    -0.380 N 
ATOM     16  C   UNL     1      -9.105  -2.018  -1.093  0.00  0.00    +0.144 C 
ATOM     17  F   UNL     1      -9.709  -1.900   4.814  0.00  0.00    -0.205 F 
ATOM     18  H   UNL     1     -10.815  -3.371  -1.082  0.00  0.00    +0.160 HD
ENDBRANCH   7   8
ENDBRANCH   6   7
ENDBRANCH   4   6
ENDBRANCH   1   2
BRANCH   1  19
ATOM     19  O   UNL     1      -1.168  -0.697   0.014  0.00  0.00    -0.483 OA
BRANCH  19  25
ATOM     20  C   UNL     1      -0.017   1.385   0.010  0.00  0.00    +0.047 A 
ATOM     21  C   UNL     1       1.163   2.103   0.002  0.00  0.00    +0.027 A 
ATOM     22  C   UNL     1       2.377   1.435  -0.015  0.00  0.00    +0.041 A 
ATOM     23  C   UNL     1       2.401   0.031  -0.030  0.00  0.00    +0.061 A 
ATOM     24  C   UNL     1       1.206  -0.686  -0.017  0.00  0.00    +0.060 A 
ATOM     25  C   UNL     1       0.002  -0.004   0.002  0.00  0.00    +0.122 A 
ATOM     26  C   UNL     1       3.706  -0.663  -0.070  0.00  0.00    +0.250 C 
ATOM     27  O   UNL     1       3.789  -1.869   0.058  0.00  0.00    -0.270 OA
ATOM     28  N   UNL     1       4.803   0.104  -0.257  0.00  0.00    -0.279 N 
ATOM     29  C   UNL     1       6.204  -0.283  -0.071  0.00  0.00    +0.110 C 
ATOM     30  C   UNL     1       7.060   0.983  -0.298  0.00  0.00    +0.022 C 
ATOM     31  C   UNL     1       6.046   2.137  -0.074  0.00  0.00    +0.044 C 
ATOM     32  C   UNL     1       4.750   1.526  -0.657  0.00  0.00    +0.161 C 
ATOM     33  N   UNL     1       3.582   2.140  -0.013  0.00  0.00    -0.325 N 
ATOM     34  H   UNL     1       3.646   3.014   0.404  0.00  0.00    +0.148 HD
ENDBRANCH  19  25
ENDBRANCH   1  19
TORSDOF 6
