REMARK  Name = ZINC57801242
REMARK  7 active torsions:
REMARK  status: ('A' for Active; 'I' for Inactive)
REMARK    1  A    between atoms: C_1  and  C_2
REMARK    2  A    between atoms: C_2  and  C_3
REMARK    3  A    between atoms: C_2  and  C_4
REMARK    4  A    between atoms: C_4  and  C_6
REMARK    5  A    between atoms: C_4  and  N_16
REMARK    6  A    between atoms: N_16  and  C_17
REMARK    7  A    between atoms: C_17  and  C_18
REMARK                            x       y       z     vdW  Elec       q    Type
REMARK                         _______ _______ _______ _____ _____    ______ ____
ROOT
ATOM      1  C   UNL     1      -1.428  -0.525   0.142  0.00  0.00    -0.038 C 
ENDROOT
BRANCH   1   2
ATOM      2  C   UNL     1      -1.487  -2.019   0.330  0.00  0.00    -0.057 A 
ATOM      3  C   UNL     1      -1.408  -2.856  -0.767  0.00  0.00    +0.006 A 
ATOM      4  C   UNL     1      -1.463  -4.227  -0.599  0.00  0.00    +0.049 A 
ATOM      5  C   UNL     1      -1.597  -4.766   0.672  0.00  0.00    +0.162 A 
ATOM      6  C   UNL     1      -1.674  -3.925   1.775  0.00  0.00    +0.162 A 
ATOM      7  C   UNL     1      -1.614  -2.550   1.600  0.00  0.00    +0.051 A 
ATOM      8  O   UNL     1      -1.797  -4.433   3.032  0.00  0.00    -0.485 OA
ATOM      9  C   UNL     1      -2.222  -5.797   3.135  0.00  0.00    +0.270 C 
ATOM     10  C   UNL     1      -1.410  -6.631   2.135  0.00  0.00    +0.270 C 
ATOM     11  O   UNL     1      -1.654  -6.118   0.821  0.00  0.00    -0.485 OA
ENDBRANCH   1   2
BRANCH   1  13
ATOM     12  C   UNL     1       0.093   1.431  -0.178  0.00  0.00    +0.006 C 
ATOM     13  C   UNL     1       0.027  -0.091  -0.044  0.00  0.00    -0.027 C 
ATOM     14  C   UNL     1       0.850  -0.532   1.168  0.00  0.00    +0.006 C 
ENDBRANCH   1  13
BRANCH   1  15
ATOM     15  N   UNL     1      -2.207  -0.150  -1.045  0.00  0.00    +0.386 N 
ATOM     16  H   UNL     1      -2.093   0.837  -1.224  0.00  0.00    -0.085 HD
ATOM     17  H   UNL     1      -1.880  -0.676  -1.842  0.00  0.00    -0.085 HD
BRANCH  15  18
ATOM     18  C   UNL     1      -3.627  -0.445  -0.813  0.00  0.00    -0.046 C 
BRANCH  18  19
ATOM     19  C   UNL     1      -4.442   0.061  -1.975  0.00  0.00    -0.063 A 
ATOM     20  C   UNL     1      -4.941   1.351  -1.960  0.00  0.00    +0.002 A 
ATOM     21  C   UNL     1      -5.688   1.815  -3.026  0.00  0.00    +0.002 A 
ATOM     22  C   UNL     1      -5.938   0.991  -4.107  0.00  0.00    +0.020 A 
ATOM     23  C   UNL     1      -5.440  -0.299  -4.122  0.00  0.00    +0.041 A 
ATOM     24  C   UNL     1      -4.686  -0.762  -3.058  0.00  0.00    +0.021 A 
ATOM     25 CL   UNL     1      -5.753  -1.335  -5.479  0.00  0.00    -0.084 Cl
ENDBRANCH  18  19
ENDBRANCH  15  18
ENDBRANCH   1  15
TORSDOF 5
