REMARK  Name = ZINC63131310
REMARK  5 active torsions:
REMARK  status: ('A' for Active; 'I' for Inactive)
REMARK    1  A    between atoms: C_1  and  S_2
REMARK    2  A    between atoms: S_2  and  C_5
REMARK    3  A    between atoms: C_8  and  S_11
REMARK    4  A    between atoms: S_11  and  C_12
REMARK    5  A    between atoms: C_19  and  C_21
REMARK                            x       y       z     vdW  Elec       q    Type
REMARK                         _______ _______ _______ _____ _____    ______ ____
ROOT
ATOM      1  C   UNL     1       0.845  -0.437  -1.483  0.00  0.00    +0.088 A 
ATOM      2  C   UNL     1       0.133  -0.612  -2.655  0.00  0.00    +0.028 A 
ATOM      3  C   UNL     1       0.790  -0.952  -3.821  0.00  0.00    +0.016 A 
ATOM      4  C   UNL     1       2.170  -1.118  -3.816  0.00  0.00    +0.008 A 
ATOM      5  C   UNL     1       2.883  -0.941  -2.636  0.00  0.00    +0.016 A 
ATOM      6  C   UNL     1       2.219  -0.596  -1.475  0.00  0.00    +0.028 A 
ENDROOT
BRANCH   1   8
ATOM      7  C   UNL     1      -0.022   1.810   0.012  0.00  0.00    +0.200 C 
ATOM      8  S   UNL     1       0.002  -0.004   0.002  0.00  0.00    -0.006 S 
ATOM      9  O   UNL     1       0.835  -0.488   1.046  0.00  0.00    -0.170 OA
ATOM     10  O   UNL     1      -1.315  -0.510  -0.168  0.00  0.00    -0.170 OA
ENDBRANCH   1   8
BRANCH   4  11
ATOM     11  S   UNL     1       3.013  -1.553  -5.300  0.00  0.00    -0.121 S 
BRANCH  11  12
ATOM     12  C   UNL     1       4.755  -1.652  -4.803  0.00  0.00    +0.068 C 
ATOM     13  C   UNL     1       5.223  -0.257  -4.342  0.00  0.00    +0.016 C 
ATOM     14  C   UNL     1       6.442  -0.424  -3.475  0.00  0.00    +0.001 C 
ATOM     15  C   UNL     1       7.754  -0.286  -4.271  0.00  0.00    +0.000 C 
ATOM     16  C   UNL     1       7.701  -0.995  -5.638  0.00  0.00    +0.001 C 
ATOM     17  C   UNL     1       7.026  -2.338  -5.564  0.00  0.00    +0.019 C 
ATOM     18  C   UNL     1       5.537  -2.156  -5.923  0.00  0.00    +0.105 C 
BRANCH  18  19
ATOM     19  C   UNL     1       5.426  -1.210  -7.045  0.00  0.00    +0.067 C 
ATOM     20  N   UNL     1       5.341  -0.479  -7.911  0.00  0.00    -0.196 NA
ENDBRANCH  18  19
ENDBRANCH  11  12
ENDBRANCH   4  11
TORSDOF 4
