REMARK  Name = ZINC63624948
REMARK  7 active torsions:
REMARK  status: ('A' for Active; 'I' for Inactive)
REMARK    1  A    between atoms: C_1  and  C_2
REMARK    2  A    between atoms: C_2  and  C_3
REMARK    3  A    between atoms: C_3  and  C_4
REMARK    4  A    between atoms: C_7  and  S_10
REMARK    5  A    between atoms: S_10  and  N_13
REMARK    6  A    between atoms: C_26  and  C_28
REMARK    7  A    between atoms: C_31  and  C_34
REMARK                            x       y       z     vdW  Elec       q    Type
REMARK                         _______ _______ _______ _____ _____    ______ ____
ROOT
ATOM      1  N   UNL     1       0.162  -7.112   0.128  0.00  0.00    -0.167 NA
ATOM      2  C   UNL     1       1.014  -7.225   1.315  0.00  0.00    +0.114 C 
ATOM      3  C   UNL     1       0.903  -8.648   1.893  0.00  0.00    +0.050 C 
ATOM      4  C   UNL     1      -0.566  -8.992   1.914  0.00  0.00    -0.035 C 
ATOM      5  C   UNL     1      -1.347  -9.444   2.887  0.00  0.00    -0.001 A 
ATOM      6  C   UNL     1      -1.049  -9.878   4.261  0.00  0.00    +0.010 A 
ATOM      7  C   UNL     1      -2.113 -10.272   5.010  0.00  0.00    +0.001 A 
ATOM      8  C   UNL     1      -3.428 -10.279   4.534  0.00  0.00    +0.002 A 
ATOM      9  C   UNL     1      -3.792  -9.905   3.281  0.00  0.00    +0.026 A 
ATOM     10  C   UNL     1      -2.759  -9.477   2.398  0.00  0.00    +0.043 A 
ATOM     11  N   UNL     1      -2.819  -9.093   1.157  0.00  0.00    -0.376 N 
ATOM     12  C   UNL     1      -1.458  -8.830   0.689  0.00  0.00    +0.129 C 
ATOM     13  C   UNL     1      -1.283  -7.380   0.212  0.00  0.00    +0.136 C 
ATOM     14  H   UNL     1      -3.628  -8.997   0.631  0.00  0.00    +0.160 HD
ENDROOT
BRANCH  13  15
ATOM     15  C   UNL     1      -1.914  -7.207  -1.146  0.00  0.00    -0.026 A 
ATOM     16  C   UNL     1      -2.042  -8.293  -1.992  0.00  0.00    +0.005 A 
ATOM     17  C   UNL     1      -2.621  -8.134  -3.237  0.00  0.00    +0.003 A 
ATOM     18  C   UNL     1      -3.072  -6.890  -3.636  0.00  0.00    -0.050 A 
ATOM     19  C   UNL     1      -2.945  -5.804  -2.790  0.00  0.00    +0.003 A 
ATOM     20  C   UNL     1      -2.370  -5.964  -1.543  0.00  0.00    +0.005 A 
ATOM     21  C   UNL     1      -3.702  -6.717  -4.994  0.00  0.00    +0.044 C 
ENDBRANCH  13  15
BRANCH   1  22
ATOM     22  S   UNL     1       0.830  -6.671  -1.322  0.00  0.00    +0.061 S 
ATOM     23  O   UNL     1      -0.069  -7.107  -2.333  0.00  0.00    -0.153 OA
ATOM     24  O   UNL     1       2.190  -7.080  -1.283  0.00  0.00    -0.153 OA
BRANCH  22  28
ATOM     25  C   UNL     1       0.844  -2.147  -1.471  0.00  0.00    -0.047 A 
ATOM     26  C   UNL     1       1.828  -2.818  -0.769  0.00  0.00    +0.005 A 
ATOM     27  C   UNL     1       1.823  -4.200  -0.724  0.00  0.00    +0.029 A 
ATOM     28  C   UNL     1       0.835  -4.910  -1.379  0.00  0.00    +0.106 A 
ATOM     29  C   UNL     1      -0.149  -4.238  -2.080  0.00  0.00    +0.029 A 
ATOM     30  C   UNL     1      -0.147  -2.856  -2.122  0.00  0.00    +0.005 A 
BRANCH  25  31
ATOM     31  C   UNL     1       0.849  -0.640  -1.520  0.00  0.00    +0.035 C 
BRANCH  31  33
ATOM     32  C   UNL     1       0.043   1.440  -0.397  0.00  0.00    +0.004 C 
ATOM     33  C   UNL     1       0.038  -0.089  -0.346  0.00  0.00    +0.001 C 
ENDBRANCH  31  33
ENDBRANCH  25  31
ENDBRANCH  22  28
ENDBRANCH   1  22
TORSDOF 5
