REMARK  Name = ZINC05603620
REMARK  8 active torsions:
REMARK  status: ('A' for Active; 'I' for Inactive)
REMARK    1  A    between atoms: C_4  and  C_7
REMARK    2  A    between atoms: C_7  and  C_8
REMARK    3  A    between atoms: C_8  and  C_10
REMARK    4  A    between atoms: C_8  and  O_27
REMARK    5  A    between atoms: C_10  and  C_20
REMARK    6  A    between atoms: N_11  and  N_12
REMARK    7  A    between atoms: N_12  and  C_13
REMARK    8  A    between atoms: C_20  and  C_21
REMARK                            x       y       z     vdW  Elec       q    Type
REMARK                         _______ _______ _______ _____ _____    ______ ____
ROOT
ATOM      1  C   UNL     1      -2.123   3.777   0.224  0.00  0.00    +0.070 C 
ATOM      2  N   UNL     1      -1.107   2.999   0.207  0.00  0.00    -0.188 NA
ENDROOT
BRANCH   2   3
ATOM      3  N   UNL     1      -1.273   1.625   0.424  0.00  0.00    -0.238 N 
ATOM      4  H   UNL     1      -2.158   1.263   0.587  0.00  0.00    +0.174 HD
BRANCH   3   5
ATOM      5  C   UNL     1      -0.164   0.776   0.406  0.00  0.00    +0.048 A 
ATOM      6  C   UNL     1       1.104   1.292   0.167  0.00  0.00    +0.026 A 
ATOM      7  C   UNL     1       2.198   0.449   0.144  0.00  0.00    +0.017 A 
ATOM      8  C   UNL     1       2.032  -0.908   0.359  0.00  0.00    +0.018 A 
ATOM      9  C   UNL     1       0.771  -1.425   0.596  0.00  0.00    +0.017 A 
ATOM     10  C   UNL     1      -0.327  -0.587   0.621  0.00  0.00    +0.026 A 
ATOM     11 BR   UNL     1       3.533  -2.058   0.327  0.00  0.00    -0.050 Br
ENDBRANCH   3   5
ENDBRANCH   2   3
BRANCH   1  12
ATOM     12  C   UNL     1      -1.945   5.255  -0.009  0.00  0.00    +0.165 C 
BRANCH  12  13
ATOM     13  O   UNL     1      -2.346   5.973   1.159  0.00  0.00    -0.386 OA
ATOM     14  H   UNL     1      -3.292   5.917   1.350  0.00  0.00    +0.210 HD
ENDBRANCH  12  13
BRANCH  12  15
ATOM     15  C   UNL     1      -2.805   5.691  -1.196  0.00  0.00    +0.072 C 
BRANCH  15  19
ATOM     16  C   UNL     1      -2.037   9.800  -2.078  0.00  0.00    +0.000 A 
ATOM     17  C   UNL     1      -1.288   8.811  -2.687  0.00  0.00    +0.000 A 
ATOM     18  C   UNL     1      -1.536   7.481  -2.401  0.00  0.00    +0.004 A 
ATOM     19  C   UNL     1      -2.534   7.141  -1.507  0.00  0.00    -0.045 A 
ATOM     20  C   UNL     1      -3.287   8.130  -0.902  0.00  0.00    +0.004 A 
ATOM     21  C   UNL     1      -3.035   9.460  -1.183  0.00  0.00    +0.000 A 
ENDBRANCH  15  19
ENDBRANCH  12  15
ENDBRANCH   1  12
BRANCH   1  22
ATOM     22  C   UNL     1      -3.498   3.215   0.477  0.00  0.00    +0.090 C 
BRANCH  22  23
ATOM     23  C   UNL     1      -3.752   3.158   1.962  0.00  0.00    -0.042 A 
ATOM     24  C   UNL     1      -3.305   2.077   2.699  0.00  0.00    +0.004 A 
ATOM     25  C   UNL     1      -3.534   2.028   4.061  0.00  0.00    +0.000 A 
ATOM     26  C   UNL     1      -4.219   3.054   4.685  0.00  0.00    +0.000 A 
ATOM     27  C   UNL     1      -4.672   4.131   3.947  0.00  0.00    +0.000 A 
ATOM     28  C   UNL     1      -4.438   4.184   2.585  0.00  0.00    +0.004 A 
ENDBRANCH  22  23
ENDBRANCH   1  22
TORSDOF 8
