REMARK  Name = ZINC50997242
REMARK  5 active torsions:
REMARK  status: ('A' for Active; 'I' for Inactive)
REMARK    1  A    between atoms: C_1  and  C_2
REMARK    2  A    between atoms: C_2  and  C_3
REMARK    3  A    between atoms: C_3  and  C_4
REMARK    4  A    between atoms: C_6  and  C_13
REMARK    5  A    between atoms: N_8  and  C_9
REMARK                            x       y       z     vdW  Elec       q    Type
REMARK                         _______ _______ _______ _____ _____    ______ ____
ROOT
ATOM      1  C   UNL     1      -1.521  -2.047   0.004  0.00  0.00    +0.077 C 
ATOM      2  N   UNL     1      -1.489  -2.748  -1.073  0.00  0.00    -0.363 N 
ATOM      3  C   UNL     1      -1.327  -4.161  -0.697  0.00  0.00    +0.175 C 
ATOM      4  C   UNL     1      -1.272  -4.129   0.819  0.00  0.00    +0.101 C 
ATOM      5  N   UNL     1      -1.394  -2.795   1.141  0.00  0.00    -0.276 N 
ATOM      6  N   UNL     1      -1.138  -5.129   1.627  0.00  0.00    -0.388 N 
ATOM      7  H   UNL     1      -1.135  -6.035   1.281  0.00  0.00    +0.157 HD
ATOM      8  H   UNL     1      -1.040  -4.973   2.579  0.00  0.00    +0.157 HD
ATOM      9  H   UNL     1      -1.559  -2.405  -1.978  0.00  0.00    +0.162 HD
ENDROOT
BRANCH   3  10
ATOM     10  C   UNL     1      -2.507  -4.972  -1.167  0.00  0.00    +0.017 A 
ATOM     11  C   UNL     1      -3.691  -4.341  -1.501  0.00  0.00    +0.010 A 
ATOM     12  C   UNL     1      -4.773  -5.084  -1.932  0.00  0.00    +0.016 A 
ATOM     13  C   UNL     1      -4.673  -6.461  -2.030  0.00  0.00    +0.021 A 
ATOM     14  C   UNL     1      -3.490  -7.094  -1.696  0.00  0.00    +0.054 A 
ATOM     15  C   UNL     1      -2.404  -6.349  -1.270  0.00  0.00    +0.130 A 
ATOM     16  F   UNL     1      -1.246  -6.966  -0.948  0.00  0.00    -0.205 F 
ATOM     17 BR   UNL     1      -6.155  -7.476  -2.620  0.00  0.00    -0.050 Br
ENDBRANCH   3  10
BRANCH   5  18
ATOM     18  C   UNL     1      -1.390  -2.256   2.504  0.00  0.00    +0.081 C 
ATOM     19  C   UNL     1      -2.265  -2.959   3.543  0.00  0.00    +0.025 C 
ATOM     20  C   UNL     1      -2.672  -1.587   3.002  0.00  0.00    +0.025 C 
ENDBRANCH   5  18
BRANCH   1  21
ATOM     21  C   UNL     1      -1.677  -0.548   0.013  0.00  0.00    +0.069 C 
BRANCH  21  23
ATOM     22  C   UNL     1      -0.454   1.630  -0.032  0.00  0.00    +0.004 C 
ATOM     23  C   UNL     1      -0.296   0.109  -0.040  0.00  0.00    +0.004 C 
ENDBRANCH  21  23
ENDBRANCH   1  21
TORSDOF 4
