REMARK  Name = ZINC58298255
REMARK  13 active torsions:
REMARK  status: ('A' for Active; 'I' for Inactive)
REMARK    1  A    between atoms: C_1  and  C_2
REMARK    2  A    between atoms: C_5  and  S_8
REMARK    3  A    between atoms: S_8  and  N_11
REMARK    4  A    between atoms: N_11  and  C_12
REMARK    5  A    between atoms: C_12  and  C_13
REMARK    6  A    between atoms: N_18  and  C_20
REMARK    7  A    between atoms: C_20  and  C_21
REMARK    8  A    between atoms: N_23  and  C_24
REMARK    9  A    between atoms: C_24  and  C_25
REMARK   10  A    between atoms: N_28  and  C_32
REMARK   11  A    between atoms: C_32  and  C_33
REMARK   12  A    between atoms: C_33  and  C_34
REMARK   13  A    between atoms: C_33  and  C_35
REMARK                            x       y       z     vdW  Elec       q    Type
REMARK                         _______ _______ _______ _____ _____    ______ ____
ROOT
ATOM      1  C   UNL     1       2.648  -6.003   4.200  0.00  0.00    -0.012 C 
ATOM      2  C   UNL     1       3.050  -5.637   2.768  0.00  0.00    +0.001 C 
ATOM      3  C   UNL     1       4.309  -6.421   2.386  0.00  0.00    -0.018 C 
ATOM      4  C   UNL     1       5.418  -6.118   3.395  0.00  0.00    -0.078 C 
ATOM      5  N   UNL     1       4.983  -6.514   4.739  0.00  0.00    +0.386 N 
ATOM      6  C   UNL     1       3.819  -5.716   5.143  0.00  0.00    -0.073 C 
ATOM      7  H   UNL     1       4.734  -7.492   4.737  0.00  0.00    -0.081 HD
ENDROOT
BRANCH   1   8
ATOM      8  C   UNL     1       1.438  -5.167   4.620  0.00  0.00    +0.107 C 
BRANCH   8   9
ATOM      9  N   UNL     1       0.284  -5.528   3.792  0.00  0.00    -0.190 NA
ATOM     10  H   UNL     1       0.413  -6.035   2.975  0.00  0.00    +0.148 HD
BRANCH   9  11
ATOM     11  S   UNL     1      -1.240  -5.070   4.250  0.00  0.00    +0.058 S 
ATOM     12  O   UNL     1      -1.379  -5.434   5.617  0.00  0.00    -0.153 OA
ATOM     13  O   UNL     1      -2.125  -5.539   3.243  0.00  0.00    -0.153 OA
BRANCH  11  18
ATOM     14  C   UNL     1      -1.432   0.958   4.044  0.00  0.00    +0.044 C 
ATOM     15  C   UNL     1      -1.384  -0.548   4.095  0.00  0.00    -0.050 A 
ATOM     16  C   UNL     1      -1.719  -1.289   2.978  0.00  0.00    +0.005 A 
ATOM     17  C   UNL     1      -1.675  -2.670   3.025  0.00  0.00    +0.029 A 
ATOM     18  C   UNL     1      -1.295  -3.309   4.190  0.00  0.00    +0.105 A 
ATOM     19  C   UNL     1      -0.959  -2.569   5.307  0.00  0.00    +0.029 A 
ATOM     20  C   UNL     1      -0.999  -1.188   5.259  0.00  0.00    +0.005 A 
ENDBRANCH  11  18
ENDBRANCH   9  11
ENDBRANCH   8   9
ENDBRANCH   1   8
BRANCH   5  21
ATOM     21  C   UNL     1       6.080  -6.294   5.692  0.00  0.00    +0.019 C 
BRANCH  21  22
ATOM     22  C   UNL     1       7.228  -7.211   5.358  0.00  0.00    +0.197 C 
ATOM     23  O   UNL     1       7.141  -7.973   4.418  0.00  0.00    -0.278 OA
ATOM     24  N   UNL     1       8.351  -7.184   6.102  0.00  0.00    -0.314 N 
ATOM     25  H   UNL     1       8.420  -6.575   6.854  0.00  0.00    +0.149 HD
BRANCH  24  26
ATOM     26  C   UNL     1       9.467  -8.076   5.777  0.00  0.00    +0.137 C 
BRANCH  26  27
ATOM     27  C   UNL     1      10.609  -7.846   6.769  0.00  0.00    +0.149 C 
ATOM     28  C   UNL     1      11.820  -8.687   6.358  0.00  0.00    +0.117 C 
ATOM     29  N   UNL     1      12.886  -8.522   7.357  0.00  0.00    -0.297 NA
ATOM     30  C   UNL     1      12.419  -8.930   8.690  0.00  0.00    +0.112 C 
ATOM     31  C   UNL     1      11.202  -8.086   9.078  0.00  0.00    +0.175 C 
ATOM     32  O   UNL     1      10.187  -8.233   8.080  0.00  0.00    -0.372 OA
BRANCH  29  33
ATOM     33  C   UNL     1      14.090  -9.270   6.970  0.00  0.00    +0.087 C 
BRANCH  33  34
ATOM     34  C   UNL     1      14.818  -8.522   5.851  0.00  0.00    -0.003 C 
ATOM     35  C   UNL     1      15.305  -7.170   6.375  0.00  0.00    +0.008 C 
ATOM     36  C   UNL     1      16.016  -9.348   5.380  0.00  0.00    +0.008 C 
ENDBRANCH  33  34
ENDBRANCH  29  33
ENDBRANCH  26  27
ENDBRANCH  24  26
ENDBRANCH  21  22
ENDBRANCH   5  21
TORSDOF 10
