REMARK  Name = ZINC36727767
REMARK  9 active torsions:
REMARK  status: ('A' for Active; 'I' for Inactive)
REMARK    1  A    between atoms: C_1  and  C_2
REMARK    2  A    between atoms: C_7  and  C_8
REMARK    3  A    between atoms: C_8  and  C_9
REMARK    4  A    between atoms: C_8  and  C_10
REMARK    5  A    between atoms: C_11  and  C_14
REMARK    6  A    between atoms: C_14  and  C_15
REMARK    7  A    between atoms: N_17  and  C_18
REMARK    8  A    between atoms: C_18  and  C_19
REMARK    9  A    between atoms: C_22  and  C_25
REMARK                            x       y       z     vdW  Elec       q    Type
REMARK                         _______ _______ _______ _____ _____    ______ ____
ROOT
ATOM      1  C   UNL     1      -0.409  -5.856   1.132  0.00  0.00    +0.218 C 
ATOM      2  O   UNL     1      -1.494  -5.367   0.896  0.00  0.00    -0.275 OA
ATOM      3  N   UNL     1      -0.310  -6.896   1.983  0.00  0.00    -0.311 N 
ATOM      4  H   UNL     1       0.558  -7.287   2.172  0.00  0.00    +0.149 HD
ENDROOT
BRANCH   1   5
ATOM      5  C   UNL     1       0.827  -5.299   0.474  0.00  0.00    +0.134 C 
BRANCH   5  13
ATOM      6  C   UNL     1      -0.485   1.457   0.078  0.00  0.00    +0.044 C 
ATOM      7  C   UNL     1      -0.222  -0.026   0.035  0.00  0.00    -0.044 A 
ATOM      8  C   UNL     1      -0.327  -0.702  -1.162  0.00  0.00    +0.050 A 
ATOM      9  C   UNL     1      -0.086  -2.069  -1.210  0.00  0.00    +0.135 A 
ATOM     10  C   UNL     1       0.264  -2.748  -0.030  0.00  0.00    +0.024 A 
ATOM     11  C   UNL     1       0.366  -2.052   1.174  0.00  0.00    +0.016 A 
ATOM     12  C   UNL     1       0.128  -0.695   1.198  0.00  0.00    -0.041 A 
ATOM     13  C   UNL     1       0.445  -4.150  -0.423  0.00  0.00    +0.007 A 
ATOM     14  C   UNL     1       0.203  -4.203  -1.740  0.00  0.00    +0.200 A 
ATOM     15  O   UNL     1      -0.109  -2.980  -2.203  0.00  0.00    -0.463 OA
BRANCH  12  16
ATOM     16  C   UNL     1       0.243   0.064   2.495  0.00  0.00    +0.013 C 
ATOM     17  C   UNL     1      -0.844  -0.411   3.462  0.00  0.00    +0.012 C 
ATOM     18  C   UNL     1       1.620  -0.188   3.112  0.00  0.00    +0.012 C 
ENDBRANCH  12  16
ENDBRANCH   5  13
ENDBRANCH   1   5
BRANCH   3  19
ATOM     19  C   UNL     1      -1.512  -7.437   2.623  0.00  0.00    +0.139 C 
BRANCH  19  20
ATOM     20  C   UNL     1      -1.130  -8.586   3.520  0.00  0.00    -0.030 A 
ATOM     21  C   UNL     1      -1.094  -9.873   3.013  0.00  0.00    +0.006 A 
ATOM     22  C   UNL     1      -0.745 -10.929   3.829  0.00  0.00    +0.013 A 
ATOM     23  C   UNL     1      -0.428 -10.697   5.168  0.00  0.00    +0.037 A 
ATOM     24  C   UNL     1      -0.466  -9.397   5.673  0.00  0.00    +0.013 A 
ATOM     25  C   UNL     1      -0.811  -8.348   4.845  0.00  0.00    +0.006 A 
BRANCH  23  26
ATOM     26  C   UNL     1      -0.053 -11.825   6.048  0.00  0.00    +0.242 C 
ATOM     27  O   UNL     1      -0.021 -12.957   5.606  0.00  0.00    -0.270 OA
ATOM     28  N   UNL     1       0.252 -11.598   7.341  0.00  0.00    -0.325 N 
ATOM     29  H   UNL     1       0.227 -10.694   7.694  0.00  0.00    +0.145 HD
ATOM     30  H   UNL     1       0.498 -12.337   7.919  0.00  0.00    +0.145 HD
ENDBRANCH  23  26
ENDBRANCH  19  20
ENDBRANCH   3  19
TORSDOF 6
