REMARK  Name = ZINC40710927
REMARK  7 active torsions:
REMARK  status: ('A' for Active; 'I' for Inactive)
REMARK    1  A    between atoms: C_3  and  O_9
REMARK    2  A    between atoms: C_6  and  C_7
REMARK    3  A    between atoms: C_7  and  O_8
REMARK    4  A    between atoms: O_9  and  C_10
REMARK    5  A    between atoms: C_10  and  C_11
REMARK    6  A    between atoms: N_13  and  C_14
REMARK    7  A    between atoms: C_17  and  N_21
REMARK                            x       y       z     vdW  Elec       q    Type
REMARK                         _______ _______ _______ _____ _____    ______ ____
ROOT
ATOM      1  C   UNL     1       5.940   2.274  -0.037  0.00  0.00    +0.255 C 
ATOM      2  O   UNL     1       5.766   3.474  -0.034  0.00  0.00    -0.272 OA
ATOM      3  N   UNL     1       7.192   1.774  -0.058  0.00  0.00    -0.282 N 
ATOM      4  H   UNL     1       7.333   0.817   0.005  0.00  0.00    +0.155 HD
ENDROOT
BRANCH   3   5
ATOM      5  C   UNL     1       8.290   2.638  -0.170  0.00  0.00    +0.048 A 
ATOM      6  C   UNL     1       8.252   3.891   0.428  0.00  0.00    +0.026 A 
ATOM      7  C   UNL     1       9.333   4.742   0.318  0.00  0.00    +0.024 A 
ATOM      8  C   UNL     1      10.459   4.346  -0.392  0.00  0.00    +0.026 A 
ATOM      9  C   UNL     1      10.498   3.094  -0.990  0.00  0.00    +0.039 A 
ATOM     10  C   UNL     1       9.418   2.240  -0.875  0.00  0.00    +0.041 A 
ATOM     11 BR   UNL     1       9.473   0.531  -1.684  0.00  0.00    -0.048 Br
BRANCH   8  12
ATOM     12  N   UNL     1      11.555   5.209  -0.504  0.00  0.00    -0.358 N 
ATOM     13  H   UNL     1      11.527   6.084  -0.086  0.00  0.00    +0.142 HD
ATOM     14  H   UNL     1      12.341   4.932  -0.999  0.00  0.00    +0.142 HD
ENDBRANCH   8  12
ENDBRANCH   3   5
BRANCH   1  15
ATOM     15  C   UNL     1       4.757   1.341  -0.019  0.00  0.00    +0.324 C 
BRANCH  15  16
ATOM     16  O   UNL     1       3.549   2.105   0.001  0.00  0.00    -0.483 OA
BRANCH  16  19
ATOM     17  C   UNL     1      -0.016   1.381   0.057  0.00  0.00    +0.009 A 
ATOM     18  C   UNL     1       1.170   2.089   0.039  0.00  0.00    +0.046 A 
ATOM     19  C   UNL     1       2.380   1.411   0.019  0.00  0.00    +0.121 A 
ATOM     20  C   UNL     1       2.396   0.024   0.017  0.00  0.00    +0.046 A 
ATOM     21  C   UNL     1       1.207  -0.679   0.035  0.00  0.00    +0.009 A 
ATOM     22  C   UNL     1       0.002  -0.002   0.055  0.00  0.00    -0.022 A 
BRANCH  22  23
ATOM     23  C   UNL     1      -1.294  -0.771   0.075  0.00  0.00    +0.191 C 
BRANCH  23  24
ATOM     24  O   UNL     1      -1.725  -1.013  -1.266  0.00  0.00    -0.390 OA
ATOM     25  H   UNL     1      -2.555  -1.505  -1.329  0.00  0.00    +0.210 HD
ENDBRANCH  23  24
ENDBRANCH  22  23
ENDBRANCH  16  19
ENDBRANCH  15  16
ENDBRANCH   1  15
TORSDOF 7
