REMARK  Name = ZINC35555776
REMARK  8 active torsions:
REMARK  status: ('A' for Active; 'I' for Inactive)
REMARK    1  A    between atoms: C_1  and  O_2
REMARK    2  A    between atoms: O_2  and  C_3
REMARK    3  A    between atoms: C_8  and  C_9
REMARK    4  A    between atoms: C_9  and  C_10
REMARK    5  A    between atoms: C_10  and  N_11
REMARK    6  A    between atoms: C_12  and  C_14
REMARK    7  A    between atoms: C_19  and  C_37
REMARK    8  A    between atoms: N_27  and  C_30
REMARK                            x       y       z     vdW  Elec       q    Type
REMARK                         _______ _______ _______ _____ _____    ______ ____
ROOT
ATOM      1  C   UNL     1      -3.958  -4.971   1.815  0.00  0.00    +0.101 C 
ATOM      2  C   UNL     1      -3.770  -4.266   3.158  0.00  0.00    +0.051 C 
ATOM      3  C   UNL     1      -4.456  -5.074   4.229  0.00  0.00    -0.025 A 
ATOM      4  C   UNL     1      -3.975  -5.038   5.525  0.00  0.00    +0.017 A 
ATOM      5  C   UNL     1      -4.592  -5.784   6.512  0.00  0.00    +0.055 A 
ATOM      6  C   UNL     1      -5.689  -6.568   6.206  0.00  0.00    +0.014 A 
ATOM      7  C   UNL     1      -6.175  -6.603   4.914  0.00  0.00    +0.024 A 
ATOM      8  C   UNL     1      -5.559  -5.848   3.919  0.00  0.00    +0.033 A 
ATOM      9  N   UNL     1      -6.094  -5.886   2.620  0.00  0.00    -0.323 N 
ATOM     10  C   UNL     1      -5.452  -5.166   1.534  0.00  0.00    +0.103 C 
ATOM     11  C   UNL     1      -5.599  -5.852   0.186  0.00  0.00    +0.128 C 
ATOM     12  N   UNL     1      -6.850  -6.571   0.049  0.00  0.00    -0.324 N 
ATOM     13  C   UNL     1      -7.421  -7.359   1.128  0.00  0.00    +0.124 C 
ATOM     14  C   UNL     1      -7.341  -6.630   2.450  0.00  0.00    +0.124 C 
ENDROOT
BRANCH  12  15
ATOM     15  C   UNL     1      -7.535  -6.503  -1.169  0.00  0.00    +0.065 A 
ATOM     16  C   UNL     1      -7.281  -7.439  -2.162  0.00  0.00    +0.026 A 
ATOM     17  C   UNL     1      -7.959  -7.370  -3.364  0.00  0.00    +0.002 A 
ATOM     18  C   UNL     1      -8.889  -6.370  -3.579  0.00  0.00    +0.003 A 
ATOM     19  C   UNL     1      -9.145  -5.435  -2.593  0.00  0.00    +0.040 A 
ATOM     20  C   UNL     1      -8.475  -5.501  -1.385  0.00  0.00    +0.144 A 
ATOM     21  F   UNL     1      -8.728  -4.591  -0.419  0.00  0.00    -0.204 F 
ENDBRANCH  12  15
BRANCH   1  23
ATOM     22  N   UNL     1      -2.035  -3.834   0.755  0.00  0.00    -0.315 N 
ATOM     23  C   UNL     1      -3.348  -4.134   0.721  0.00  0.00    +0.218 C 
ATOM     24  O   UNL     1      -4.039  -3.731  -0.191  0.00  0.00    -0.275 OA
ATOM     25  H   UNL     1      -1.482  -4.156   1.484  0.00  0.00    +0.149 HD
BRANCH  22  26
ATOM     26  C   UNL     1      -1.442  -3.020  -0.309  0.00  0.00    +0.109 C 
BRANCH  26  27
ATOM     27  C   UNL     1       0.051  -2.828  -0.033  0.00  0.00    +0.057 C 
BRANCH  27  33
ATOM     28  C   UNL     1       0.606  -0.607  -1.056  0.00  0.00    +0.123 A 
ATOM     29  C   UNL     1       1.173   0.161  -2.063  0.00  0.00    +0.046 A 
ATOM     30  C   UNL     1       1.786  -0.455  -3.136  0.00  0.00    +0.004 A 
ATOM     31  C   UNL     1       1.836  -1.835  -3.208  0.00  0.00    +0.000 A 
ATOM     32  C   UNL     1       1.271  -2.602  -2.207  0.00  0.00    +0.007 A 
ATOM     33  C   UNL     1       0.661  -1.991  -1.128  0.00  0.00    -0.004 A 
BRANCH  28  35
ATOM     34  C   UNL     1      -0.017   1.425   0.010  0.00  0.00    +0.277 C 
ATOM     35  O   UNL     1       0.002  -0.004   0.002  0.00  0.00    -0.495 OA
ENDBRANCH  28  35
ENDBRANCH  27  33
ENDBRANCH  26  27
ENDBRANCH  22  26
ENDBRANCH   1  23
BRANCH   5  36
ATOM     36  C   UNL     1      -4.066  -5.744   7.924  0.00  0.00    +0.417 C 
ATOM     37  F   UNL     1      -4.702  -4.716   8.629  0.00  0.00    -0.166 F 
ATOM     38  F   UNL     1      -4.322  -6.968   8.552  0.00  0.00    -0.166 F 
ATOM     39  F   UNL     1      -2.687  -5.509   7.902  0.00  0.00    -0.166 F 
ENDBRANCH   5  36
TORSDOF 7
