REMARK  Name = ZINC63349877
REMARK  10 active torsions:
REMARK  status: ('A' for Active; 'I' for Inactive)
REMARK    1  A    between atoms: C_1  and  C_2
REMARK    2  A    between atoms: C_4  and  O_11
REMARK    3  A    between atoms: C_7  and  N_8
REMARK    4  A    between atoms: O_11  and  C_12
REMARK    5  A    between atoms: C_12  and  C_13
REMARK    6  A    between atoms: C_15  and  C_21
REMARK    7  A    between atoms: C_18  and  O_19
REMARK    8  A    between atoms: O_19  and  C_20
REMARK    9  A    between atoms: C_28  and  O_33
REMARK   10  A    between atoms: O_33  and  C_34
REMARK                            x       y       z     vdW  Elec       q    Type
REMARK                         _______ _______ _______ _____ _____    ______ ____
ROOT
ATOM      1  C   UNL     1       0.150  -4.764  -3.784  0.00  0.00    +0.032 A 
ATOM      2  C   UNL     1      -0.210  -3.911  -4.809  0.00  0.00    +0.015 A 
ATOM      3  C   UNL     1      -0.568  -4.423  -6.043  0.00  0.00    -0.028 A 
ATOM      4  C   UNL     1      -0.565  -5.790  -6.254  0.00  0.00    +0.009 A 
ATOM      5  C   UNL     1      -0.204  -6.647  -5.232  0.00  0.00    +0.046 A 
ATOM      6  C   UNL     1       0.160  -6.135  -3.995  0.00  0.00    +0.126 A 
ENDROOT
BRANCH   3   7
ATOM      7  C   UNL     1      -0.962  -3.490  -7.159  0.00  0.00    +0.111 C 
ATOM      8  C   UNL     1      -2.331  -3.896  -7.710  0.00  0.00    +0.128 C 
ATOM      9  C   UNL     1      -2.141  -5.261  -8.361  0.00  0.00    -0.035 C 
ATOM     10  C   UNL     1      -3.041  -6.066  -7.815  0.00  0.00    +0.003 A 
ATOM     11  C   UNL     1      -3.405  -7.465  -8.086  0.00  0.00    +0.055 A 
ATOM     12  C   UNL     1      -4.388  -8.002  -7.312  0.00  0.00    +0.121 A 
ATOM     13  C   UNL     1      -5.054  -7.304  -6.294  0.00  0.00    +0.047 A 
ATOM     14  C   UNL     1      -4.803  -6.011  -5.965  0.00  0.00    +0.029 A 
ATOM     15  C   UNL     1      -3.761  -5.319  -6.736  0.00  0.00    +0.043 A 
ATOM     16  N   UNL     1      -3.330  -4.077  -6.658  0.00  0.00    -0.376 N 
ATOM     17  C   UNL     1      -1.028  -5.520  -9.348  0.00  0.00    +0.048 C 
ATOM     18  C   UNL     1       0.253  -4.952  -8.710  0.00  0.00    +0.086 C 
ATOM     19  N   UNL     1       0.022  -3.579  -8.249  0.00  0.00    -0.307 NA
ATOM     20  H   UNL     1      -0.236  -2.978  -9.018  0.00  0.00    +0.123 HD
ATOM     21  H   UNL     1      -3.613  -3.402  -6.021  0.00  0.00    +0.160 HD
BRANCH  12  22
ATOM     22  O   UNL     1      -4.745  -9.293  -7.540  0.00  0.00    -0.495 OA
ATOM     23  C   UNL     1      -5.779  -9.835  -6.715  0.00  0.00    +0.277 C 
ENDBRANCH  12  22
ENDBRANCH   3   7
BRANCH   6  24
ATOM     24  O   UNL     1       0.520  -6.976  -2.990  0.00  0.00    -0.495 OA
ATOM     25  C   UNL     1       0.507  -8.376  -3.279  0.00  0.00    +0.277 C 
ENDBRANCH   6  24
BRANCH   1  26
ATOM     26  C   UNL     1       0.539  -4.206  -2.439  0.00  0.00    +0.268 C 
BRANCH  26  27
ATOM     27  O   UNL     1       0.451  -2.780  -2.472  0.00  0.00    -0.487 OA
BRANCH  27  31
ATOM     28  C   UNL     1       0.962   1.448  -0.088  0.00  0.00    +0.046 C 
ATOM     29  C   UNL     1       1.031  -0.057  -0.131  0.00  0.00    -0.017 A 
ATOM     30  C   UNL     1       0.706  -0.730  -1.292  0.00  0.00    +0.051 A 
ATOM     31  C   UNL     1       0.770  -2.115  -1.331  0.00  0.00    +0.121 A 
ATOM     32  C   UNL     1       1.161  -2.821  -0.202  0.00  0.00    +0.048 A 
ATOM     33  C   UNL     1       1.485  -2.143   0.957  0.00  0.00    +0.036 A 
ATOM     34  C   UNL     1       1.426  -0.762   0.991  0.00  0.00    +0.129 A 
BRANCH  34  35
ATOM     35  N   UNL     1       1.780  -0.038   2.232  0.00  0.00    +0.057 N 
ATOM     36  O   UNL     1       2.364   1.019   2.170  0.00  0.00    -0.126 OA
ATOM     37  O   UNL     1       1.485  -0.503   3.309  0.00  0.00    -0.126 OA
ENDBRANCH  34  35
ENDBRANCH  27  31
ENDBRANCH  26  27
ENDBRANCH   1  26
TORSDOF 7
