REMARK  Name = ZINC66194758
REMARK  7 active torsions:
REMARK  status: ('A' for Active; 'I' for Inactive)
REMARK    1  A    between atoms: C_1  and  C_2
REMARK    2  A    between atoms: C_2  and  C_3
REMARK    3  A    between atoms: C_3  and  C_5
REMARK    4  A    between atoms: C_3  and  N_11
REMARK    5  A    between atoms: N_14  and  C_15
REMARK    6  A    between atoms: N_14  and  C_16
REMARK    7  A    between atoms: N_19  and  C_22
REMARK                            x       y       z     vdW  Elec       q    Type
REMARK                         _______ _______ _______ _____ _____    ______ ____
ROOT
ATOM      1  N   UNL     1      -2.105  -0.148  -1.230  0.00  0.00    -0.296 N 
ATOM      2  C   UNL     1      -2.690   1.062  -1.334  0.00  0.00    +0.302 C 
ATOM      3  O   UNL     1      -2.659   1.834  -0.395  0.00  0.00    -0.253 OA
ATOM      4  N   UNL     1      -3.308   1.416  -2.478  0.00  0.00    -0.286 N 
ATOM      5  C   UNL     1      -3.345   0.486  -3.609  0.00  0.00    +0.134 C 
ATOM      6  H   UNL     1      -2.130  -0.764  -1.980  0.00  0.00    +0.151 HD
ENDROOT
BRANCH   4   7
ATOM      7  C   UNL     1      -3.943   2.732  -2.590  0.00  0.00    +0.074 C 
ATOM      8  C   UNL     1      -5.436   2.556  -2.884  0.00  0.00    +0.004 C 
ATOM      9  C   UNL     1      -6.077   3.932  -3.078  0.00  0.00    -0.077 C 
ATOM     10  N   UNL     1      -5.433   4.621  -4.203  0.00  0.00    +0.382 N 
ATOM     11  C   UNL     1      -4.017   4.857  -3.897  0.00  0.00    -0.077 C 
ATOM     12  C   UNL     1      -3.296   3.517  -3.734  0.00  0.00    +0.004 C 
ATOM     13  H   UNL     1      -5.507   4.051  -5.032  0.00  0.00    -0.081 HD
BRANCH  10  14
ATOM     14  C   UNL     1      -6.103   5.908  -4.435  0.00  0.00    -0.064 C 
ATOM     15  C   UNL     1      -7.577   5.664  -4.774  0.00  0.00    +0.013 C 
ATOM     16  C   UNL     1      -8.247   7.003  -5.091  0.00  0.00    +0.158 C 
ATOM     17  O   UNL     1      -7.557   7.637  -6.170  0.00  0.00    -0.380 OA
ATOM     18  C   UNL     1      -6.186   7.932  -5.893  0.00  0.00    +0.158 C 
ATOM     19  C   UNL     1      -5.433   6.630  -5.608  0.00  0.00    +0.013 C 
ENDBRANCH  10  14
ENDBRANCH   4   7
BRANCH   1  20
ATOM     20  C   UNL     1      -1.433  -0.534   0.013  0.00  0.00    +0.077 C 
BRANCH  20  21
ATOM     21  C   UNL     1      -1.413  -2.059   0.130  0.00  0.00    +0.009 C 
ATOM     22  C   UNL     1      -0.660  -2.652  -1.062  0.00  0.00    +0.005 C 
ATOM     23  C   UNL     1      -0.640  -4.178  -0.945  0.00  0.00    +0.000 C 
ATOM     24  C   UNL     1      -2.075  -4.707  -0.934  0.00  0.00    +0.000 C 
ATOM     25  C   UNL     1      -2.829  -4.114   0.258  0.00  0.00    +0.000 C 
ATOM     26  C   UNL     1      -2.849  -2.589   0.141  0.00  0.00    +0.005 C 
ENDBRANCH  20  21
BRANCH  20  28
ATOM     27  C   UNL     1      -0.019   1.526   0.010  0.00  0.00    +0.006 C 
ATOM     28  C   UNL     1       0.002  -0.004   0.002  0.00  0.00    +0.019 C 
ENDBRANCH  20  28
ENDBRANCH   1  20
TORSDOF 5
