REMARK  Name = ZINC63652893
REMARK  8 active torsions:
REMARK  status: ('A' for Active; 'I' for Inactive)
REMARK    1  A    between atoms: C_1  and  C_2
REMARK    2  A    between atoms: C_4  and  C_21
REMARK    3  A    between atoms: C_5  and  C_20
REMARK    4  A    between atoms: C_21  and  C_22
REMARK    5  A    between atoms: C_22  and  C_23
REMARK    6  A    between atoms: N_25  and  C_26
REMARK    7  A    between atoms: C_26  and  C_27
REMARK    8  A    between atoms: C_27  and  C_28
REMARK                            x       y       z     vdW  Elec       q    Type
REMARK                         _______ _______ _______ _____ _____    ______ ____
ROOT
ATOM      1  C   UNL     1      -0.408   1.270  -0.046  0.00  0.00    +0.035 C 
ATOM      2  C   UNL     1      -0.124  -0.232   0.011  0.00  0.00    +0.120 C 
ATOM      3  C   UNL     1       0.658  -0.668  -1.208  0.00  0.00    -0.030 C 
ATOM      4  C   UNL     1       1.808  -1.152  -0.788  0.00  0.00    +0.020 C 
ATOM      5  N   UNL     1       1.917  -1.103   0.588  0.00  0.00    -0.267 N 
ATOM      6  N   UNL     1       0.756  -0.546   1.150  0.00  0.00    -0.228 N 
ATOM      7  C   UNL     1       0.491  -0.333   2.501  0.00  0.00    +0.161 A 
ATOM      8  C   UNL     1       1.440  -0.684   3.464  0.00  0.00    +0.050 A 
ATOM      9  C   UNL     1       1.131  -0.453   4.793  0.00  0.00    +0.049 A 
ATOM     10  C   UNL     1      -0.109   0.115   5.088  0.00  0.00    +0.144 A 
ATOM     11  N   UNL     1      -0.946   0.415   4.108  0.00  0.00    -0.132 NA
ATOM     12  N   UNL     1      -0.657   0.206   2.875  0.00  0.00    -0.131 NA
ATOM     13  N   UNL     1      -0.465   0.366   6.412  0.00  0.00    -0.314 N 
ATOM     14  C   UNL     1      -1.661   1.159   6.728  0.00  0.00    +0.106 C 
ATOM     15  C   UNL     1      -2.546   0.356   7.685  0.00  0.00    +0.019 C 
ATOM     16  C   UNL     1      -1.725  -0.057   8.909  0.00  0.00    +0.003 C 
ATOM     17  C   UNL     1      -0.561  -0.947   8.466  0.00  0.00    +0.019 C 
ATOM     18  C   UNL     1       0.344  -0.164   7.518  0.00  0.00    +0.106 C 
ATOM     19  C   UNL     1       2.878  -1.695  -1.701  0.00  0.00    +0.062 C 
ATOM     20  H   UNL     1       2.684  -1.411   1.095  0.00  0.00    +0.170 HD
ENDROOT
BRANCH   3  21
ATOM     21  C   UNL     1       0.203  -0.568  -2.641  0.00  0.00    +0.043 C 
BRANCH  21  22
ATOM     22  C   UNL     1      -0.644  -1.792  -2.994  0.00  0.00    +0.100 C 
BRANCH  22  23
ATOM     23  C   UNL     1      -1.099  -1.692  -4.427  0.00  0.00    +0.213 C 
ATOM     24  O   UNL     1      -0.777  -0.735  -5.100  0.00  0.00    -0.276 OA
ATOM     25  N   UNL     1      -1.863  -2.666  -4.962  0.00  0.00    -0.315 N 
ATOM     26  H   UNL     1      -2.119  -3.431  -4.424  0.00  0.00    +0.149 HD
BRANCH  25  27
ATOM     27  C   UNL     1      -2.305  -2.568  -6.355  0.00  0.00    +0.108 C 
BRANCH  27  28
ATOM     28  C   UNL     1      -3.151  -3.792  -6.708  0.00  0.00    +0.052 C 
BRANCH  28  29
ATOM     29  C   UNL     1      -3.606  -3.692  -8.141  0.00  0.00    -0.040 C 
ATOM     30  C   UNL     1      -3.013  -4.246  -9.223  0.00  0.00    -0.001 A 
ATOM     31  C   UNL     1      -1.813  -5.075  -9.384  0.00  0.00    +0.010 A 
ATOM     32  C   UNL     1      -1.462  -5.488 -10.623  0.00  0.00    +0.001 A 
ATOM     33  C   UNL     1      -2.214  -5.144 -11.755  0.00  0.00    +0.002 A 
ATOM     34  C   UNL     1      -3.329  -4.386 -11.688  0.00  0.00    +0.026 A 
ATOM     35  C   UNL     1      -3.790  -3.898 -10.434  0.00  0.00    +0.043 A 
ATOM     36  N   UNL     1      -4.824  -3.157 -10.113  0.00  0.00    -0.380 N 
ATOM     37  C   UNL     1      -4.822  -2.957  -8.660  0.00  0.00    +0.144 C 
ATOM     38  H   UNL     1      -5.481  -2.804 -10.733  0.00  0.00    +0.160 HD
ENDBRANCH  28  29
ENDBRANCH  27  28
ENDBRANCH  25  27
ENDBRANCH  22  23
ENDBRANCH  21  22
ENDBRANCH   3  21
TORSDOF 6
