REMARK  Name = ZINC29936295
REMARK  7 active torsions:
REMARK  status: ('A' for Active; 'I' for Inactive)
REMARK    1  A    between atoms: C_1  and  C_2
REMARK    2  A    between atoms: C_2  and  C_31
REMARK    3  A    between atoms: C_13  and  C_15
REMARK    4  A    between atoms: C_15  and  N_16
REMARK    5  A    between atoms: N_16  and  C_17
REMARK    6  A    between atoms: C_17  and  C_19
REMARK    7  A    between atoms: C_17  and  C_26
REMARK                            x       y       z     vdW  Elec       q    Type
REMARK                         _______ _______ _______ _____ _____    ______ ____
ROOT
ATOM      1  C   UNL     1      -2.617   0.078  -0.314  0.00  0.00    +0.017 C 
ENDROOT
BRANCH   1  14
ATOM      2  C   UNL     1       0.473   1.746  -1.190  0.00  0.00    +0.042 C 
ATOM      3  C   UNL     1      -0.064   1.285   0.167  0.00  0.00    +0.113 C 
ATOM      4  C   UNL     1       0.959   1.567   1.237  0.00  0.00    +0.241 C 
ATOM      5  O   UNL     1       1.799   0.732   1.498  0.00  0.00    -0.273 OA
ATOM      6  N   UNL     1       0.951   2.735   1.907  0.00  0.00    -0.282 N 
ATOM      7  C   UNL     1      -0.038   3.694   1.661  0.00  0.00    +0.055 A 
ATOM      8  C   UNL     1       0.104   4.993   2.121  0.00  0.00    +0.025 A 
ATOM      9  C   UNL     1      -0.890   5.923   1.876  0.00  0.00    +0.002 A 
ATOM     10  C   UNL     1      -2.025   5.563   1.173  0.00  0.00    +0.002 A 
ATOM     11  C   UNL     1      -2.175   4.269   0.707  0.00  0.00    +0.025 A 
ATOM     12  C   UNL     1      -1.183   3.334   0.948  0.00  0.00    +0.058 A 
ATOM     13  N   UNL     1      -1.301   2.016   0.481  0.00  0.00    -0.257 N 
ATOM     14  C   UNL     1      -2.509   1.439   0.325  0.00  0.00    +0.204 C 
ATOM     15  O   UNL     1      -3.509   2.014   0.700  0.00  0.00    -0.277 OA
ATOM     16  C   UNL     1      -0.356  -0.216   0.120  0.00  0.00    +0.042 C 
ATOM     17  H   UNL     1       1.727   2.943   2.658  0.00  0.00    +0.155 HD
ENDBRANCH   1  14
BRANCH   1  18
ATOM     18  N   UNL     1      -4.032  -0.247  -0.536  0.00  0.00    +0.392 N 
ATOM     19  H   UNL     1      -4.562  -0.252   0.428  0.00  0.00    -0.084 HD
ATOM     20  H   UNL     1      -4.482   0.506  -1.199  0.00  0.00    -0.084 HD
BRANCH  18  21
ATOM     21  C   UNL     1      -4.176  -1.570  -1.159  0.00  0.00    -0.003 C 
BRANCH  21  22
ATOM     22  C   UNL     1      -5.479  -1.629  -1.915  0.00  0.00    -0.056 A 
ATOM     23  C   UNL     1      -6.617  -1.058  -1.376  0.00  0.00    +0.005 A 
ATOM     24  C   UNL     1      -7.811  -1.108  -2.070  0.00  0.00    +0.038 A 
ATOM     25  C   UNL     1      -7.869  -1.740  -3.301  0.00  0.00    +0.123 A 
ATOM     26  C   UNL     1      -6.731  -2.316  -3.837  0.00  0.00    +0.038 A 
ATOM     27  C   UNL     1      -5.536  -2.260  -3.144  0.00  0.00    +0.005 A 
ATOM     28  F   UNL     1      -9.037  -1.793  -3.978  0.00  0.00    -0.205 F 
ENDBRANCH  21  22
BRANCH  21  29
ATOM     29  C   UNL     1      -4.166  -2.633  -0.091  0.00  0.00    -0.020 A 
ATOM     30  C   UNL     1      -3.578  -3.854  -0.108  0.00  0.00    +0.010 A 
ATOM     31  C   UNL     1      -3.698  -4.671   1.001  0.00  0.00    +0.008 A 
ATOM     32  C   UNL     1      -4.410  -4.231   2.067  0.00  0.00    +0.045 A 
ATOM     33  S   UNL     1      -4.932  -2.613   1.521  0.00  0.00    -0.103 S 
ENDBRANCH  21  29
ENDBRANCH  18  21
ENDBRANCH   1  18
TORSDOF 5
