REMARK  Name = ZINC20232939
REMARK  8 active torsions:
REMARK  status: ('A' for Active; 'I' for Inactive)
REMARK    1  A    between atoms: C_4  and  C_7
REMARK    2  A    between atoms: C_7  and  C_8
REMARK    3  A    between atoms: C_8  and  C_10
REMARK    4  A    between atoms: C_8  and  N_29
REMARK    5  A    between atoms: N_13  and  C_16
REMARK    6  A    between atoms: C_16  and  C_17
REMARK    7  A    between atoms: N_29  and  C_30
REMARK    8  A    between atoms: C_33  and  C_35
REMARK                            x       y       z     vdW  Elec       q    Type
REMARK                         _______ _______ _______ _____ _____    ______ ____
ROOT
ATOM      1  C   UNL     1       4.987  -0.963  -1.044  0.00  0.00    +0.006 C 
ATOM      2  C   UNL     1       5.292  -2.289  -0.342  0.00  0.00    -0.013 C 
ATOM      3  C   UNL     1       6.785  -2.354  -0.010  0.00  0.00    -0.078 C 
ATOM      4  N   UNL     1       7.144  -1.226   0.858  0.00  0.00    +0.383 N 
ATOM      5  C   UNL     1       6.904   0.059   0.187  0.00  0.00    -0.078 C 
ATOM      6  C   UNL     1       5.415   0.195  -0.138  0.00  0.00    -0.013 C 
ATOM      7  H   UNL     1       6.495  -1.266   1.746  0.00  0.00    -0.081 HD
ENDROOT
BRANCH   1   8
ATOM      8  C   UNL     1       3.486  -0.866  -1.324  0.00  0.00    +0.084 C 
BRANCH   8   9
ATOM      9  N   UNL     1       3.090  -1.940  -2.239  0.00  0.00    -0.288 N 
ATOM     10  C   UNL     1       3.059  -1.716  -3.567  0.00  0.00    +0.282 C 
ATOM     11  O   UNL     1       2.718  -2.604  -4.326  0.00  0.00    -0.267 OA
BRANCH  10  12
ATOM     12  C   UNL     1       3.435  -0.402  -4.098  0.00  0.00    +0.189 A 
ATOM     13  C   UNL     1       3.339  -0.005  -5.402  0.00  0.00    +0.054 A 
ATOM     14  C   UNL     1       3.806   1.317  -5.457  0.00  0.00    +0.042 A 
ATOM     15  C   UNL     1       4.162   1.666  -4.201  0.00  0.00    +0.196 A 
ATOM     16  O   UNL     1       3.932   0.629  -3.384  0.00  0.00    -0.458 OA
ENDBRANCH  10  12
BRANCH   9  17
ATOM     17  C   UNL     1       2.727  -3.256  -1.709  0.00  0.00    +0.077 C 
ATOM     18  C   UNL     1       3.124  -4.483  -2.532  0.00  0.00    +0.024 C 
ATOM     19  C   UNL     1       1.658  -4.051  -2.463  0.00  0.00    +0.024 C 
ENDBRANCH   9  17
ENDBRANCH   8   9
BRANCH   8  20
ATOM     20  C   UNL     1       2.713  -1.003  -0.011  0.00  0.00    +0.058 C 
BRANCH  20  24
ATOM     21  C   UNL     1      -1.441  -0.308  -0.727  0.00  0.00    +0.000 A 
ATOM     22  C   UNL     1      -0.613   0.745  -0.384  0.00  0.00    +0.000 A 
ATOM     23  C   UNL     1       0.731   0.520  -0.152  0.00  0.00    +0.004 A 
ATOM     24  C   UNL     1       1.248  -0.758  -0.263  0.00  0.00    -0.046 A 
ATOM     25  C   UNL     1       0.420  -1.810  -0.606  0.00  0.00    +0.004 A 
ATOM     26  C   UNL     1      -0.924  -1.586  -0.838  0.00  0.00    +0.000 A 
ENDBRANCH  20  24
ENDBRANCH   8  20
ENDBRANCH   1   8
BRANCH   4  27
ATOM     27  C   UNL     1       8.538  -1.331   1.310  0.00  0.00    -0.038 C 
BRANCH  27  28
ATOM     28  C   UNL     1       8.687  -2.538   2.200  0.00  0.00    +0.001 A 
ATOM     29  C   UNL     1       9.106  -3.716   1.676  0.00  0.00    +0.017 A 
ATOM     30  C   UNL     1       9.241  -4.870   2.568  0.00  0.00    -0.001 A 
ATOM     31  C   UNL     1       9.670  -6.111   2.086  0.00  0.00    +0.010 A 
ATOM     32  C   UNL     1       9.785  -7.167   2.944  0.00  0.00    +0.001 A 
ATOM     33  C   UNL     1       9.481  -7.020   4.291  0.00  0.00    +0.002 A 
ATOM     34  C   UNL     1       9.057  -5.807   4.788  0.00  0.00    +0.026 A 
ATOM     35  C   UNL     1       8.932  -4.716   3.933  0.00  0.00    +0.049 A 
ATOM     36  N   UNL     1       8.511  -3.491   4.403  0.00  0.00    -0.322 N 
ATOM     37  H   UNL     1       8.264  -3.365   5.468  0.00  0.00    +0.169 HD
ATOM     38  C   UNL     1       8.396  -2.436   3.577  0.00  0.00    +0.251 A 
ATOM     39  O   UNL     1       8.025  -1.366   4.029  0.00  0.00    -0.268 OA
ENDBRANCH  27  28
ENDBRANCH   4  27
TORSDOF 8
