REMARK  Name = ZINC39792011
REMARK  3 active torsions:
REMARK  status: ('A' for Active; 'I' for Inactive)
REMARK    1  A    between atoms: N_7  and  S_20
REMARK    2  A    between atoms: C_9  and  C_12
REMARK    3  A    between atoms: S_20  and  C_23
REMARK                            x       y       z     vdW  Elec       q    Type
REMARK                         _______ _______ _______ _____ _____    ______ ____
ROOT
ATOM      1  C   UNL     1      -0.098   1.299   0.548  0.00  0.00    +0.002 A 
ATOM      2  C   UNL     1       1.066   2.046   0.537  0.00  0.00    +0.004 A 
ATOM      3  C   UNL     1       2.288   1.429   0.343  0.00  0.00    +0.047 A 
ATOM      4  C   UNL     1       2.352   0.057   0.158  0.00  0.00    +0.144 A 
ATOM      5  C   UNL     1       1.178  -0.693   0.167  0.00  0.00    +0.093 A 
ATOM      6  C   UNL     1      -0.044  -0.070   0.363  0.00  0.00    +0.028 A 
ATOM      7  N   UNL     1       1.237  -2.082  -0.028  0.00  0.00    -0.195 N 
ATOM      8  C   UNL     1       2.554  -2.732   0.076  0.00  0.00    +0.186 C 
ATOM      9  C   UNL     1       3.573  -1.834  -0.639  0.00  0.00    +0.278 C 
ATOM     10  O   UNL     1       3.558  -0.542  -0.028  0.00  0.00    -0.476 OA
ENDROOT
BRANCH   9  11
ATOM     11  C   UNL     1       4.949  -2.436  -0.520  0.00  0.00    +0.258 C 
ATOM     12  O   UNL     1       5.813  -1.856   0.104  0.00  0.00    -0.271 OA
ATOM     13  N   UNL     1       5.221  -3.619  -1.107  0.00  0.00    -0.298 N 
ATOM     14  C   UNL     1       4.187  -4.330  -1.871  0.00  0.00    +0.108 C 
ATOM     15  C   UNL     1       4.734  -4.642  -3.268  0.00  0.00    +0.019 C 
ATOM     16  C   UNL     1       6.054  -5.404  -3.136  0.00  0.00    +0.003 C 
ATOM     17  C   UNL     1       7.076  -4.535  -2.400  0.00  0.00    +0.019 C 
ATOM     18  C   UNL     1       6.558  -4.218  -0.999  0.00  0.00    +0.108 C 
ENDBRANCH   9  11
BRANCH   7  19
ATOM     19  S   UNL     1      -0.127  -2.958  -0.363  0.00  0.00    +0.075 S 
ATOM     20  O   UNL     1      -1.028  -2.074  -1.015  0.00  0.00    -0.150 OA
ATOM     21  O   UNL     1       0.307  -4.176  -0.953  0.00  0.00    -0.150 OA
BRANCH  19  22
ATOM     22  C   UNL     1      -0.866  -3.382   1.180  0.00  0.00    +0.111 A 
ATOM     23  C   UNL     1      -0.474  -4.625   1.833  0.00  0.00    +0.031 A 
ATOM     24  C   UNL     1      -1.001  -5.009   3.016  0.00  0.00    +0.027 A 
ATOM     25  C   UNL     1      -1.994  -4.162   3.672  0.00  0.00    +0.056 A 
ATOM     26  N   UNL     1      -2.681  -4.234   4.784  0.00  0.00    -0.268 N 
ATOM     27  C   UNL     1      -3.480  -3.119   4.875  0.00  0.00    +0.308 C 
ATOM     28  O   UNL     1      -4.241  -2.880   5.788  0.00  0.00    -0.252 OA
ATOM     29  N   UNL     1      -3.286  -2.316   3.776  0.00  0.00    -0.267 N 
ATOM     30  C   UNL     1      -2.397  -2.885   3.001  0.00  0.00    +0.058 A 
ATOM     31  C   UNL     1      -1.774  -2.543   1.724  0.00  0.00    +0.054 A 
ATOM     32  H   UNL     1      -3.731  -1.472   3.604  0.00  0.00    +0.156 HD
ATOM     33  H   UNL     1      -2.634  -4.954   5.434  0.00  0.00    +0.156 HD
ENDBRANCH  19  22
ENDBRANCH   7  19
TORSDOF 3
