REMARK  Name = ZINC24108347
REMARK  11 active torsions:
REMARK  status: ('A' for Active; 'I' for Inactive)
REMARK    1  A    between atoms: C_1  and  C_2
REMARK    2  A    between atoms: C_5  and  C_8
REMARK    3  A    between atoms: C_8  and  C_10
REMARK    4  A    between atoms: C_8  and  N_15
REMARK    5  A    between atoms: C_16  and  C_18
REMARK    6  A    between atoms: C_18  and  N_19
REMARK    7  A    between atoms: C_22  and  C_26
REMARK    8  A    between atoms: C_22  and  C_27
REMARK    9  A    between atoms: C_30  and  C_33
REMARK   10  A    between atoms: C_33  and  C_34
REMARK   11  A    between atoms: C_33  and  C_35
REMARK                            x       y       z     vdW  Elec       q    Type
REMARK                         _______ _______ _______ _____ _____    ______ ____
ROOT
ATOM      1  C   UNL     1       1.280   1.980   0.001  0.00  0.00    +0.213 C 
ENDROOT
BRANCH   1   2
ATOM      2  N   UNL     1       2.407   1.043  -0.015  0.00  0.00    -0.215 N 
ATOM      3  C   UNL     1       2.978   0.565  -1.138  0.00  0.00    +0.251 C 
ATOM      4  O   UNL     1       2.668   0.818  -2.283  0.00  0.00    -0.272 OA
ATOM      5  C   UNL     1       4.088  -0.356  -0.673  0.00  0.00    +0.135 C 
ATOM      6  N   UNL     1       4.006  -0.283   0.796  0.00  0.00    -0.281 N 
ATOM      7  C   UNL     1       2.999   0.561   1.083  0.00  0.00    +0.310 C 
ATOM      8  O   UNL     1       2.662   0.851   2.215  0.00  0.00    -0.252 OA
ATOM      9  C   UNL     1       5.447   0.149  -1.162  0.00  0.00    +0.047 C 
ATOM     10  H   UNL     1       4.704  -0.866   1.415  0.00  0.00    +0.152 HD
BRANCH   5  11
ATOM     11  C   UNL     1       3.843  -1.765  -1.149  0.00  0.00    -0.015 A 
ATOM     12  C   UNL     1       3.157  -1.986  -2.328  0.00  0.00    +0.006 A 
ATOM     13  C   UNL     1       2.936  -3.279  -2.767  0.00  0.00    +0.004 A 
ATOM     14  C   UNL     1       3.392  -4.349  -2.021  0.00  0.00    -0.045 A 
ATOM     15  C   UNL     1       4.073  -4.128  -0.839  0.00  0.00    +0.004 A 
ATOM     16  C   UNL     1       4.299  -2.836  -0.403  0.00  0.00    +0.006 A 
BRANCH  14  17
ATOM     17  C   UNL     1       3.145  -5.758  -2.496  0.00  0.00    +0.013 C 
ATOM     18  C   UNL     1       1.639  -6.002  -2.610  0.00  0.00    +0.012 C 
ATOM     19  C   UNL     1       3.800  -5.957  -3.864  0.00  0.00    +0.012 C 
ENDBRANCH  14  17
ENDBRANCH   5  11
ENDBRANCH   1   2
BRANCH   1  21
ATOM     20  N   UNL     1      -1.191   1.867   0.018  0.00  0.00    -0.303 N 
ATOM     21  C   UNL     1      -0.014   1.209   0.009  0.00  0.00    +0.232 C 
ATOM     22  O   UNL     1       0.002  -0.004   0.002  0.00  0.00    -0.274 OA
ATOM     23  H   UNL     1      -1.206   2.966   0.024  0.00  0.00    +0.150 HD
BRANCH  20  24
ATOM     24  C   UNL     1      -2.449   1.117   0.020  0.00  0.00    +0.140 C 
BRANCH  24  29
ATOM     25  C   UNL     1      -6.641   4.386  -2.246  0.00  0.00    +0.044 C 
ATOM     26  C   UNL     1      -5.549   3.533  -1.654  0.00  0.00    -0.050 A 
ATOM     27  C   UNL     1      -5.484   2.186  -1.955  0.00  0.00    +0.004 A 
ATOM     28  C   UNL     1      -4.481   1.404  -1.413  0.00  0.00    +0.006 A 
ATOM     29  C   UNL     1      -3.543   1.969  -0.571  0.00  0.00    -0.022 A 
ATOM     30  C   UNL     1      -3.610   3.316  -0.266  0.00  0.00    +0.006 A 
ATOM     31  C   UNL     1      -4.610   4.099  -0.811  0.00  0.00    +0.004 A 
ENDBRANCH  24  29
BRANCH  24  32
ATOM     32  C   UNL     1      -2.811   0.746   1.435  0.00  0.00    +0.014 A 
ATOM     33  C   UNL     1      -3.337  -0.411   1.906  0.00  0.00    +0.013 A 
ATOM     34  C   UNL     1      -3.590  -0.530   3.260  0.00  0.00    +0.008 A 
ATOM     35  C   UNL     1      -3.303   0.513   4.076  0.00  0.00    +0.045 A 
ATOM     36  S   UNL     1      -2.649   1.713   2.927  0.00  0.00    -0.099 S 
ENDBRANCH  24  32
ENDBRANCH  20  24
ENDBRANCH   1  21
TORSDOF 7
