REMARK  Name = ZINC16488137
REMARK  8 active torsions:
REMARK  status: ('A' for Active; 'I' for Inactive)
REMARK    1  A    between atoms: C_4  and  N_7
REMARK    2  A    between atoms: N_7  and  N_8
REMARK    3  A    between atoms: C_10  and  C_24
REMARK    4  A    between atoms: N_16  and  N_17
REMARK    5  A    between atoms: N_17  and  C_18
REMARK    6  A    between atoms: C_24  and  C_26
REMARK    7  A    between atoms: C_24  and  O_28
REMARK    8  A    between atoms: C_26  and  O_27
REMARK                            x       y       z     vdW  Elec       q    Type
REMARK                         _______ _______ _______ _____ _____    ______ ____
ROOT
ATOM      1  N   UNL     1       3.626  -1.827   0.060  0.00  0.00    -0.181 NA
ATOM      2  C   UNL     1       4.712  -2.532  -0.053  0.00  0.00    +0.136 C 
ATOM      3  C   UNL     1       6.136  -2.026  -0.135  0.00  0.00    +0.260 C 
ATOM      4  O   UNL     1       6.981  -3.170  -0.250  0.00  0.00    -0.448 OA
ATOM      5  C   UNL     1       6.264  -4.302  -0.249  0.00  0.00    +0.362 C 
ATOM      6  O   UNL     1       6.733  -5.420  -0.335  0.00  0.00    -0.243 OA
ATOM      7  C   UNL     1       4.829  -4.003  -0.122  0.00  0.00    +0.192 C 
ATOM      8  N   UNL     1       3.845  -4.874  -0.082  0.00  0.00    -0.173 NA
ENDROOT
BRANCH   1   9
ATOM      9  N   UNL     1       3.706  -0.440   0.239  0.00  0.00    -0.237 N 
ATOM     10  H   UNL     1       4.570  -0.014   0.348  0.00  0.00    +0.174 HD
BRANCH   9  14
ATOM     11  C   UNL     1       0.234   1.854   0.301  0.00  0.00    +0.000 A 
ATOM     12  C   UNL     1       1.466   2.463   0.458  0.00  0.00    +0.002 A 
ATOM     13  C   UNL     1       2.620   1.705   0.438  0.00  0.00    +0.025 A 
ATOM     14  C   UNL     1       2.542   0.329   0.260  0.00  0.00    +0.048 A 
ATOM     15  C   UNL     1       1.302  -0.280   0.103  0.00  0.00    +0.025 A 
ATOM     16  C   UNL     1       0.152   0.485   0.124  0.00  0.00    +0.002 A 
ENDBRANCH   9  14
ENDBRANCH   1   9
BRANCH   8  17
ATOM     17  N   UNL     1       4.119  -6.246  -0.159  0.00  0.00    -0.237 N 
ATOM     18  H   UNL     1       5.035  -6.553  -0.243  0.00  0.00    +0.174 HD
BRANCH  17  19
ATOM     19  C   UNL     1       3.074  -7.169  -0.117  0.00  0.00    +0.048 A 
ATOM     20  C   UNL     1       1.760  -6.730  -0.003  0.00  0.00    +0.025 A 
ATOM     21  C   UNL     1       0.729  -7.647   0.039  0.00  0.00    +0.002 A 
ATOM     22  C   UNL     1       1.002  -9.001  -0.032  0.00  0.00    +0.000 A 
ATOM     23  C   UNL     1       2.308  -9.442  -0.145  0.00  0.00    +0.002 A 
ATOM     24  C   UNL     1       3.344  -8.531  -0.193  0.00  0.00    +0.025 A 
ENDBRANCH  17  19
ENDBRANCH   8  17
BRANCH   3  25
ATOM     25  C   UNL     1       6.299  -1.127  -1.362  0.00  0.00    +0.187 C 
BRANCH  25  26
ATOM     26  O   UNL     1       7.616  -0.573  -1.374  0.00  0.00    -0.385 OA
ATOM     27  H   UNL     1       8.321  -1.234  -1.381  0.00  0.00    +0.210 HD
ENDBRANCH  25  26
BRANCH  25  28
ATOM     28  C   UNL     1       6.082  -1.953  -2.632  0.00  0.00    +0.191 C 
BRANCH  28  29
ATOM     29  O   UNL     1       6.119  -1.092  -3.772  0.00  0.00    -0.392 OA
ATOM     30  H   UNL     1       5.988  -1.549  -4.614  0.00  0.00    +0.210 HD
ENDBRANCH  28  29
ENDBRANCH  25  28
ENDBRANCH   3  25
TORSDOF 8
