REMARK  Name = ZINC12117875
REMARK  3 active torsions:
REMARK  status: ('A' for Active; 'I' for Inactive)
REMARK    1  A    between atoms: C_1  and  C_2
REMARK    2  A    between atoms: C_20  and  C_21
REMARK    3  A    between atoms: C_20  and  N_56
REMARK                            x       y       z     vdW  Elec       q    Type
REMARK                         _______ _______ _______ _____ _____    ______ ____
ROOT
ATOM      1  C   UNL     1      -6.063   4.374  -5.176  0.00  0.00    +0.009 C 
ATOM      2  C   UNL     1      -4.698   3.778  -5.528  0.00  0.00    +0.003 C 
ATOM      3  C   UNL     1      -3.887   4.798  -6.332  0.00  0.00    +0.006 C 
ATOM      4  C   UNL     1      -2.502   4.217  -6.629  0.00  0.00    +0.019 C 
ATOM      5  C   UNL     1      -1.811   3.860  -5.311  0.00  0.00    +0.108 C 
ATOM      6  N   UNL     1      -2.626   2.881  -4.580  0.00  0.00    -0.301 N 
ATOM      7  C   UNL     1      -3.944   3.433  -4.242  0.00  0.00    +0.111 C 
ATOM      8  C   UNL     1      -1.976   2.442  -3.458  0.00  0.00    +0.198 A 
ATOM      9  N   UNL     1      -0.696   1.991  -3.559  0.00  0.00    -0.295 N 
ATOM     10  H   UNL     1      -0.248   1.983  -4.419  0.00  0.00    +0.172 HD
ATOM     11  C   UNL     1      -0.054   1.556  -2.455  0.00  0.00    +0.254 A 
ATOM     12  O   UNL     1       1.094   1.149  -2.526  0.00  0.00    -0.268 OA
ATOM     13  C   UNL     1      -0.730   1.579  -1.218  0.00  0.00    +0.022 A 
ATOM     14  C   UNL     1      -2.007   2.045  -1.176  0.00  0.00    +0.050 A 
ATOM     15  N   UNL     1      -2.598   2.464  -2.299  0.00  0.00    -0.221 NA
ATOM     16  C   UNL     1      -2.785   2.107   0.113  0.00  0.00    +0.037 C 
ATOM     17  C   UNL     1      -2.121   1.220   1.167  0.00  0.00    -0.072 C 
ATOM     18  C   UNL     1      -0.013   1.086   0.008  0.00  0.00    -0.035 C 
ATOM     19  N   UNL     1      -0.691   1.578   1.221  0.00  0.00    +0.385 N 
ATOM     20  H   UNL     1      -0.602   2.600   1.264  0.00  0.00    -0.081 HD
ENDROOT
BRANCH  19  21
ATOM     21  C   UNL     1      -0.064   0.988   2.425  0.00  0.00    -0.043 C 
BRANCH  21  22
ATOM     22  C   UNL     1       1.336   1.528   2.564  0.00  0.00    -0.063 A 
ATOM     23  C   UNL     1       1.552   2.702   3.284  0.00  0.00    +0.004 A 
ATOM     24  C   UNL     1       2.804   3.216   3.429  0.00  0.00    +0.028 A 
ATOM     25  C   UNL     1       3.901   2.558   2.846  0.00  0.00    +0.071 A 
ATOM     26  C   UNL     1       3.679   1.364   2.115  0.00  0.00    +0.001 A 
ATOM     27  C   UNL     1       2.374   0.860   1.990  0.00  0.00    +0.011 A 
ATOM     28  C   UNL     1       4.778   0.706   1.532  0.00  0.00    +0.011 A 
ATOM     29  C   UNL     1       6.019   1.253   1.700  0.00  0.00    +0.020 A 
ATOM     30  C   UNL     1       6.167   2.429   2.430  0.00  0.00    +0.111 A 
ATOM     31  N   UNL     1       5.141   3.039   2.972  0.00  0.00    -0.255 NA
ENDBRANCH  21  22
ENDBRANCH  19  21
TORSDOF 2
