REMARK  Name = ZINC04172310
REMARK  5 active torsions:
REMARK  status: ('A' for Active; 'I' for Inactive)
REMARK    1  A    between atoms: C_7  and  C_11
REMARK    2  A    between atoms: C_11  and  C_12
REMARK    3  A    between atoms: C_11  and  C_20
REMARK    4  A    between atoms: C_15  and  O_19
REMARK    5  A    between atoms: C_16  and  O_18
REMARK                            x       y       z     vdW  Elec       q    Type
REMARK                         _______ _______ _______ _____ _____    ______ ____
ROOT
ATOM      1  C   UNL     1       1.961  -1.794  -0.026  0.00  0.00    +0.083 C 
ENDROOT
BRANCH   1   8
ATOM      2  C   UNL     1      -2.387  -0.043   0.025  0.00  0.00    +0.001 A 
ATOM      3  C   UNL     1      -2.411   1.344   0.033  0.00  0.00    +0.002 A 
ATOM      4  C   UNL     1      -1.239   2.068   0.030  0.00  0.00    +0.026 A 
ATOM      5  C   UNL     1      -0.017   1.403   0.010  0.00  0.00    +0.047 A 
ATOM      6  C   UNL     1       0.002  -0.004   0.002  0.00  0.00    +0.004 A 
ATOM      7  C   UNL     1      -1.198  -0.717   0.010  0.00  0.00    +0.010 A 
ATOM      8  C   UNL     1       1.415  -0.390  -0.013  0.00  0.00    -0.011 A 
ATOM      9  C   UNL     1       2.132   0.746  -0.014  0.00  0.00    +0.088 A 
ATOM     10  N   UNL     1       1.293   1.827  -0.001  0.00  0.00    -0.360 N 
ATOM     11  H   UNL     1       1.579   2.754   0.002  0.00  0.00    +0.165 HD
ENDBRANCH   1   8
BRANCH   1  12
ATOM     12  C   UNL     1       2.794  -1.998  -1.266  0.00  0.00    -0.011 A 
ATOM     13  C   UNL     1       3.888  -1.304  -1.616  0.00  0.00    +0.088 A 
ATOM     14  N   UNL     1       4.378  -1.774  -2.804  0.00  0.00    -0.360 N 
ATOM     15  H   UNL     1       5.165  -1.432  -3.257  0.00  0.00    +0.165 HD
ATOM     16  C   UNL     1       3.586  -2.802  -3.264  0.00  0.00    +0.047 A 
ATOM     17  C   UNL     1       2.558  -2.987  -2.320  0.00  0.00    +0.004 A 
ATOM     18  C   UNL     1       1.593  -3.975  -2.526  0.00  0.00    +0.010 A 
ATOM     19  C   UNL     1       1.652  -4.758  -3.645  0.00  0.00    +0.001 A 
ATOM     20  C   UNL     1       2.664  -4.580  -4.578  0.00  0.00    +0.002 A 
ATOM     21  C   UNL     1       3.626  -3.611  -4.395  0.00  0.00    +0.026 A 
ENDBRANCH   1  12
BRANCH   1  22
ATOM     22  C   UNL     1       2.817  -2.011   1.195  0.00  0.00    -0.032 A 
ATOM     23  C   UNL     1       3.931  -1.221   1.406  0.00  0.00    +0.008 A 
ATOM     24  C   UNL     1       4.720  -1.416   2.525  0.00  0.00    +0.049 A 
ATOM     25  C   UNL     1       4.393  -2.406   3.438  0.00  0.00    +0.158 A 
ATOM     26  C   UNL     1       3.272  -3.201   3.226  0.00  0.00    +0.159 A 
ATOM     27  C   UNL     1       2.483  -2.997   2.105  0.00  0.00    +0.053 A 
BRANCH  26  28
ATOM     28  O   UNL     1       2.947  -4.174   4.119  0.00  0.00    -0.503 OA
ATOM     29  H   UNL     1       2.359  -3.878   4.827  0.00  0.00    +0.292 HD
ENDBRANCH  26  28
BRANCH  25  30
ATOM     30  O   UNL     1       5.168  -2.599   4.539  0.00  0.00    -0.503 OA
ATOM     31  H   UNL     1       4.897  -2.078   5.307  0.00  0.00    +0.292 HD
ENDBRANCH  25  30
ENDBRANCH   1  22
TORSDOF 5
