REMARK  Name = ZINC53112624
REMARK  6 active torsions:
REMARK  status: ('A' for Active; 'I' for Inactive)
REMARK    1  A    between atoms: C_1  and  C_2
REMARK    2  A    between atoms: C_7  and  C_9
REMARK    3  A    between atoms: C_7  and  N_11
REMARK    4  A    between atoms: C_9  and  O_10
REMARK    5  A    between atoms: C_12  and  C_14
REMARK    6  A    between atoms: C_16  and  N_21
REMARK                            x       y       z     vdW  Elec       q    Type
REMARK                         _______ _______ _______ _____ _____    ______ ____
ROOT
ATOM      1  N   UNL     1      -0.612  -2.545   1.218  0.00  0.00    -0.304 N 
ATOM      2  C   UNL     1      -1.480  -2.162   2.175  0.00  0.00    +0.246 C 
ATOM      3  O   UNL     1      -1.150  -1.329   2.997  0.00  0.00    -0.270 OA
ATOM      4  H   UNL     1      -0.898  -3.153   0.519  0.00  0.00    +0.150 HD
ENDROOT
BRANCH   1  10
ATOM      5  C   UNL     1       0.083   1.367  -0.420  0.00  0.00    +0.007 C 
ATOM      6  C   UNL     1       0.093  -0.155  -0.258  0.00  0.00    -0.012 C 
ATOM      7  C   UNL     1       0.879  -0.785  -1.410  0.00  0.00    +0.003 C 
ATOM      8  C   UNL     1       0.889  -2.307  -1.247  0.00  0.00    +0.002 C 
ATOM      9  C   UNL     1       1.550  -2.673   0.083  0.00  0.00    +0.028 C 
ATOM     10  C   UNL     1       0.764  -2.043   1.234  0.00  0.00    +0.058 C 
ATOM     11  C   UNL     1       0.754  -0.522   1.072  0.00  0.00    +0.031 C 
BRANCH  10  12
ATOM     12  C   UNL     1       1.426  -2.410   2.564  0.00  0.00    +0.181 C 
BRANCH  12  13
ATOM     13  O   UNL     1       1.323  -3.819   2.775  0.00  0.00    -0.393 OA
ATOM     14  H   UNL     1       1.722  -4.124   3.601  0.00  0.00    +0.209 HD
ENDBRANCH  12  13
ENDBRANCH  10  12
ENDBRANCH   1  10
BRANCH   2  15
ATOM     15  C   UNL     1      -2.833  -2.754   2.226  0.00  0.00    +0.052 A 
ATOM     16  C   UNL     1      -3.213  -3.714   1.287  0.00  0.00    +0.037 A 
ATOM     17  C   UNL     1      -4.483  -4.266   1.341  0.00  0.00    +0.025 A 
ATOM     18  C   UNL     1      -5.375  -3.861   2.328  0.00  0.00    +0.024 A 
ATOM     19  C   UNL     1      -5.001  -2.910   3.258  0.00  0.00    +0.018 A 
ATOM     20  C   UNL     1      -3.735  -2.359   3.217  0.00  0.00    +0.030 A 
ATOM     21 BR   UNL     1      -3.225  -1.063   4.497  0.00  0.00    -0.050 Br
BRANCH  17  22
ATOM     22  N   UNL     1      -4.868  -5.228   0.404  0.00  0.00    -0.358 N 
ATOM     23  H   UNL     1      -4.245  -5.510  -0.285  0.00  0.00    +0.142 HD
ATOM     24  H   UNL     1      -5.757  -5.614   0.441  0.00  0.00    +0.142 HD
ENDBRANCH  17  22
ENDBRANCH   2  15
TORSDOF 5
