REMARK  Name = ZINC49527678
REMARK  5 active torsions:
REMARK  status: ('A' for Active; 'I' for Inactive)
REMARK    1  A    between atoms: C_1  and  C_2
REMARK    2  A    between atoms: C_2  and  C_4
REMARK    3  A    between atoms: C_2  and  N_11
REMARK    4  A    between atoms: C_15  and  C_17
REMARK    5  A    between atoms: C_17  and  C_19
REMARK                            x       y       z     vdW  Elec       q    Type
REMARK                         _______ _______ _______ _____ _____    ______ ____
ROOT
ATOM      1  N   UNL     1       0.688  -0.476  -1.203  0.00  0.00    -0.293 N 
ATOM      2  C   UNL     1       2.031  -0.587  -1.215  0.00  0.00    +0.306 C 
ATOM      3  O   UNL     1       2.673  -0.295  -0.226  0.00  0.00    -0.252 OA
ATOM      4  N   UNL     1       2.662  -1.022  -2.324  0.00  0.00    -0.239 N 
ATOM      5  C   UNL     1       4.005  -1.132  -2.335  0.00  0.00    +0.238 C 
ATOM      6  O   UNL     1       4.646  -0.841  -1.348  0.00  0.00    -0.274 OA
ATOM      7  H   UNL     1       0.175  -0.710  -1.993  0.00  0.00    +0.151 HD
ATOM      8  H   UNL     1       2.149  -1.255  -3.114  0.00  0.00    +0.159 HD
ENDROOT
BRANCH   5   9
ATOM      9  C   UNL     1       4.710  -1.618  -3.575  0.00  0.00    +0.163 C 
ATOM     10  C   UNL     1       5.771  -2.650  -3.187  0.00  0.00    +0.034 C 
ATOM     11 CL   UNL     1       5.502  -0.225  -4.402  0.00  0.00    -0.112 Cl
ENDBRANCH   5   9
BRANCH   1  13
ATOM     12  C   UNL     1      -0.019   1.526   0.010  0.00  0.00    +0.033 C 
ATOM     13  C   UNL     1       0.002  -0.004   0.002  0.00  0.00    +0.102 C 
BRANCH  13  14
ATOM     14  C   UNL     1      -1.412  -0.526   0.013  0.00  0.00    -0.027 A 
ATOM     15  C   UNL     1      -2.141  -0.569  -1.161  0.00  0.00    +0.006 A 
ATOM     16  C   UNL     1      -3.438  -1.048  -1.151  0.00  0.00    +0.015 A 
ATOM     17  C   UNL     1      -4.005  -1.484   0.032  0.00  0.00    +0.018 A 
ATOM     18  C   UNL     1      -3.275  -1.440   1.206  0.00  0.00    +0.015 A 
ATOM     19  C   UNL     1      -1.977  -0.966   1.195  0.00  0.00    +0.006 A 
ATOM     20 BR   UNL     1      -5.779  -2.138   0.046  0.00  0.00    -0.050 Br
ENDBRANCH  13  14
ENDBRANCH   1  13
TORSDOF 3
