REMARK  Name = ZINC22320805
REMARK  10 active torsions:
REMARK  status: ('A' for Active; 'I' for Inactive)
REMARK    1  A    between atoms: C_1  and  C_2
REMARK    2  A    between atoms: C_5  and  S_8
REMARK    3  A    between atoms: S_8  and  N_11
REMARK    4  A    between atoms: N_11  and  C_12
REMARK    5  A    between atoms: N_11  and  C_31
REMARK    6  A    between atoms: C_12  and  C_13
REMARK    7  A    between atoms: N_15  and  C_16
REMARK    8  A    between atoms: C_16  and  C_18
REMARK    9  A    between atoms: C_16  and  C_19
REMARK   10  A    between atoms: C_22  and  N_25
REMARK                            x       y       z     vdW  Elec       q    Type
REMARK                         _______ _______ _______ _____ _____    ______ ____
ROOT
ATOM      1  C   UNL     1       0.048  -2.827  -0.435  0.00  0.00    +0.227 C 
ENDROOT
BRANCH   1   2
ATOM      2  C   UNL     1       0.045  -2.975  -1.935  0.00  0.00    +0.233 C 
ATOM      3  O   UNL     1       0.948  -2.501  -2.593  0.00  0.00    -0.274 OA
ATOM      4  N   UNL     1      -0.960  -3.634  -2.545  0.00  0.00    -0.307 N 
ATOM      5  H   UNL     1      -1.778  -4.063  -1.949  0.00  0.00    +0.149 HD
BRANCH   4   6
ATOM      6  C   UNL     1      -0.962  -3.778  -4.003  0.00  0.00    +0.100 C 
ATOM      7  C   UNL     1      -1.588  -2.534  -4.637  0.00  0.00    +0.033 C 
BRANCH   6   8
ATOM      8  C   UNL     1      -1.764  -4.995  -4.386  0.00  0.00    -0.027 A 
ATOM      9  C   UNL     1      -2.936  -5.289  -3.713  0.00  0.00    +0.007 A 
ATOM     10  C   UNL     1      -3.676  -6.400  -4.065  0.00  0.00    +0.023 A 
ATOM     11  C   UNL     1      -3.237  -7.229  -5.090  0.00  0.00    +0.030 A 
ATOM     12  C   UNL     1      -2.057  -6.934  -5.761  0.00  0.00    +0.023 A 
ATOM     13  C   UNL     1      -1.324  -5.817  -5.407  0.00  0.00    +0.007 A 
BRANCH  11  14
ATOM     14  N   UNL     1      -3.980  -8.357  -5.446  0.00  0.00    -0.330 N 
ATOM     15  C   UNL     1      -4.323  -8.332  -6.873  0.00  0.00    +0.105 C 
ATOM     16  C   UNL     1      -5.008  -9.646  -7.257  0.00  0.00    +0.019 C 
ATOM     17  C   UNL     1      -6.273  -9.822  -6.413  0.00  0.00    +0.003 C 
ATOM     18  C   UNL     1      -5.894  -9.796  -4.929  0.00  0.00    +0.019 C 
ATOM     19  C   UNL     1      -5.184  -8.478  -4.613  0.00  0.00    +0.105 C 
ENDBRANCH  11  14
ENDBRANCH   6   8
ENDBRANCH   4   6
ENDBRANCH   1   2
BRANCH   1  20
ATOM     20  N   UNL     1       1.237  -2.078  -0.021  0.00  0.00    -0.194 N 
BRANCH  20  21
ATOM     21  C   UNL     1       1.219  -0.681  -0.024  0.00  0.00    +0.052 A 
ATOM     22  C   UNL     1       0.298   0.005   0.757  0.00  0.00    +0.026 A 
ATOM     23  C   UNL     1       0.282   1.386   0.752  0.00  0.00    +0.022 A 
ATOM     24  C   UNL     1       1.183   2.087  -0.031  0.00  0.00    +0.041 A 
ATOM     25  C   UNL     1       2.102   1.406  -0.810  0.00  0.00    +0.022 A 
ATOM     26  C   UNL     1       2.122   0.025  -0.809  0.00  0.00    +0.026 A 
ATOM     27 CL   UNL     1       1.161   3.822  -0.035  0.00  0.00    -0.084 Cl
ENDBRANCH  20  21
BRANCH  20  28
ATOM     28  S   UNL     1       2.602  -2.887   0.453  0.00  0.00    +0.075 S 
ATOM     29  O   UNL     1       2.610  -4.119  -0.255  0.00  0.00    -0.150 OA
ATOM     30  O   UNL     1       3.673  -1.957   0.374  0.00  0.00    -0.150 OA
BRANCH  28  35
ATOM     31  C   UNL     1       1.933  -4.255   6.291  0.00  0.00    +0.044 C 
ATOM     32  C   UNL     1       2.100  -3.914   4.833  0.00  0.00    -0.050 A 
ATOM     33  C   UNL     1       1.665  -4.796   3.862  0.00  0.00    +0.005 A 
ATOM     34  C   UNL     1       1.818  -4.483   2.524  0.00  0.00    +0.029 A 
ATOM     35  C   UNL     1       2.406  -3.287   2.158  0.00  0.00    +0.109 A 
ATOM     36  C   UNL     1       2.846  -2.406   3.129  0.00  0.00    +0.029 A 
ATOM     37  C   UNL     1       2.689  -2.718   4.466  0.00  0.00    +0.005 A 
ENDBRANCH  28  35
ENDBRANCH  20  28
ENDBRANCH   1  20
TORSDOF 8
