REMARK  Name = ZINC01453329
REMARK  5 active torsions:
REMARK  status: ('A' for Active; 'I' for Inactive)
REMARK    1  A    between atoms: C_5  and  N_7
REMARK    2  A    between atoms: C_8  and  C_10
REMARK    3  A    between atoms: C_10  and  C_24
REMARK    4  A    between atoms: C_11  and  C_12
REMARK    5  A    between atoms: C_15  and  C_17
REMARK                            x       y       z     vdW  Elec       q    Type
REMARK                         _______ _______ _______ _____ _____    ______ ____
ROOT
ATOM      1  C   UNL     1       1.246   1.963   0.017  0.00  0.00    +0.117 C 
ATOM      2  C   UNL     1       2.458   1.285   0.008  0.00  0.00    +0.070 C 
ENDROOT
BRANCH   2   3
ATOM      3  C   UNL     1       3.664   2.002   0.011  0.00  0.00    +0.130 A 
ATOM      4  C   UNL     1       4.939   1.453   0.008  0.00  0.00    +0.050 A 
ATOM      5  C   UNL     1       5.837   2.519   0.010  0.00  0.00    +0.050 A 
ATOM      6  C   UNL     1       5.088   3.678   0.022  0.00  0.00    +0.136 A 
ATOM      7  O   UNL     1       3.786   3.348   0.023  0.00  0.00    -0.455 OA
BRANCH   6   8
ATOM      8  C   UNL     1       5.628   5.050   0.034  0.00  0.00    +0.017 A 
ATOM      9  C   UNL     1       7.010   5.261   0.038  0.00  0.00    +0.014 A 
ATOM     10  C   UNL     1       7.509   6.546   0.043  0.00  0.00    +0.039 A 
ATOM     11  C   UNL     1       6.642   7.628   0.054  0.00  0.00    +0.123 A 
ATOM     12  C   UNL     1       5.271   7.426   0.055  0.00  0.00    +0.039 A 
ATOM     13  C   UNL     1       4.760   6.146   0.045  0.00  0.00    +0.014 A 
ATOM     14  F   UNL     1       7.137   8.886   0.065  0.00  0.00    -0.205 F 
ENDBRANCH   6   8
ENDBRANCH   2   3
BRANCH   1  16
ATOM     15  N   UNL     1      -1.191   1.871   0.018  0.00  0.00    -0.280 N 
ATOM     16  C   UNL     1      -0.015   1.212   0.014  0.00  0.00    +0.259 C 
ATOM     17  O   UNL     1       0.001  -0.004   0.004  0.00  0.00    -0.269 OA
ATOM     18  H   UNL     1      -1.205   2.838   0.092  0.00  0.00    +0.155 HD
BRANCH  15  23
ATOM     19  C   UNL     1      -3.697  -0.792   0.398  0.00  0.00    +0.002 A 
ATOM     20  C   UNL     1      -4.764  -0.248  -0.292  0.00  0.00    +0.001 A 
ATOM     21  C   UNL     1      -4.649   0.998  -0.880  0.00  0.00    +0.017 A 
ATOM     22  C   UNL     1      -3.465   1.704  -0.779  0.00  0.00    +0.039 A 
ATOM     23  C   UNL     1      -2.391   1.160  -0.086  0.00  0.00    +0.048 A 
ATOM     24  C   UNL     1      -2.509  -0.094   0.499  0.00  0.00    +0.024 A 
ATOM     25 BR   UNL     1      -3.307   3.407  -1.585  0.00  0.00    -0.048 Br
ENDBRANCH  15  23
ENDBRANCH   1  16
BRANCH   1  26
ATOM     26  C   UNL     1       1.227   3.395   0.030  0.00  0.00    +0.104 C 
ATOM     27  N   UNL     1       1.212   4.530   0.040  0.00  0.00    -0.191 NA
ENDBRANCH   1  26
TORSDOF 5
