REMARK  Name = ZINC10187197
REMARK  6 active torsions:
REMARK  status: ('A' for Active; 'I' for Inactive)
REMARK    1  A    between atoms: C_1  and  C_2
REMARK    2  A    between atoms: C_9  and  N_14
REMARK    3  A    between atoms: C_10  and  C_11
REMARK    4  A    between atoms: C_15  and  C_17
REMARK    5  A    between atoms: N_22  and  S_23
REMARK    6  A    between atoms: S_23  and  C_26
REMARK                            x       y       z     vdW  Elec       q    Type
REMARK                         _______ _______ _______ _____ _____    ______ ____
ROOT
ATOM      1  N   UNL     1      -3.435  -0.521  -1.790  0.00  0.00    -0.278 N 
ATOM      2  C   UNL     1      -2.557   0.332  -1.227  0.00  0.00    +0.236 C 
ATOM      3  O   UNL     1      -2.443   0.377  -0.020  0.00  0.00    -0.274 OA
ATOM      4  H   UNL     1      -3.526  -0.557  -2.755  0.00  0.00    +0.155 HD
ENDROOT
BRANCH   1  12
ATOM      5  C   UNL     1      -7.536  -5.080   3.068  0.00  0.00    +0.008 C 
ATOM      6  C   UNL     1      -6.740  -4.607   1.849  0.00  0.00    -0.009 C 
ATOM      7  C   UNL     1      -7.696  -4.315   0.690  0.00  0.00    +0.008 C 
ATOM      8  C   UNL     1      -6.900  -4.085  -0.596  0.00  0.00    +0.037 C 
ATOM      9  C   UNL     1      -5.836  -3.027  -0.331  0.00  0.00    -0.023 A 
ATOM     10  C   UNL     1      -5.459  -2.720   0.929  0.00  0.00    -0.004 A 
ATOM     11  S   UNL     1      -4.220  -1.470   0.739  0.00  0.00    -0.077 S 
ATOM     12  C   UNL     1      -4.209  -1.348  -0.989  0.00  0.00    +0.084 A 
ATOM     13  C   UNL     1      -5.158  -2.283  -1.378  0.00  0.00    +0.068 A 
ATOM     14  C   UNL     1      -5.978  -3.321   2.199  0.00  0.00    +0.046 C 
BRANCH  13  15
ATOM     15  C   UNL     1      -5.464  -2.511  -2.794  0.00  0.00    +0.244 C 
ATOM     16  O   UNL     1      -4.843  -3.347  -3.424  0.00  0.00    -0.270 OA
ATOM     17  N   UNL     1      -6.434  -1.795  -3.397  0.00  0.00    -0.325 N 
ATOM     18  H   UNL     1      -6.929  -1.129  -2.895  0.00  0.00    +0.145 HD
ATOM     19  H   UNL     1      -6.637  -1.946  -4.334  0.00  0.00    +0.145 HD
ENDBRANCH  13  15
ENDBRANCH   1  12
BRANCH   2  20
ATOM     20  C   UNL     1      -1.716   1.231  -2.096  0.00  0.00    +0.166 C 
ATOM     21  C   UNL     1      -2.288   2.673  -2.095  0.00  0.00    +0.031 C 
ATOM     22  C   UNL     1      -1.032   3.505  -2.464  0.00  0.00    +0.019 C 
ATOM     23  C   UNL     1       0.108   2.742  -1.757  0.00  0.00    +0.110 C 
ATOM     24  N   UNL     1      -0.360   1.366  -1.535  0.00  0.00    -0.164 NA
BRANCH  24  25
ATOM     25  S   UNL     1       0.498   0.164  -0.785  0.00  0.00    +0.068 S 
ATOM     26  O   UNL     1       1.329   0.798   0.178  0.00  0.00    -0.152 OA
ATOM     27  O   UNL     1      -0.438  -0.847  -0.437  0.00  0.00    -0.152 OA
BRANCH  25  28
ATOM     28  C   UNL     1       1.573  -0.539  -1.992  0.00  0.00    +0.144 A 
ATOM     29  C   UNL     1       2.838  -0.181  -2.320  0.00  0.00    +0.038 A 
ATOM     30  C   UNL     1       3.501  -0.887  -3.307  0.00  0.00    +0.030 A 
ATOM     31  C   UNL     1       2.860  -1.910  -3.926  0.00  0.00    +0.080 A 
ATOM     32  S   UNL     1       1.275  -1.903  -3.104  0.00  0.00    -0.057 S 
ATOM     33 CL   UNL     1       3.432  -2.954  -5.189  0.00  0.00    -0.076 Cl
ENDBRANCH  25  28
ENDBRANCH  24  25
ENDBRANCH   2  20
TORSDOF 5
