REMARK  Name = ZINC15958196
REMARK  7 active torsions:
REMARK  status: ('A' for Active; 'I' for Inactive)
REMARK    1  A    between atoms: C_1  and  O_2
REMARK    2  A    between atoms: O_2  and  C_3
REMARK    3  A    between atoms: C_8  and  C_9
REMARK    4  A    between atoms: C_9  and  N_10
REMARK    5  A    between atoms: C_15  and  C_32
REMARK    6  A    between atoms: C_32  and  C_33
REMARK    7  A    between atoms: C_36  and  O_39
REMARK                            x       y       z     vdW  Elec       q    Type
REMARK                         _______ _______ _______ _____ _____    ______ ____
ROOT
ATOM      1  N   UNL     1       0.950  -2.876  -1.151  0.00  0.00    -0.237 N 
ATOM      2  C   UNL     1       0.909  -1.971  -2.136  0.00  0.00    +0.227 C 
ATOM      3  O   UNL     1       0.144  -1.032  -2.194  0.00  0.00    -0.275 OA
ATOM      4  C   UNL     1       1.965  -2.302  -3.166  0.00  0.00    +0.107 C 
ATOM      5  C   UNL     1       1.280  -2.732  -4.480  0.00  0.00    +0.072 C 
ATOM      6  N   UNL     1       1.042  -4.192  -4.326  0.00  0.00    -0.295 NA
ATOM      7  C   UNL     1       2.246  -4.684  -3.631  0.00  0.00    +0.136 C 
ATOM      8  C   UNL     1       2.626  -3.590  -2.601  0.00  0.00    +0.122 C 
ATOM      9  C   UNL     1       1.882  -3.823  -1.305  0.00  0.00    +0.229 C 
ATOM     10  O   UNL     1       2.094  -4.729  -0.529  0.00  0.00    -0.275 OA
ATOM     11  C   UNL     1       3.371  -4.943  -4.592  0.00  0.00    +0.003 A 
ATOM     12  C   UNL     1       4.054  -4.152  -5.488  0.00  0.00    +0.008 A 
ATOM     13  C   UNL     1       5.070  -4.692  -6.255  0.00  0.00    +0.000 A 
ATOM     14  C   UNL     1       5.398  -6.029  -6.119  0.00  0.00    +0.002 A 
ATOM     15  C   UNL     1       4.718  -6.826  -5.222  0.00  0.00    +0.023 A 
ATOM     16  C   UNL     1       3.692  -6.289  -4.447  0.00  0.00    +0.039 A 
ATOM     17  N   UNL     1       2.870  -6.881  -3.486  0.00  0.00    -0.283 N 
ATOM     18  C   UNL     1       1.992  -6.006  -2.960  0.00  0.00    +0.243 C 
ATOM     19  O   UNL     1       1.159  -6.238  -2.109  0.00  0.00    -0.273 OA
ATOM     20  H   UNL     1       0.212  -4.368  -3.780  0.00  0.00    +0.124 HD
ATOM     21  H   UNL     1       2.924  -7.815  -3.228  0.00  0.00    +0.155 HD
ENDROOT
BRANCH   1  22
ATOM     22  C   UNL     1       0.052  -2.828   0.005  0.00  0.00    +0.155 C 
BRANCH  22  28
ATOM     23  C   UNL     1       0.626  -0.618   1.042  0.00  0.00    +0.125 A 
ATOM     24  C   UNL     1       1.202   0.139   2.051  0.00  0.00    +0.046 A 
ATOM     25  C   UNL     1       1.835  -0.488   3.107  0.00  0.00    +0.004 A 
ATOM     26  C   UNL     1       1.895  -1.869   3.158  0.00  0.00    +0.001 A 
ATOM     27  C   UNL     1       1.321  -2.625   2.153  0.00  0.00    +0.009 A 
ATOM     28  C   UNL     1       0.682  -2.003   1.097  0.00  0.00    +0.012 A 
BRANCH  23  30
ATOM     29  C   UNL     1      -0.017   1.425   0.010  0.00  0.00    +0.277 C 
ATOM     30  O   UNL     1       0.002  -0.004   0.002  0.00  0.00    -0.495 OA
ENDBRANCH  23  30
ENDBRANCH  22  28
ENDBRANCH   1  22
BRANCH   5  31
ATOM     31  C   UNL     1      -0.046  -1.990  -4.657  0.00  0.00    +0.054 C 
BRANCH  31  32
ATOM     32  C   UNL     1      -0.637  -2.332  -6.000  0.00  0.00    -0.046 A 
ATOM     33  C   UNL     1      -0.321  -1.568  -7.108  0.00  0.00    +0.007 A 
ATOM     34  C   UNL     1      -0.862  -1.879  -8.341  0.00  0.00    +0.045 A 
ATOM     35  C   UNL     1      -1.723  -2.959  -8.466  0.00  0.00    +0.117 A 
ATOM     36  C   UNL     1      -2.039  -3.724  -7.353  0.00  0.00    +0.045 A 
ATOM     37  C   UNL     1      -1.491  -3.413  -6.124  0.00  0.00    +0.007 A 
BRANCH  35  38
ATOM     38  O   UNL     1      -2.257  -3.267  -9.678  0.00  0.00    -0.507 OA
ATOM     39  H   UNL     1      -1.724  -3.884 -10.197  0.00  0.00    +0.292 HD
ENDBRANCH  35  38
ENDBRANCH  31  32
ENDBRANCH   5  31
TORSDOF 6
