REMARK  Name = ZINC15692928
REMARK  3 active torsions:
REMARK  status: ('A' for Active; 'I' for Inactive)
REMARK    1  A    between atoms: C_3  and  C_8
REMARK    2  A    between atoms: N_13  and  S_16
REMARK    3  A    between atoms: S_16  and  C_19
REMARK                            x       y       z     vdW  Elec       q    Type
REMARK                         _______ _______ _______ _____ _____    ______ ____
ROOT
ATOM      1  C   UNL     1      -3.761   3.409  -3.634  0.00  0.00    +0.247 C 
ATOM      2  O   UNL     1      -3.869   4.600  -3.854  0.00  0.00    -0.270 OA
ATOM      3  N   UNL     1      -2.810   2.964  -2.789  0.00  0.00    -0.295 N 
ATOM      4  C   UNL     1      -1.843   3.896  -2.192  0.00  0.00    +0.125 C 
ATOM      5  C   UNL     1      -0.426   3.404  -2.512  0.00  0.00    +0.128 C 
ATOM      6  N   UNL     1      -0.337   1.976  -2.173  0.00  0.00    -0.174 NA
ATOM      7  C   UNL     1      -1.300   1.044  -2.774  0.00  0.00    +0.128 C 
ATOM      8  C   UNL     1      -2.721   1.536  -2.450  0.00  0.00    +0.125 C 
ENDROOT
BRANCH   1  11
ATOM      9  C   UNL     1      -6.218   0.615  -4.151  0.00  0.00    +0.002 A 
ATOM     10  C   UNL     1      -5.364   1.505  -3.531  0.00  0.00    +0.013 A 
ATOM     11  C   UNL     1      -4.675   2.451  -4.292  0.00  0.00    +0.038 A 
ATOM     12  C   UNL     1      -4.846   2.484  -5.676  0.00  0.00    +0.028 A 
ATOM     13  C   UNL     1      -5.700   1.585  -6.284  0.00  0.00    +0.019 A 
ATOM     14  C   UNL     1      -6.384   0.653  -5.523  0.00  0.00    +0.015 A 
ATOM     15 BR   UNL     1      -5.934   1.627  -8.160  0.00  0.00    -0.050 Br
ENDBRANCH   1  11
BRANCH   6  16
ATOM     16  S   UNL     1       0.832   1.428  -1.136  0.00  0.00    +0.061 S 
ATOM     17  O   UNL     1       1.027   0.053  -1.434  0.00  0.00    -0.153 OA
ATOM     18  O   UNL     1       1.891   2.375  -1.181  0.00  0.00    -0.153 OA
BRANCH  16  19
ATOM     19  C   UNL     1       0.161   1.501   0.491  0.00  0.00    +0.109 A 
ATOM     20  C   UNL     1       0.320   2.644   1.252  0.00  0.00    +0.032 A 
ATOM     21  C   UNL     1      -0.208   2.710   2.529  0.00  0.00    +0.051 A 
ATOM     22  C   UNL     1      -0.888   1.621   3.047  0.00  0.00    +0.162 A 
ATOM     23  C   UNL     1      -1.043   0.471   2.286  0.00  0.00    +0.164 A 
ATOM     24  C   UNL     1      -0.517   0.411   1.006  0.00  0.00    +0.078 A 
ATOM     25  O   UNL     1      -1.716  -0.596   2.806  0.00  0.00    -0.488 OA
ATOM     26  C   UNL     1      -1.073  -1.272   3.888  0.00  0.00    +0.232 C 
ATOM     27  C   UNL     1      -1.373  -0.582   5.210  0.00  0.00    +0.082 C 
ATOM     28  C   UNL     1      -0.792   0.822   5.274  0.00  0.00    +0.232 C 
ATOM     29  O   UNL     1      -1.411   1.672   4.307  0.00  0.00    -0.488 OA
ENDBRANCH  16  19
ENDBRANCH   6  16
TORSDOF 3
