REMARK  Name = ZINC14584496
REMARK  13 active torsions:
REMARK  status: ('A' for Active; 'I' for Inactive)
REMARK    1  A    between atoms: C_1  and  C_2
REMARK    2  A    between atoms: C_2  and  C_3
REMARK    3  A    between atoms: C_3  and  C_4
REMARK    4  A    between atoms: C_4  and  N_5
REMARK    5  A    between atoms: C_7  and  C_11
REMARK    6  A    between atoms: C_8  and  C_10
REMARK    7  A    between atoms: C_12  and  C_13
REMARK    8  A    between atoms: N_15  and  C_16
REMARK    9  A    between atoms: N_15  and  C_18
REMARK   10  A    between atoms: C_16  and  C_17
REMARK   11  A    between atoms: C_19  and  N_34
REMARK   12  A    between atoms: N_20  and  C_27
REMARK   13  A    between atoms: C_27  and  C_28
REMARK                            x       y       z     vdW  Elec       q    Type
REMARK                         _______ _______ _______ _____ _____    ______ ____
ROOT
ATOM      1  C   UNL     1       0.650   6.764   7.120  0.00  0.00    +0.140 A 
ATOM      2  C   UNL     1       0.103   8.005   6.867  0.00  0.00    +0.128 A 
ATOM      3  N   UNL     1       0.038   8.931   7.883  0.00  0.00    -0.276 N 
ATOM      4  C   UNL     1       0.513   8.633   9.107  0.00  0.00    +0.331 A 
ATOM      5  O   UNL     1       0.452   9.466   9.990  0.00  0.00    -0.246 OA
ATOM      6  N   UNL     1       1.054   7.430   9.370  0.00  0.00    -0.273 N 
ATOM      7  H   UNL     1       1.400   7.234  10.288  0.00  0.00    +0.173 HD
ATOM      8  C   UNL     1       1.137   6.487   8.412  0.00  0.00    +0.277 A 
ATOM      9  O   UNL     1       1.629   5.399   8.662  0.00  0.00    -0.266 OA
ENDROOT
BRANCH   1  12
ATOM     10  C   UNL     1      -0.402   5.321   5.534  0.00  0.00    +0.244 C 
ATOM     11  O   UNL     1      -1.489   5.675   5.954  0.00  0.00    -0.270 OA
ATOM     12  N   UNL     1       0.726   5.792   6.101  0.00  0.00    -0.261 N 
BRANCH  10  14
ATOM     13  C   UNL     1      -1.454   3.941   3.879  0.00  0.00    +0.018 C 
ATOM     14  C   UNL     1      -0.324   4.413   4.448  0.00  0.00    +0.068 C 
BRANCH  13  17
ATOM     15  N   UNL     1      -0.824   2.070   0.838  0.00  0.00    -0.252 N 
ATOM     16  C   UNL     1      -0.607   3.150   1.610  0.00  0.00    +0.134 A 
ATOM     17  C   UNL     1      -1.373   3.001   2.754  0.00  0.00    +0.034 A 
ATOM     18  C   UNL     1      -2.059   1.769   2.637  0.00  0.00    +0.069 A 
ATOM     19  N   UNL     1      -1.725   1.227   1.498  0.00  0.00    -0.175 NA
ATOM     20  C   UNL     1      -3.008   1.184   3.650  0.00  0.00    +0.068 C 
ATOM     21 CL   UNL     1       0.439   4.486   1.240  0.00  0.00    -0.062 Cl
BRANCH  15  22
ATOM     22  C   UNL     1      -0.216   1.817  -0.470  0.00  0.00    +0.145 C 
BRANCH  22  23
ATOM     23  C   UNL     1      -1.105   2.403  -1.568  0.00  0.00    +0.023 C 
BRANCH  23  25
ATOM     24  C   UNL     1      -1.359   2.724  -4.033  0.00  0.00    +0.004 C 
ATOM     25  C   UNL     1      -0.469   2.138  -2.934  0.00  0.00    -0.002 C 
ENDBRANCH  23  25
ENDBRANCH  22  23
ENDBRANCH  15  22
ENDBRANCH  13  17
ENDBRANCH  10  14
BRANCH  12  26
ATOM     26  C   UNL     1       2.031   5.295   5.659  0.00  0.00    +0.111 C 
ATOM     27  C   UNL     1       2.493   6.092   4.437  0.00  0.00    +0.025 C 
ENDBRANCH  12  26
ENDBRANCH   1  12
BRANCH   2  28
ATOM     28  N   UNL     1      -0.377   8.312   5.616  0.00  0.00    -0.343 N 
ATOM     29  H   UNL     1      -0.255   7.688   4.884  0.00  0.00    +0.144 HD
ATOM     30  H   UNL     1      -0.837   9.152   5.466  0.00  0.00    +0.144 HD
ENDBRANCH   2  28
BRANCH   3  31
ATOM     31  C   UNL     1      -0.545  10.250   7.630  0.00  0.00    +0.163 C 
BRANCH  31  32
ATOM     32  C   UNL     1       0.534  11.196   7.168  0.00  0.00    -0.028 A 
ATOM     33  C   UNL     1       1.238  11.946   8.091  0.00  0.00    +0.005 A 
ATOM     34  C   UNL     1       2.231  12.809   7.667  0.00  0.00    +0.000 A 
ATOM     35  C   UNL     1       2.512  12.931   6.319  0.00  0.00    +0.000 A 
ATOM     36  C   UNL     1       1.804  12.185   5.395  0.00  0.00    +0.000 A 
ATOM     37  C   UNL     1       0.815  11.317   5.820  0.00  0.00    +0.005 A 
ENDBRANCH  31  32
ENDBRANCH   3  31
TORSDOF 10
