REMARK  Name = ZINC06023518
REMARK  11 active torsions:
REMARK  status: ('A' for Active; 'I' for Inactive)
REMARK    1  A    between atoms: C_1  and  C_2
REMARK    2  A    between atoms: C_2  and  C_3
REMARK    3  A    between atoms: C_3  and  C_4
REMARK    4  A    between atoms: C_4  and  N_5
REMARK    5  A    between atoms: N_5  and  S_6
REMARK    6  A    between atoms: S_6  and  C_9
REMARK    7  A    between atoms: C_15  and  C_25
REMARK    8  A    between atoms: C_17  and  C_19
REMARK    9  A    between atoms: N_27  and  C_28
REMARK   10  A    between atoms: C_28  and  C_29
REMARK   11  A    between atoms: C_29  and  C_30
REMARK                            x       y       z     vdW  Elec       q    Type
REMARK                         _______ _______ _______ _____ _____    ______ ____
ROOT
ATOM      1  C   UNL     1       4.772   1.235  -0.090  0.00  0.00    +0.106 A 
ATOM      2  C   UNL     1       4.710  -0.157  -0.097  0.00  0.00    +0.030 A 
ATOM      3  C   UNL     1       3.515  -0.806  -0.071  0.00  0.00    +0.030 A 
ATOM      4  C   UNL     1       2.318  -0.066  -0.038  0.00  0.00    +0.072 A 
ATOM      5  C   UNL     1       2.386   1.350  -0.032  0.00  0.00    +0.014 A 
ATOM      6  C   UNL     1       3.634   1.985  -0.059  0.00  0.00    +0.039 A 
ATOM      7  C   UNL     1       1.180   2.098   0.002  0.00  0.00    +0.048 A 
ATOM      8  C   UNL     1      -0.017   1.399   0.028  0.00  0.00    +0.042 A 
ATOM      9  C   UNL     1       0.002  -0.004   0.019  0.00  0.00    +0.074 A 
ATOM     10  N   UNL     1       1.134  -0.680  -0.012  0.00  0.00    -0.247 NA
ENDROOT
BRANCH   9  11
ATOM     11  C   UNL     1      -1.282  -0.745   0.047  0.00  0.00    +0.018 A 
ATOM     12  C   UNL     1      -1.296  -2.143   0.039  0.00  0.00    +0.013 A 
ATOM     13  C   UNL     1      -2.521  -2.787   0.066  0.00  0.00    +0.020 A 
ATOM     14  C   UNL     1      -3.681  -2.034   0.098  0.00  0.00    +0.111 A 
ATOM     15  N   UNL     1      -3.636  -0.716   0.105  0.00  0.00    -0.263 NA
ATOM     16  C   UNL     1      -2.494  -0.059   0.086  0.00  0.00    +0.120 A 
ENDBRANCH   9  11
BRANCH   7  17
ATOM     17  C   UNL     1       1.200   3.577   0.009  0.00  0.00    +0.245 C 
ATOM     18  O   UNL     1       2.258   4.170   0.094  0.00  0.00    -0.270 OA
ATOM     19  N   UNL     1       0.046   4.267  -0.078  0.00  0.00    -0.311 N 
ATOM     20  H   UNL     1      -0.798   3.794  -0.146  0.00  0.00    +0.149 HD
BRANCH  19  21
ATOM     21  C   UNL     1       0.066   5.732  -0.071  0.00  0.00    +0.109 C 
BRANCH  21  22
ATOM     22  C   UNL     1      -1.366   6.262  -0.181  0.00  0.00    +0.049 C 
BRANCH  22  23
ATOM     23  C   UNL     1      -1.345   7.769  -0.173  0.00  0.00    -0.072 C 
ATOM     24  C   UNL     1      -1.348   8.381  -1.313  0.00  0.00    -0.028 C 
ATOM     25  C   UNL     1      -1.319   9.874  -1.466  0.00  0.00    +0.027 C 
ATOM     26  C   UNL     1      -1.712  10.546  -0.148  0.00  0.00    +0.004 C 
ATOM     27  C   UNL     1      -0.883   9.920   0.981  0.00  0.00    +0.005 C 
ATOM     28  C   UNL     1      -1.329   8.466   1.156  0.00  0.00    +0.030 C 
ENDBRANCH  22  23
ENDBRANCH  21  22
ENDBRANCH  19  21
ENDBRANCH   7  17
BRANCH   1  29
ATOM     29  S   UNL     1       6.341   2.036  -0.123  0.00  0.00    +0.058 S 
ATOM     30  O   UNL     1       7.255   1.115  -0.701  0.00  0.00    -0.153 OA
ATOM     31  O   UNL     1       6.123   3.333  -0.662  0.00  0.00    -0.153 OA
BRANCH  29  32
ATOM     32  N   UNL     1       6.815   2.250   1.449  0.00  0.00    -0.190 NA
ATOM     33  H   UNL     1       6.907   3.146   1.810  0.00  0.00    +0.148 HD
BRANCH  32  34
ATOM     34  C   UNL     1       7.095   1.087   2.295  0.00  0.00    +0.106 C 
BRANCH  34  35
ATOM     35  C   UNL     1       7.856   1.535   3.543  0.00  0.00    +0.017 C 
BRANCH  35  37
ATOM     36  C   UNL     1       8.909   0.769   5.675  0.00  0.00    +0.004 C 
ATOM     37  C   UNL     1       8.148   0.321   4.426  0.00  0.00    -0.002 C 
ENDBRANCH  35  37
ENDBRANCH  34  35
ENDBRANCH  32  34
ENDBRANCH  29  32
ENDBRANCH   1  29
TORSDOF 10
