REMARK  Name = ZINC45030806
REMARK  4 active torsions:
REMARK  status: ('A' for Active; 'I' for Inactive)
REMARK    1  A    between atoms: C_6  and  N_7
REMARK    2  A    between atoms: C_8  and  C_10
REMARK    3  A    between atoms: C_16  and  C_18
REMARK    4  A    between atoms: C_23  and  C_25
REMARK                            x       y       z     vdW  Elec       q    Type
REMARK                         _______ _______ _______ _____ _____    ______ ____
ROOT
ATOM      1  N   UNL     1      -1.219  -0.826   0.022  0.00  0.00    -0.285 N 
ATOM      2  C   UNL     1      -2.375  -0.139   0.110  0.00  0.00    +0.221 C 
ATOM      3  O   UNL     1      -2.364   1.073   0.073  0.00  0.00    -0.275 OA
ATOM      4  H   UNL     1      -1.232  -1.796  -0.003  0.00  0.00    +0.155 HD
ENDROOT
BRANCH   1  10
ATOM      5  C   UNL     1       1.127  -0.678   0.588  0.00  0.00    +0.027 A 
ATOM      6  C   UNL     1       2.333  -0.013   0.541  0.00  0.00    +0.050 A 
ATOM      7  C   UNL     1       2.431   1.199  -0.126  0.00  0.00    +0.155 A 
ATOM      8  C   UNL     1       1.301   1.746  -0.753  0.00  0.00    +0.111 A 
ATOM      9  C   UNL     1       0.084   1.067  -0.701  0.00  0.00    +0.055 A 
ATOM     10  C   UNL     1       0.002  -0.141  -0.032  0.00  0.00    +0.036 A 
ATOM     11  N   UNL     1       1.700   2.920  -1.315  0.00  0.00    -0.213 NA
ATOM     12  C   UNL     1       2.963   3.095  -1.065  0.00  0.00    +0.200 A 
ATOM     13  O   UNL     1       3.442   2.069  -0.345  0.00  0.00    -0.439 OA
BRANCH  12  14
ATOM     14  C   UNL     1       3.774   4.281  -1.520  0.00  0.00    +0.075 C 
ATOM     15  C   UNL     1       5.194   4.421  -0.965  0.00  0.00    +0.013 C 
ATOM     16  C   UNL     1       4.979   4.009  -2.423  0.00  0.00    +0.013 C 
ENDBRANCH  12  14
ENDBRANCH   1  10
BRANCH   2  17
ATOM     17  C   UNL     1      -3.681  -0.876   0.252  0.00  0.00    +0.087 C 
ATOM     18  C   UNL     1      -4.554  -0.609  -0.976  0.00  0.00    +0.013 C 
ATOM     19  C   UNL     1      -4.826   0.892  -1.091  0.00  0.00    +0.001 C 
ATOM     20  C   UNL     1      -5.551   1.377   0.166  0.00  0.00    +0.001 C 
ATOM     21  C   UNL     1      -4.678   1.110   1.393  0.00  0.00    +0.013 C 
ATOM     22  C   UNL     1      -4.406  -0.391   1.509  0.00  0.00    +0.105 C 
BRANCH  22  23
ATOM     23  C   UNL     1      -3.533  -0.658   2.737  0.00  0.00    +0.394 C 
ATOM     24  F   UNL     1      -2.293  -0.033   2.572  0.00  0.00    -0.170 F 
ATOM     25  F   UNL     1      -4.164  -0.149   3.877  0.00  0.00    -0.170 F 
ATOM     26  F   UNL     1      -3.345  -2.037   2.884  0.00  0.00    -0.170 F 
ENDBRANCH  22  23
ENDBRANCH   2  17
TORSDOF 4
