REMARK  Name = ZINC20834164
REMARK  7 active torsions:
REMARK  status: ('A' for Active; 'I' for Inactive)
REMARK    1  A    between atoms: C_4  and  C_7
REMARK    2  A    between atoms: C_8  and  C_9
REMARK    3  A    between atoms: N_10  and  N_11
REMARK    4  A    between atoms: C_14  and  S_17
REMARK    5  A    between atoms: S_17  and  C_18
REMARK    6  A    between atoms: C_18  and  C_19
REMARK    7  A    between atoms: C_22  and  C_24
REMARK                            x       y       z     vdW  Elec       q    Type
REMARK                         _______ _______ _______ _____ _____    ______ ____
ROOT
ATOM      1  N   UNL     1      -1.143   2.176   0.020  0.00  0.00    -0.205 N 
ATOM      2  C   UNL     1      -0.017   1.367   0.010  0.00  0.00    +0.232 A 
ATOM      3  N   UNL     1       0.002  -0.004   0.002  0.00  0.00    -0.186 NA
ATOM      4  C   UNL     1       1.326  -0.355  -0.013  0.00  0.00    +0.211 A 
ATOM      5  N   UNL     1       2.021   0.757  -0.013  0.00  0.00    -0.144 NA
ATOM      6  N   UNL     1       1.230   1.770  -0.000  0.00  0.00    -0.245 N 
ATOM      7  H   UNL     1      -2.145   1.722   0.022  0.00  0.00    +0.177 HD
ATOM      8  H   UNL     1       1.461   2.846   0.003  0.00  0.00    +0.192 HD
ENDROOT
BRANCH   1  10
ATOM      9  C   UNL     1      -2.064   4.330   0.036  0.00  0.00    +0.130 C 
ATOM     10  N   UNL     1      -1.005   3.570   0.026  0.00  0.00    -0.188 NA
BRANCH   9  12
ATOM     11  C   UNL     1      -3.021   6.526   0.052  0.00  0.00    +0.009 C 
ATOM     12  C   UNL     1      -1.925   5.740   0.043  0.00  0.00    +0.022 C 
BRANCH  11  16
ATOM     13  C   UNL     1      -2.603  10.747   0.075  0.00  0.00    +0.000 A 
ATOM     14  C   UNL     1      -3.865  10.181   0.077  0.00  0.00    +0.001 A 
ATOM     15  C   UNL     1      -4.010   8.809   0.070  0.00  0.00    +0.008 A 
ATOM     16  C   UNL     1      -2.876   7.991   0.060  0.00  0.00    -0.025 A 
ATOM     17  C   UNL     1      -1.603   8.571   0.062  0.00  0.00    +0.008 A 
ATOM     18  C   UNL     1      -1.476   9.944   0.064  0.00  0.00    +0.001 A 
ENDBRANCH  11  16
ENDBRANCH   9  12
ENDBRANCH   1  10
BRANCH   4  19
ATOM     19  S   UNL     1       1.974  -1.993  -0.027  0.00  0.00    -0.075 S 
BRANCH  19  20
ATOM     20  C   UNL     1       3.748  -1.629  -0.042  0.00  0.00    +0.175 C 
BRANCH  20  21
ATOM     21  C   UNL     1       4.525  -2.920  -0.056  0.00  0.00    +0.228 A 
ATOM     22  N   UNL     1       4.912  -3.574  -1.116  0.00  0.00    -0.111 NA
ATOM     23  N   UNL     1       5.552  -4.632  -0.758  0.00  0.00    -0.107 NA
ATOM     24  C   UNL     1       5.594  -4.690   0.552  0.00  0.00    +0.248 A 
ATOM     25  O   UNL     1       4.949  -3.603   1.021  0.00  0.00    -0.419 OA
BRANCH  24  26
ATOM     26  C   UNL     1       6.236  -5.747   1.363  0.00  0.00    +0.039 A 
ATOM     27  C   UNL     1       6.207  -5.675   2.756  0.00  0.00    +0.014 A 
ATOM     28  C   UNL     1       6.803  -6.666   3.508  0.00  0.00    +0.021 A 
ATOM     29  C   UNL     1       7.439  -7.726   2.882  0.00  0.00    +0.041 A 
ATOM     30  C   UNL     1       7.474  -7.800   1.499  0.00  0.00    +0.021 A 
ATOM     31  C   UNL     1       6.877  -6.817   0.738  0.00  0.00    +0.014 A 
ATOM     32 CL   UNL     1       8.193  -8.966   3.834  0.00  0.00    -0.084 Cl
ENDBRANCH  24  26
ENDBRANCH  20  21
ENDBRANCH  19  20
ENDBRANCH   4  19
TORSDOF 7
