REMARK  Name = ZINC12448374
REMARK  5 active torsions:
REMARK  status: ('A' for Active; 'I' for Inactive)
REMARK    1  A    between atoms: C_5  and  N_7
REMARK    2  A    between atoms: C_12  and  C_13
REMARK    3  A    between atoms: C_12  and  N_63
REMARK    4  A    between atoms: C_15  and  C_18
REMARK    5  A    between atoms: N_20  and  C_21
REMARK                            x       y       z     vdW  Elec       q    Type
REMARK                         _______ _______ _______ _____ _____    ______ ____
ROOT
ATOM      1  C   UNL     1       3.879  -0.667  -0.039  0.00  0.00    +0.179 A 
ATOM      2  N   UNL     1       2.604  -0.414  -0.020  0.00  0.00    -0.210 NA
ATOM      3  C   UNL     1       2.433   0.936  -0.016  0.00  0.00    +0.163 A 
ATOM      4  C   UNL     1       3.673   1.497  -0.025  0.00  0.00    +0.230 A 
ATOM      5  O   UNL     1       4.559   0.488  -0.039  0.00  0.00    -0.449 OA
ENDROOT
BRANCH   3   6
ATOM      6  C   UNL     1       1.147   1.655   0.000  0.00  0.00    +0.266 C 
ATOM      7  O   UNL     1       1.130   2.872   0.007  0.00  0.00    -0.268 OA
ATOM      8  N   UNL     1      -0.011   0.966   0.007  0.00  0.00    -0.304 N 
ATOM      9  H   UNL     1       0.002  -0.004   0.002  0.00  0.00    +0.150 HD
BRANCH   8  10
ATOM     10  C   UNL     1      -1.290   1.681   0.017  0.00  0.00    +0.036 C 
ATOM     11  C   UNL     1      -1.389   2.566  -1.227  0.00  0.00    +0.029 C 
ATOM     12  C   UNL     1      -2.724   3.313  -1.216  0.00  0.00    -0.008 C 
ATOM     13  C   UNL     1      -3.873   2.303  -1.216  0.00  0.00    +0.007 C 
ATOM     14  C   UNL     1      -3.774   1.418   0.028  0.00  0.00    -0.008 C 
ATOM     15  C   UNL     1      -2.439   0.671   0.017  0.00  0.00    +0.029 C 
ATOM     16  C   UNL     1      -3.861   2.290   1.282  0.00  0.00    +0.007 C 
ATOM     17  C   UNL     1      -2.712   3.300   1.282  0.00  0.00    -0.008 C 
ATOM     18  C   UNL     1      -2.811   4.185   0.038  0.00  0.00    +0.007 C 
ATOM     19  C   UNL     1      -1.377   2.553   1.272  0.00  0.00    +0.029 C 
ENDBRANCH   8  10
ENDBRANCH   3   6
BRANCH   1  20
ATOM     20  C   UNL     1       4.495  -2.043  -0.052  0.00  0.00    +0.019 C 
BRANCH  20  26
ATOM     21  N   UNL     1       4.435  -4.279  -3.636  0.00  0.00    -0.331 N 
ATOM     22  C   UNL     1       5.729  -4.086  -2.966  0.00  0.00    +0.086 C 
ATOM     23  C   UNL     1       5.491  -3.707  -1.503  0.00  0.00    -0.059 C 
ATOM     24  C   UNL     1       3.388  -2.675  -2.111  0.00  0.00    -0.059 C 
ATOM     25  C   UNL     1       3.625  -3.054  -3.575  0.00  0.00    +0.086 C 
ATOM     26  N   UNL     1       4.695  -2.462  -1.456  0.00  0.00    +0.388 N 
ATOM     27  H   UNL     1       5.202  -1.723  -1.956  0.00  0.00    -0.081 HD
BRANCH  21  32
ATOM     28  C   UNL     1       5.459  -6.292  -6.537  0.00  0.00    +0.002 A 
ATOM     29  C   UNL     1       4.966  -5.524  -7.577  0.00  0.00    +0.003 A 
ATOM     30  C   UNL     1       4.296  -4.344  -7.312  0.00  0.00    +0.040 A 
ATOM     31  C   UNL     1       4.117  -3.927  -6.006  0.00  0.00    +0.144 A 
ATOM     32  C   UNL     1       4.612  -4.697  -4.959  0.00  0.00    +0.065 A 
ATOM     33  C   UNL     1       5.288  -5.879  -5.230  0.00  0.00    +0.026 A 
ATOM     34  F   UNL     1       3.464  -2.773  -5.747  0.00  0.00    -0.204 F 
ENDBRANCH  21  32
ENDBRANCH  20  26
ENDBRANCH   1  20
TORSDOF 5
