REMARK  Name = ZINC09741134
REMARK  7 active torsions:
REMARK  status: ('A' for Active; 'I' for Inactive)
REMARK    1  A    between atoms: C_3  and  C_6
REMARK    2  A    between atoms: C_6  and  C_8
REMARK    3  A    between atoms: C_6  and  S_23
REMARK    4  A    between atoms: C_8  and  N_9
REMARK    5  A    between atoms: N_9  and  S_10
REMARK    6  A    between atoms: S_10  and  C_13
REMARK    7  A    between atoms: S_23  and  C_26
REMARK                            x       y       z     vdW  Elec       q    Type
REMARK                         _______ _______ _______ _____ _____    ______ ____
ROOT
ATOM      1  C   UNL     1       5.329  -0.398  -3.773  0.00  0.00    +0.217 C 
ENDROOT
BRANCH   1   4
ATOM      2  C   UNL     1       6.681   2.322  -5.861  0.00  0.00    +0.041 A 
ATOM      3  C   UNL     1       6.857   1.171  -5.060  0.00  0.00    +0.046 A 
ATOM      4  C   UNL     1       5.634   0.788  -4.652  0.00  0.00    +0.131 A 
ATOM      5  O   UNL     1       4.730   1.638  -5.166  0.00  0.00    -0.466 OA
ATOM      6  C   UNL     1       5.360   2.574  -5.895  0.00  0.00    +0.195 A 
ENDBRANCH   1   4
BRANCH   1   7
ATOM      7  S   UNL     1       4.239  -1.544  -4.662  0.00  0.00    +0.008 S 
ATOM      8  O   UNL     1       4.086  -2.747  -3.920  0.00  0.00    -0.169 OA
ATOM      9  O   UNL     1       3.104  -0.852  -5.163  0.00  0.00    -0.169 OA
BRANCH   7  10
ATOM     10  C   UNL     1       5.149  -2.013  -6.096  0.00  0.00    +0.089 A 
ATOM     11  C   UNL     1       5.025  -1.282  -7.262  0.00  0.00    +0.030 A 
ATOM     12  C   UNL     1       5.742  -1.646  -8.386  0.00  0.00    +0.040 A 
ATOM     13  C   UNL     1       6.576  -2.750  -8.347  0.00  0.00    +0.124 A 
ATOM     14  C   UNL     1       6.695  -3.485  -7.180  0.00  0.00    +0.040 A 
ATOM     15  C   UNL     1       5.982  -3.116  -6.055  0.00  0.00    +0.030 A 
ATOM     16  F   UNL     1       7.274  -3.110  -9.447  0.00  0.00    -0.205 F 
ENDBRANCH   7  10
ENDBRANCH   1   7
BRANCH   1  17
ATOM     17  C   UNL     1       4.634   0.080  -2.496  0.00  0.00    +0.140 C 
BRANCH  17  18
ATOM     18  N   UNL     1       4.337  -1.073  -1.642  0.00  0.00    -0.188 NA
ATOM     19  H   UNL     1       4.378  -1.970  -2.007  0.00  0.00    +0.148 HD
BRANCH  18  20
ATOM     20  S   UNL     1       3.931  -0.843  -0.053  0.00  0.00    +0.059 S 
ATOM     21  O   UNL     1       4.904   0.038   0.491  0.00  0.00    -0.153 OA
ATOM     22  O   UNL     1       3.680  -2.131   0.493  0.00  0.00    -0.153 OA
BRANCH  20  23
ATOM     23  C   UNL     1       2.397   0.024  -0.027  0.00  0.00    +0.109 A 
ATOM     24  C   UNL     1       1.207  -0.680  -0.016  0.00  0.00    +0.032 A 
ATOM     25  C   UNL     1       0.002  -0.004   0.002  0.00  0.00    +0.051 A 
ATOM     26  C   UNL     1      -0.017   1.383   0.010  0.00  0.00    +0.162 A 
ATOM     27  C   UNL     1       1.179   2.090   0.002  0.00  0.00    +0.164 A 
ATOM     28  C   UNL     1       2.385   1.406  -0.018  0.00  0.00    +0.078 A 
ATOM     29  O   UNL     1       1.184   3.451   0.018  0.00  0.00    -0.485 OA
ATOM     30  C   UNL     1      -0.040   4.103  -0.340  0.00  0.00    +0.270 C 
ATOM     31  C   UNL     1      -1.189   3.413   0.408  0.00  0.00    +0.270 C 
ATOM     32  O   UNL     1      -1.212   2.035   0.019  0.00  0.00    -0.485 OA
ENDBRANCH  20  23
ENDBRANCH  18  20
ENDBRANCH  17  18
ENDBRANCH   1  17
TORSDOF 7
