REMARK  Name = ZINC36297530
REMARK  6 active torsions:
REMARK  status: ('A' for Active; 'I' for Inactive)
REMARK    1  A    between atoms: C_4  and  C_7
REMARK    2  A    between atoms: C_7  and  C_9
REMARK    3  A    between atoms: C_7  and  N_21
REMARK    4  A    between atoms: C_9  and  N_10
REMARK    5  A    between atoms: N_10  and  S_11
REMARK    6  A    between atoms: S_11  and  C_14
REMARK                            x       y       z     vdW  Elec       q    Type
REMARK                         _______ _______ _______ _____ _____    ______ ____
ROOT
ATOM      1  C   UNL     1       4.049  -1.182   1.377  0.00  0.00    +0.094 C 
ENDROOT
BRANCH   1   2
ATOM      2  N   UNL     1       5.265  -1.998   1.341  0.00  0.00    -0.191 NA
ATOM      3  H   UNL     1       5.595  -2.340   0.495  0.00  0.00    +0.148 HD
BRANCH   2   4
ATOM      4  S   UNL     1       6.076  -2.338   2.744  0.00  0.00    +0.060 S 
ATOM      5  O   UNL     1       7.179  -3.159   2.387  0.00  0.00    -0.153 OA
ATOM      6  O   UNL     1       6.234  -1.104   3.431  0.00  0.00    -0.153 OA
BRANCH   4   7
ATOM      7  C   UNL     1       5.009  -3.332   3.735  0.00  0.00    +0.132 A 
ATOM      8  C   UNL     1       5.349  -4.638   4.040  0.00  0.00    +0.057 A 
ATOM      9  C   UNL     1       4.506  -5.374   4.805  0.00  0.00    +0.081 A 
ATOM     10  S   UNL     1       3.184  -4.216   5.118  0.00  0.00    -0.063 S 
ATOM     11  C   UNL     1       3.846  -2.827   4.214  0.00  0.00    +0.106 A 
ATOM     12 CL   UNL     1       3.173  -1.240   4.001  0.00  0.00    -0.074 Cl
ATOM     13 CL   UNL     1       4.669  -7.018   5.340  0.00  0.00    -0.076 Cl
ENDBRANCH   4   7
ENDBRANCH   2   4
ENDBRANCH   1   2
BRANCH   1  14
ATOM     14  C   UNL     1       3.711  -0.707  -0.038  0.00  0.00    -0.029 C 
BRANCH  14  18
ATOM     15  C   UNL     1      -0.017   1.378   0.010  0.00  0.00    +0.000 A 
ATOM     16  C   UNL     1       1.171   2.086   0.002  0.00  0.00    +0.000 A 
ATOM     17  C   UNL     1       2.377   1.411  -0.013  0.00  0.00    +0.002 A 
ATOM     18  C   UNL     1       2.396   0.029  -0.020  0.00  0.00    -0.061 A 
ATOM     19  C   UNL     1       1.208  -0.679  -0.012  0.00  0.00    +0.002 A 
ATOM     20  C   UNL     1       0.002  -0.004   0.002  0.00  0.00    +0.000 A 
ENDBRANCH  14  18
BRANCH  14  21
ATOM     21  N   UNL     1       3.611  -1.868  -0.933  0.00  0.00    +0.383 N 
ATOM     22  H   UNL     1       3.389  -1.555  -1.866  0.00  0.00    -0.089 HD
ATOM     23  H   UNL     1       4.492  -2.360  -0.944  0.00  0.00    -0.089 HD
ATOM     24  H   UNL     1       2.885  -2.485  -0.603  0.00  0.00    -0.089 HD
ENDBRANCH  14  21
ENDBRANCH   1  14
TORSDOF 6
