REMARK  Name = ZINC36534551
REMARK  17 active torsions:
REMARK  status: ('A' for Active; 'I' for Inactive)
REMARK    1  A    between atoms: C_1  and  C_2
REMARK    2  A    between atoms: C_2  and  C_3
REMARK    3  A    between atoms: C_2  and  C_4
REMARK    4  A    between atoms: C_2  and  C_5
REMARK    5  A    between atoms: C_5  and  C_6
REMARK    6  A    between atoms: C_6  and  C_7
REMARK    7  A    between atoms: C_6  and  C_8
REMARK    8  A    between atoms: C_6  and  N_9
REMARK    9  A    between atoms: C_10  and  C_12
REMARK   10  A    between atoms: C_12  and  C_14
REMARK   11  A    between atoms: C_12  and  N_21
REMARK   12  A    between atoms: C_17  and  O_20
REMARK   13  A    between atoms: N_21  and  C_22
REMARK   14  A    between atoms: C_23  and  C_25
REMARK   15  A    between atoms: C_25  and  C_26
REMARK   16  A    between atoms: C_25  and  C_32
REMARK   17  A    between atoms: C_25  and  O_38
REMARK                            x       y       z     vdW  Elec       q    Type
REMARK                         _______ _______ _______ _____ _____    ______ ____
ROOT
ATOM      1  C   UNL     1       5.226  -0.621  -4.606  0.00  0.00    +0.192 C 
ENDROOT
BRANCH   1   2
ATOM      2  C   UNL     1       4.335   0.107  -5.579  0.00  0.00    -0.018 A 
ATOM      3  C   UNL     1       3.514  -0.608  -6.431  0.00  0.00    +0.009 A 
ATOM      4  C   UNL     1       2.697   0.057  -7.324  0.00  0.00    +0.046 A 
ATOM      5  C   UNL     1       2.700   1.443  -7.366  0.00  0.00    +0.117 A 
ATOM      6  C   UNL     1       3.525   2.159  -6.510  0.00  0.00    +0.046 A 
ATOM      7  C   UNL     1       4.337   1.489  -5.615  0.00  0.00    +0.009 A 
BRANCH   5   8
ATOM      8  O   UNL     1       1.898   2.100  -8.245  0.00  0.00    -0.507 OA
ATOM      9  H   UNL     1       1.021   2.310  -7.895  0.00  0.00    +0.292 HD
ENDBRANCH   5   8
ENDBRANCH   1   2
BRANCH   1  11
ATOM     10  N   UNL     1       3.802  -0.112  -2.648  0.00  0.00    -0.308 N 
ATOM     11  C   UNL     1       5.021  -0.062  -3.222  0.00  0.00    +0.238 C 
ATOM     12  O   UNL     1       5.953   0.434  -2.624  0.00  0.00    -0.273 OA
ATOM     13  H   UNL     1       3.057  -0.508  -3.126  0.00  0.00    +0.149 HD
BRANCH  10  14
ATOM     14  C   UNL     1       3.603   0.432  -1.303  0.00  0.00    +0.030 C 
ATOM     15  C   UNL     1       4.135   1.866  -1.248  0.00  0.00    +0.031 C 
ATOM     16  C   UNL     1       4.356  -0.430  -0.287  0.00  0.00    +0.031 C 
BRANCH  14  17
ATOM     17  C   UNL     1       2.110   0.429  -0.967  0.00  0.00    +0.031 C 
BRANCH  17  19
ATOM     18  C   UNL     1       1.112  -0.281  -3.145  0.00  0.00    +0.010 C 
ATOM     19  C   UNL     1       1.312   0.895  -2.187  0.00  0.00    -0.036 C 
ATOM     20  C   UNL     1       2.078   2.010  -2.901  0.00  0.00    +0.010 C 
ATOM     21  C   UNL     1      -0.051   1.422  -1.733  0.00  0.00    +0.010 C 
ENDBRANCH  17  19
ENDBRANCH  14  17
ENDBRANCH  10  14
ENDBRANCH   1  11
BRANCH   1  22
ATOM     22  N   UNL     1       6.626  -0.447  -5.000  0.00  0.00    -0.286 N 
ATOM     23  C   UNL     1       7.265   0.865  -4.873  0.00  0.00    +0.133 C 
ATOM     24  C   UNL     1       7.326  -1.494  -5.481  0.00  0.00    +0.257 C 
ATOM     25  O   UNL     1       6.777  -2.561  -5.659  0.00  0.00    -0.272 OA
BRANCH  24  26
ATOM     26  C   UNL     1       8.791  -1.339  -5.798  0.00  0.00    +0.192 C 
BRANCH  26  27
ATOM     27  C   UNL     1       9.459  -2.689  -5.760  0.00  0.00    -0.003 A 
ATOM     28  C   UNL     1       9.597  -3.425  -6.922  0.00  0.00    +0.007 A 
ATOM     29  C   UNL     1      10.209  -4.664  -6.887  0.00  0.00    +0.000 A 
ATOM     30  C   UNL     1      10.685  -5.166  -5.690  0.00  0.00    +0.000 A 
ATOM     31  C   UNL     1      10.548  -4.429  -4.528  0.00  0.00    +0.000 A 
ATOM     32  C   UNL     1       9.939  -3.189  -4.564  0.00  0.00    +0.007 A 
ENDBRANCH  26  27
BRANCH  26  33
ATOM     33  C   UNL     1       8.947  -0.740  -7.173  0.00  0.00    -0.003 A 
ATOM     34  C   UNL     1       8.050  -1.065  -8.174  0.00  0.00    +0.007 A 
ATOM     35  C   UNL     1       8.193  -0.515  -9.434  0.00  0.00    +0.000 A 
ATOM     36  C   UNL     1       9.232   0.358  -9.694  0.00  0.00    +0.000 A 
ATOM     37  C   UNL     1      10.128   0.683  -8.693  0.00  0.00    +0.000 A 
ATOM     38  C   UNL     1       9.983   0.138  -7.431  0.00  0.00    +0.007 A 
ENDBRANCH  26  33
BRANCH  26  39
ATOM     39  O   UNL     1       9.399  -0.479  -4.833  0.00  0.00    -0.371 OA
ATOM     40  H   UNL     1       9.337  -0.802  -3.924  0.00  0.00    +0.212 HD
ENDBRANCH  26  39
ENDBRANCH  24  26
ENDBRANCH   1  22
TORSDOF 11
