REMARK  Name = ZINC59112515
REMARK  11 active torsions:
REMARK  status: ('A' for Active; 'I' for Inactive)
REMARK    1  A    between atoms: C_6  and  C_7
REMARK    2  A    between atoms: C_7  and  N_8
REMARK    3  A    between atoms: N_8  and  C_9
REMARK    4  A    between atoms: C_9  and  N_11
REMARK    5  A    between atoms: N_11  and  C_12
REMARK    6  A    between atoms: C_12  and  C_13
REMARK    7  A    between atoms: C_13  and  N_14
REMARK    8  A    between atoms: N_17  and  C_20
REMARK    9  A    between atoms: C_20  and  N_22
REMARK   10  A    between atoms: N_22  and  C_23
REMARK   11  A    between atoms: C_23  and  C_24
REMARK                            x       y       z     vdW  Elec       q    Type
REMARK                         _______ _______ _______ _____ _____    ______ ____
ROOT
ATOM      1  N   UNL     1      -5.970  -3.492  -4.908  0.00  0.00    -0.298 NA
ATOM      2  C   UNL     1      -7.138  -2.738  -4.434  0.00  0.00    +0.103 C 
ATOM      3  C   UNL     1      -8.391  -3.612  -4.556  0.00  0.00    +0.122 C 
ATOM      4  N   UNL     1      -8.486  -4.101  -5.940  0.00  0.00    -0.310 N 
ATOM      5  C   UNL     1      -7.305  -4.748  -6.532  0.00  0.00    +0.122 C 
ATOM      6  C   UNL     1      -6.095  -3.829  -6.332  0.00  0.00    +0.103 C 
ENDROOT
BRANCH   4   7
ATOM      7  C   UNL     1      -9.625  -3.961  -6.646  0.00  0.00    +0.133 C 
ATOM      8  S   UNL     1     -11.025  -3.324  -5.895  0.00  0.00    -0.019 S 
BRANCH   7   9
ATOM      9  N   UNL     1      -9.662  -4.323  -7.944  0.00  0.00    -0.322 N 
ATOM     10  H   UNL     1      -8.893  -4.752  -8.350  0.00  0.00    +0.148 HD
BRANCH   9  11
ATOM     11  C   UNL     1     -10.865  -4.068  -8.742  0.00  0.00    +0.138 C 
BRANCH  11  12
ATOM     12  C   UNL     1     -10.649  -4.563 -10.148  0.00  0.00    -0.027 A 
ATOM     13  C   UNL     1     -10.111  -3.719 -11.102  0.00  0.00    +0.009 A 
ATOM     14  C   UNL     1      -9.911  -4.169 -12.393  0.00  0.00    +0.050 A 
ATOM     15  C   UNL     1     -10.249  -5.468 -12.736  0.00  0.00    +0.166 A 
ATOM     16  C   UNL     1     -10.791  -6.319 -11.775  0.00  0.00    +0.167 A 
ATOM     17  C   UNL     1     -10.984  -5.863 -10.481  0.00  0.00    +0.054 A 
ATOM     18  O   UNL     1     -11.037  -7.530 -12.354  0.00  0.00    -0.453 OA
ATOM     19  C   UNL     1     -11.021  -7.289 -13.773  0.00  0.00    +0.466 C 
ATOM     20  O   UNL     1     -10.155  -6.147 -13.916  0.00  0.00    -0.453 OA
ENDBRANCH  11  12
ENDBRANCH   9  11
ENDBRANCH   7   9
ENDBRANCH   4   7
BRANCH   1  21
ATOM     21  C   UNL     1      -4.727  -2.755  -4.648  0.00  0.00    +0.103 C 
BRANCH  21  22
ATOM     22  C   UNL     1      -4.507  -2.640  -3.138  0.00  0.00    +0.118 C 
BRANCH  22  23
ATOM     23  N   UNL     1      -3.267  -1.905  -2.880  0.00  0.00    -0.325 N 
ATOM     24  H   UNL     1      -2.733  -1.579  -3.621  0.00  0.00    +0.148 HD
BRANCH  23  25
ATOM     25  C   UNL     1      -2.868  -1.681  -1.612  0.00  0.00    +0.131 C 
ATOM     26  S   UNL     1      -3.811  -2.257  -0.304  0.00  0.00    -0.019 S 
BRANCH  25  27
ATOM     27  N   UNL     1      -1.727  -1.005  -1.373  0.00  0.00    -0.322 N 
ATOM     28  H   UNL     1      -1.193  -0.679  -2.115  0.00  0.00    +0.148 HD
BRANCH  27  29
ATOM     29  C   UNL     1      -1.294  -0.761   0.005  0.00  0.00    +0.138 C 
BRANCH  29  35
ATOM     30  C   UNL     1      -0.019   1.391   0.002  0.00  0.00    +0.009 A 
ATOM     31  C   UNL     1       1.167   2.103  -0.006  0.00  0.00    +0.050 A 
ATOM     32  C   UNL     1       2.378   1.432  -0.022  0.00  0.00    +0.166 A 
ATOM     33  C   UNL     1       2.398   0.039  -0.029  0.00  0.00    +0.167 A 
ATOM     34  C   UNL     1       1.207  -0.667  -0.021  0.00  0.00    +0.054 A 
ATOM     35  C   UNL     1       0.001   0.009  -0.005  0.00  0.00    -0.027 A 
ATOM     36  O   UNL     1       3.698  -0.378  -0.044  0.00  0.00    -0.453 OA
ATOM     37  C   UNL     1       4.465   0.768  -0.459  0.00  0.00    +0.466 C 
ATOM     38  O   UNL     1       3.665   1.887  -0.033  0.00  0.00    -0.453 OA
ENDBRANCH  29  35
ENDBRANCH  27  29
ENDBRANCH  25  27
ENDBRANCH  23  25
ENDBRANCH  22  23
ENDBRANCH  21  22
ENDBRANCH   1  21
TORSDOF 11
