REMARK  Name = ZINC20079488
REMARK  7 active torsions:
REMARK  status: ('A' for Active; 'I' for Inactive)
REMARK    1  A    between atoms: C_1  and  C_2
REMARK    2  A    between atoms: C_5  and  C_38
REMARK    3  A    between atoms: C_9  and  C_14
REMARK    4  A    between atoms: C_14  and  C_16
REMARK    5  A    between atoms: C_14  and  N_26
REMARK    6  A    between atoms: N_20  and  C_21
REMARK    7  A    between atoms: N_29  and  C_32
REMARK                            x       y       z     vdW  Elec       q    Type
REMARK                         _______ _______ _______ _____ _____    ______ ____
ROOT
ATOM      1  C   UNL     1      -0.109   1.057  -2.412  0.00  0.00    +0.162 C 
ENDROOT
BRANCH   1  10
ATOM      2  C   UNL     1      -2.605  -1.751  -6.017  0.00  0.00    +0.044 C 
ATOM      3  C   UNL     1      -2.900  -0.300  -6.297  0.00  0.00    -0.041 A 
ATOM      4  C   UNL     1      -3.700   0.048  -7.349  0.00  0.00    +0.004 A 
ATOM      5  C   UNL     1      -3.978   1.382  -7.614  0.00  0.00    +0.005 A 
ATOM      6  C   UNL     1      -3.453   2.381  -6.823  0.00  0.00    -0.026 A 
ATOM      7  C   UNL     1      -2.636   2.051  -5.747  0.00  0.00    +0.052 A 
ATOM      8  C   UNL     1      -2.356   0.697  -5.480  0.00  0.00    +0.002 A 
ATOM      9  C   UNL     1      -1.496   0.360  -4.345  0.00  0.00    +0.021 A 
ATOM     10  C   UNL     1      -0.998   1.369  -3.588  0.00  0.00    +0.042 A 
ATOM     11  C   UNL     1      -1.313   2.710  -3.894  0.00  0.00    +0.254 A 
ATOM     12  O   UNL     1      -0.859   3.601  -3.198  0.00  0.00    -0.268 OA
ATOM     13  N   UNL     1      -2.098   3.030  -4.938  0.00  0.00    -0.322 N 
ATOM     14  H   UNL     1      -2.308   4.090  -5.143  0.00  0.00    +0.169 HD
ATOM     15  C   UNL     1      -3.763   3.825  -7.122  0.00  0.00    +0.046 C 
ENDBRANCH   1  10
BRANCH   1  16
ATOM     16  N   UNL     1      -0.646   1.703  -1.207  0.00  0.00    -0.292 NA
ATOM     17  C   UNL     1      -2.012   1.239  -0.925  0.00  0.00    +0.067 C 
ATOM     18  C   UNL     1      -2.564   1.992   0.288  0.00  0.00    -0.063 C 
ATOM     19  N   UNL     1      -1.685   1.765   1.443  0.00  0.00    +0.383 N 
ATOM     20  C   UNL     1      -0.319   2.229   1.162  0.00  0.00    -0.063 C 
ATOM     21  C   UNL     1       0.233   1.476  -0.051  0.00  0.00    +0.067 C 
ATOM     22  H   UNL     1      -1.644   0.682   1.632  0.00  0.00    -0.081 HD
BRANCH  19  23
ATOM     23  C   UNL     1      -2.222   2.411   2.648  0.00  0.00    -0.068 C 
ATOM     24  C   UNL     1      -1.333   2.075   3.847  0.00  0.00    -0.015 C 
ATOM     25  C   UNL     1      -1.892   2.747   5.102  0.00  0.00    -0.002 C 
ATOM     26  C   UNL     1      -3.312   2.241   5.362  0.00  0.00    -0.000 C 
ATOM     27  C   UNL     1      -4.201   2.578   4.163  0.00  0.00    -0.002 C 
ATOM     28  C   UNL     1      -3.642   1.905   2.909  0.00  0.00    -0.015 C 
ENDBRANCH  19  23
ENDBRANCH   1  16
BRANCH   1  29
ATOM     29  C   UNL     1       1.281   1.573  -2.681  0.00  0.00    +0.173 A 
ATOM     30  N   UNL     1       1.673   2.823  -2.640  0.00  0.00    -0.111 NA
ATOM     31  N   UNL     1       2.928   2.856  -2.929  0.00  0.00    -0.023 NA
ATOM     32  N   UNL     1       3.347   1.660  -3.154  0.00  0.00    -0.044 NA
ATOM     33  N   UNL     1       2.362   0.840  -3.006  0.00  0.00    -0.224 N 
BRANCH  33  34
ATOM     34  C   UNL     1       2.410  -0.616  -3.165  0.00  0.00    +0.111 C 
ATOM     35  C   UNL     1       3.453  -1.218  -2.201  0.00  0.00    +0.027 C 
ATOM     36  C   UNL     1       4.096  -2.372  -3.011  0.00  0.00    +0.002 C 
ATOM     37  C   UNL     1       4.173  -1.784  -4.442  0.00  0.00    +0.002 C 
ATOM     38  C   UNL     1       2.867  -0.976  -4.589  0.00  0.00    +0.027 C 
ENDBRANCH  33  34
ENDBRANCH   1  29
TORSDOF 5
