REMARK  Name = ZINC14457329
REMARK  9 active torsions:
REMARK  status: ('A' for Active; 'I' for Inactive)
REMARK    1  A    between atoms: C_1  and  C_2
REMARK    2  A    between atoms: C_2  and  C_3
REMARK    3  A    between atoms: C_2  and  C_4
REMARK    4  A    between atoms: C_4  and  O_5
REMARK    5  A    between atoms: O_5  and  C_6
REMARK    6  A    between atoms: C_19  and  C_22
REMARK    7  A    between atoms: C_25  and  O_29
REMARK    8  A    between atoms: C_26  and  O_28
REMARK    9  A    between atoms: O_29  and  C_30
REMARK                            x       y       z     vdW  Elec       q    Type
REMARK                         _______ _______ _______ _____ _____    ______ ____
ROOT
ATOM      1  C   UNL     1      -1.852   4.686   3.294  0.00  0.00    +0.121 A 
ATOM      2  C   UNL     1      -1.222   5.369   2.263  0.00  0.00    +0.047 A 
ATOM      3  C   UNL     1      -1.281   6.746   2.208  0.00  0.00    +0.027 A 
ATOM      4  C   UNL     1      -1.974   7.460   3.179  0.00  0.00    +0.032 A 
ATOM      5  C   UNL     1      -2.614   6.766   4.211  0.00  0.00    -0.016 A 
ATOM      6  C   UNL     1      -2.550   5.391   4.263  0.00  0.00    +0.051 A 
ATOM      7  C   UNL     1      -3.359   7.564   5.210  0.00  0.00    +0.049 C 
ATOM      8  C   UNL     1      -3.602   7.095   6.609  0.00  0.00    -0.023 C 
ATOM      9  C   UNL     1      -3.622   8.143   7.423  0.00  0.00    -0.030 C 
ATOM     10  C   UNL     1      -3.380   9.428   6.629  0.00  0.00    +0.033 C 
ATOM     11  C   UNL     1      -2.589   8.901   5.424  0.00  0.00    +0.029 C 
ATOM     12  C   UNL     1      -2.730   9.662   4.117  0.00  0.00    +0.105 C 
ATOM     13  N   UNL     1      -2.002   8.861   3.110  0.00  0.00    -0.336 N 
ATOM     14  H   UNL     1      -1.536   9.312   2.388  0.00  0.00    +0.147 HD
ENDROOT
BRANCH  12  15
ATOM     15  C   UNL     1      -4.184   9.780   3.738  0.00  0.00    -0.023 A 
ATOM     16  C   UNL     1      -4.770   8.812   2.943  0.00  0.00    +0.009 A 
ATOM     17  C   UNL     1      -6.104   8.913   2.597  0.00  0.00    +0.050 A 
ATOM     18  C   UNL     1      -6.855   9.992   3.037  0.00  0.00    +0.161 A 
ATOM     19  C   UNL     1      -6.263  10.969   3.832  0.00  0.00    +0.159 A 
ATOM     20  C   UNL     1      -4.926  10.859   4.180  0.00  0.00    +0.054 A 
BRANCH  19  21
ATOM     21  O   UNL     1      -6.996  12.029   4.266  0.00  0.00    -0.503 OA
ATOM     22  H   UNL     1      -6.982  12.788   3.668  0.00  0.00    +0.292 HD
ENDBRANCH  19  21
BRANCH  18  23
ATOM     23  O   UNL     1      -8.166  10.095   2.692  0.00  0.00    -0.491 OA
ATOM     24  C   UNL     1      -8.706   9.055   1.874  0.00  0.00    +0.277 C 
ENDBRANCH  18  23
ENDBRANCH  12  15
BRANCH   1  25
ATOM     25  O   UNL     1      -1.789   3.329   3.351  0.00  0.00    -0.492 OA
BRANCH  25  26
ATOM     26  C   UNL     1      -1.057   2.670   2.315  0.00  0.00    +0.232 C 
BRANCH  26  28
ATOM     27  C   UNL     1      -0.421   0.445   1.373  0.00  0.00    +0.010 C 
ATOM     28  C   UNL     1      -1.097   1.158   2.546  0.00  0.00    +0.020 C 
ATOM     29  C   UNL     1      -0.358   0.820   3.842  0.00  0.00    +0.010 C 
ENDBRANCH  26  28
ENDBRANCH  25  26
ENDBRANCH   1  25
TORSDOF 6
