REMARK  Name = ZINC00388019
REMARK  2 active torsions:
REMARK  status: ('A' for Active; 'I' for Inactive)
REMARK    1  A    between atoms: C_4  and  C_7
REMARK    2  A    between atoms: N_18  and  C_19
REMARK                            x       y       z     vdW  Elec       q    Type
REMARK                         _______ _______ _______ _____ _____    ______ ____
ROOT
ATOM      1  C   UNL     1       1.273  -4.594   6.124  0.00  0.00    +0.004 A 
ATOM      2  C   UNL     1       1.362  -3.737   7.167  0.00  0.00    +0.056 A 
ATOM      3  S   UNL     1       1.265  -2.134   6.394  0.00  0.00    -0.076 S 
ATOM      4  C   UNL     1       1.108  -2.647   4.703  0.00  0.00    +0.118 A 
ATOM      5  C   UNL     1       1.134  -4.050   4.777  0.00  0.00    +0.080 A 
ATOM      6  C   UNL     1       1.022  -4.741   3.531  0.00  0.00    +0.262 A 
ATOM      7  O   UNL     1       1.036  -5.960   3.498  0.00  0.00    -0.267 OA
ATOM      8  N   UNL     1       0.898  -4.030   2.396  0.00  0.00    -0.295 N 
ATOM      9  H   UNL     1       0.813  -4.511   1.523  0.00  0.00    +0.172 HD
ATOM     10  C   UNL     1       0.886  -2.667   2.413  0.00  0.00    +0.197 A 
ATOM     11  N   UNL     1       0.987  -2.005   3.546  0.00  0.00    -0.209 NA
ATOM     12  N   UNL     1       0.762  -1.976   1.234  0.00  0.00    -0.312 N 
ATOM     13  H   UNL     1       0.687  -2.457   0.395  0.00  0.00    +0.149 HD
ENDROOT
BRANCH   1  17
ATOM     14  C   UNL     1       1.393  -8.796   6.760  0.00  0.00    +0.000 A 
ATOM     15  C   UNL     1       2.360  -7.985   7.327  0.00  0.00    +0.001 A 
ATOM     16  C   UNL     1       2.326  -6.621   7.124  0.00  0.00    +0.008 A 
ATOM     17  C   UNL     1       1.315  -6.059   6.346  0.00  0.00    -0.017 A 
ATOM     18  C   UNL     1       0.340  -6.881   5.781  0.00  0.00    +0.008 A 
ATOM     19  C   UNL     1       0.387  -8.245   5.986  0.00  0.00    +0.001 A 
ENDBRANCH   1  17
BRANCH  12  20
ATOM     20  C   UNL     1       0.742  -0.511   1.242  0.00  0.00    +0.073 C 
ATOM     21  C   UNL     1       0.002  -0.004   0.002  0.00  0.00    +0.022 C 
ATOM     22  C   UNL     1      -0.019   1.526   0.010  0.00  0.00    +0.002 C 
ATOM     23  C   UNL     1       1.417   2.055  -0.000  0.00  0.00    +0.000 C 
ATOM     24  C   UNL     1       2.157   1.548   1.239  0.00  0.00    +0.002 C 
ATOM     25  C   UNL     1       2.178   0.019   1.231  0.00  0.00    +0.022 C 
ENDBRANCH  12  20
TORSDOF 2
