REMARK  Name = ZINC63654946
REMARK  8 active torsions:
REMARK  status: ('A' for Active; 'I' for Inactive)
REMARK    1  A    between atoms: C_1  and  O_2
REMARK    2  A    between atoms: O_2  and  C_3
REMARK    3  A    between atoms: C_8  and  C_9
REMARK    4  A    between atoms: N_11  and  C_12
REMARK    5  A    between atoms: C_12  and  C_13
REMARK    6  A    between atoms: C_13  and  S_14
REMARK    7  A    between atoms: S_14  and  C_15
REMARK    8  A    between atoms: C_23  and  C_25
REMARK                            x       y       z     vdW  Elec       q    Type
REMARK                         _______ _______ _______ _____ _____    ______ ____
ROOT
ATOM      1  C   UNL     1       1.822  -9.000   0.075  0.00  0.00    +0.021 C 
ATOM      2  C   UNL     1       0.505  -9.449   0.078  0.00  0.00    +0.010 A 
ATOM      3  C   UNL     1      -0.732  -8.775  -0.026  0.00  0.00    +0.011 A 
ATOM      4  C   UNL     1      -1.890  -9.483   0.007  0.00  0.00    +0.001 A 
ATOM      5  C   UNL     1      -1.893 -10.872   0.142  0.00  0.00    +0.002 A 
ATOM      6  C   UNL     1      -0.742 -11.583   0.247  0.00  0.00    +0.026 A 
ATOM      7  C   UNL     1       0.506 -10.913   0.220  0.00  0.00    +0.044 A 
ATOM      8  N   UNL     1       1.743 -11.367   0.303  0.00  0.00    -0.373 N 
ATOM      9  C   UNL     1       2.677 -10.239   0.217  0.00  0.00    +0.147 C 
ATOM     10  H   UNL     1       1.995 -12.299   0.401  0.00  0.00    +0.161 HD
ENDROOT
BRANCH   9  11
ATOM     11  C   UNL     1       3.505 -10.158   1.473  0.00  0.00    -0.020 A 
ATOM     12  C   UNL     1       2.939 -10.467   2.695  0.00  0.00    +0.007 A 
ATOM     13  C   UNL     1       3.699 -10.393   3.848  0.00  0.00    +0.020 A 
ATOM     14  C   UNL     1       5.026 -10.008   3.777  0.00  0.00    +0.041 A 
ATOM     15  C   UNL     1       5.592  -9.698   2.554  0.00  0.00    +0.020 A 
ATOM     16  C   UNL     1       4.833  -9.779   1.401  0.00  0.00    +0.007 A 
ATOM     17 CL   UNL     1       5.980  -9.914   5.224  0.00  0.00    -0.084 Cl
ENDBRANCH   9  11
BRANCH   1  18
ATOM     18  S   UNL     1       2.346  -7.431  -0.062  0.00  0.00    -0.125 S 
BRANCH  18  19
ATOM     19  C   UNL     1       0.817  -6.454  -0.042  0.00  0.00    +0.093 C 
BRANCH  19  20
ATOM     20  C   UNL     1       1.164  -4.964  -0.018  0.00  0.00    +0.115 C 
BRANCH  20  23
ATOM     21  C   UNL     1      -0.010  -2.829   0.021  0.00  0.00    +0.248 C 
ATOM     22  O   UNL     1       1.069  -2.269   0.027  0.00  0.00    -0.270 OA
ATOM     23  N   UNL     1      -0.071  -4.176  -0.001  0.00  0.00    -0.310 N 
ATOM     24  H   UNL     1      -0.932  -4.622  -0.006  0.00  0.00    +0.149 HD
BRANCH  21  30
ATOM     25  C   UNL     1      -1.195  -0.635   0.060  0.00  0.00    +0.132 A 
ATOM     26  C   UNL     1      -2.369   0.102   0.070  0.00  0.00    +0.048 A 
ATOM     27  C   UNL     1      -3.591  -0.541   0.062  0.00  0.00    +0.023 A 
ATOM     28  C   UNL     1      -3.654  -1.926   0.045  0.00  0.00    +0.042 A 
ATOM     29  C   UNL     1      -2.495  -2.675   0.036  0.00  0.00    +0.036 A 
ATOM     30  C   UNL     1      -1.253  -2.035   0.037  0.00  0.00    +0.080 A 
ATOM     31 CL   UNL     1      -5.197  -2.722   0.037  0.00  0.00    -0.084 Cl
BRANCH  25  33
ATOM     32  C   UNL     1      -0.013   1.425   0.092  0.00  0.00    +0.277 C 
ATOM     33  O   UNL     1       0.006  -0.004   0.068  0.00  0.00    -0.494 OA
ENDBRANCH  25  33
ENDBRANCH  21  30
ENDBRANCH  20  23
ENDBRANCH  19  20
ENDBRANCH  18  19
ENDBRANCH   1  18
TORSDOF 7
