REMARK  Name = ZINC59310129
REMARK  4 active torsions:
REMARK  status: ('A' for Active; 'I' for Inactive)
REMARK    1  A    between atoms: C_4  and  N_7
REMARK    2  A    between atoms: N_16  and  C_17
REMARK    3  A    between atoms: C_17  and  C_19
REMARK    4  A    between atoms: C_22  and  N_25
REMARK                            x       y       z     vdW  Elec       q    Type
REMARK                         _______ _______ _______ _____ _____    ______ ____
ROOT
ATOM      1  N   UNL     1       3.624  -0.652  -0.038  0.00  0.00    -0.280 N 
ATOM      2  C   UNL     1       3.792  -2.031   0.066  0.00  0.00    +0.073 A 
ATOM      3  C   UNL     1       2.900  -3.087   0.180  0.00  0.00    +0.028 A 
ATOM      4  C   UNL     1       3.373  -4.381   0.268  0.00  0.00    +0.002 A 
ATOM      5  C   UNL     1       4.735  -4.630   0.242  0.00  0.00    +0.002 A 
ATOM      6  C   UNL     1       5.631  -3.586   0.129  0.00  0.00    +0.028 A 
ATOM      7  C   UNL     1       5.166  -2.281   0.040  0.00  0.00    +0.066 A 
ATOM      8  N   UNL     1       5.806  -1.052  -0.079  0.00  0.00    -0.325 N 
ATOM      9  C   UNL     1       4.857  -0.079  -0.130  0.00  0.00    +0.206 A 
ATOM     10  N   UNL     1       5.093   1.222  -0.248  0.00  0.00    -0.142 NA
ATOM     11  H   UNL     1       6.765  -0.913  -0.122  0.00  0.00    +0.169 HD
ENDROOT
BRANCH   1  15
ATOM     12  C   UNL     1      -0.021   1.367  -0.079  0.00  0.00    +0.000 A 
ATOM     13  C   UNL     1       0.875   1.540  -1.117  0.00  0.00    +0.002 A 
ATOM     14  C   UNL     1       2.084   0.872  -1.107  0.00  0.00    +0.026 A 
ATOM     15  C   UNL     1       2.399   0.026  -0.051  0.00  0.00    +0.050 A 
ATOM     16  C   UNL     1       1.497  -0.146   0.990  0.00  0.00    +0.026 A 
ATOM     17  C   UNL     1       0.290   0.525   0.974  0.00  0.00    +0.002 A 
ENDBRANCH   1  15
BRANCH  10  18
ATOM     18  C   UNL     1       6.342   1.660  -0.446  0.00  0.00    +0.270 C 
ATOM     19  O   UNL     1       7.247   0.862  -0.621  0.00  0.00    -0.268 OA
BRANCH  18  20
ATOM     20  C   UNL     1       6.625   3.111  -0.454  0.00  0.00    +0.039 A 
ATOM     21  C   UNL     1       5.590   4.026  -0.248  0.00  0.00    +0.015 A 
ATOM     22  C   UNL     1       5.856   5.377  -0.254  0.00  0.00    +0.025 A 
ATOM     23  C   UNL     1       7.154   5.831  -0.466  0.00  0.00    +0.051 A 
ATOM     24  C   UNL     1       8.187   4.921  -0.672  0.00  0.00    +0.025 A 
ATOM     25  C   UNL     1       7.928   3.569  -0.661  0.00  0.00    +0.015 A 
BRANCH  23  26
ATOM     26  N   UNL     1       7.420   7.197  -0.473  0.00  0.00    -0.207 N 
ATOM     27  C   UNL     1       6.472   8.284  -0.776  0.00  0.00    +0.133 C 
ATOM     28  C   UNL     1       6.856   9.571  -0.022  0.00  0.00    +0.045 C 
ATOM     29  C   UNL     1       8.395   9.714  -0.223  0.00  0.00    +0.190 C 
ATOM     30  S   UNL     1       8.881   7.943  -0.131  0.00  0.00    +0.046 S 
ATOM     31  O   UNL     1       9.192   7.574   1.206  0.00  0.00    -0.155 OA
ATOM     32  O   UNL     1       9.743   7.603  -1.208  0.00  0.00    -0.155 OA
ENDBRANCH  23  26
ENDBRANCH  18  20
ENDBRANCH  10  18
TORSDOF 4
