REMARK  Name = ZINC63104838
REMARK  5 active torsions:
REMARK  status: ('A' for Active; 'I' for Inactive)
REMARK    1  A    between atoms: C_3  and  O_10
REMARK    2  A    between atoms: C_6  and  C_7
REMARK    3  A    between atoms: C_7  and  C_8
REMARK    4  A    between atoms: O_10  and  C_11
REMARK    5  A    between atoms: C_16  and  N_20
REMARK                            x       y       z     vdW  Elec       q    Type
REMARK                         _______ _______ _______ _____ _____    ______ ____
ROOT
ATOM      1  C   UNL     1       4.704   1.404   0.069  0.00  0.00    +0.263 A 
ATOM      2  N   UNL     1       4.881   0.105   0.071  0.00  0.00    -0.206 NA
ATOM      3  C   UNL     1       6.104  -0.462   0.167  0.00  0.00    +0.082 A 
ATOM      4  C   UNL     1       6.429  -1.838   0.181  0.00  0.00    +0.031 A 
ATOM      5  C   UNL     1       7.721  -2.251   0.285  0.00  0.00    +0.025 A 
ATOM      6  C   UNL     1       8.772  -1.341   0.382  0.00  0.00    +0.026 A 
ATOM      7  C   UNL     1       8.492   0.019   0.371  0.00  0.00    +0.040 A 
ATOM      8  C   UNL     1       7.189   0.438   0.266  0.00  0.00    +0.044 A 
ATOM      9  S   UNL     1       6.377   2.017   0.206  0.00  0.00    -0.029 S 
ENDROOT
BRANCH   6  10
ATOM     10  N   UNL     1      10.092  -1.793   0.489  0.00  0.00    -0.358 N 
ATOM     11  H   UNL     1      10.280  -2.744   0.496  0.00  0.00    +0.142 HD
ATOM     12  H   UNL     1      10.819  -1.154   0.556  0.00  0.00    +0.142 HD
ENDBRANCH   6  10
BRANCH   1  13
ATOM     13  O   UNL     1       3.549   2.103  -0.021  0.00  0.00    -0.433 OA
BRANCH  13  16
ATOM     14  C   UNL     1       1.198  -0.665   0.195  0.00  0.00    +0.008 A 
ATOM     15  C   UNL     1       2.387   0.038   0.196  0.00  0.00    +0.046 A 
ATOM     16  C   UNL     1       2.381   1.409  -0.022  0.00  0.00    +0.131 A 
ATOM     17  C   UNL     1       1.180   2.068  -0.240  0.00  0.00    +0.046 A 
ATOM     18  C   UNL     1      -0.006   1.360  -0.240  0.00  0.00    +0.008 A 
ATOM     19  C   UNL     1       0.003  -0.006  -0.023  0.00  0.00    -0.033 A 
BRANCH  19  20
ATOM     20  C   UNL     1      -1.292  -0.776  -0.023  0.00  0.00    +0.153 C 
BRANCH  20  21
ATOM     21  C   UNL     1      -1.843  -0.811   1.341  0.00  0.00    +0.067 C 
ATOM     22  N   UNL     1      -2.268  -0.838   2.395  0.00  0.00    -0.196 NA
ENDBRANCH  20  21
ENDBRANCH  19  20
ENDBRANCH  13  16
ENDBRANCH   1  13
TORSDOF 5
