REMARK  Name = ZINC13499391
REMARK  10 active torsions:
REMARK  status: ('A' for Active; 'I' for Inactive)
REMARK    1  A    between atoms: C_1  and  C_2
REMARK    2  A    between atoms: C_2  and  C_3
REMARK    3  A    between atoms: C_3  and  C_4
REMARK    4  A    between atoms: C_4  and  C_6
REMARK    5  A    between atoms: C_4  and  N_16
REMARK    6  A    between atoms: N_10  and  C_11
REMARK    7  A    between atoms: N_16  and  C_17
REMARK    8  A    between atoms: N_16  and  C_25
REMARK    9  A    between atoms: C_17  and  C_18
REMARK   10  A    between atoms: C_25  and  C_26
REMARK                            x       y       z     vdW  Elec       q    Type
REMARK                         _______ _______ _______ _____ _____    ______ ____
ROOT
ATOM      1  N   UNL     1      -0.829  -2.224   1.093  0.00  0.00    -0.284 NA
ENDROOT
BRANCH   1   2
ATOM      2  C   UNL     1      -1.564  -2.276  -0.178  0.00  0.00    +0.127 C 
BRANCH   2   3
ATOM      3  C   UNL     1      -1.730  -0.879  -0.719  0.00  0.00    +0.169 A 
ATOM      4  N   UNL     1      -0.799   0.039  -0.817  0.00  0.00    -0.112 NA
ATOM      5  N   UNL     1      -1.333   1.094  -1.327  0.00  0.00    -0.023 NA
ATOM      6  N   UNL     1      -2.580   0.874  -1.558  0.00  0.00    -0.044 NA
ATOM      7  N   UNL     1      -2.862  -0.334  -1.202  0.00  0.00    -0.225 N 
BRANCH   7   8
ATOM      8  C   UNL     1      -4.170  -0.987  -1.300  0.00  0.00    +0.111 C 
ATOM      9  C   UNL     1      -4.662  -0.967  -2.762  0.00  0.00    +0.027 C 
ATOM     10  C   UNL     1      -6.190  -0.742  -2.646  0.00  0.00    +0.002 C 
ATOM     11  C   UNL     1      -6.299   0.254  -1.465  0.00  0.00    +0.002 C 
ATOM     12  C   UNL     1      -5.211  -0.211  -0.475  0.00  0.00    +0.027 C 
ENDBRANCH   7   8
ENDBRANCH   2   3
BRANCH   2  13
ATOM     13  C   UNL     1      -0.782  -3.123  -1.185  0.00  0.00    +0.026 C 
BRANCH  13  15
ATOM     14  C   UNL     1      -0.007  -5.434  -1.731  0.00  0.00    +0.004 C 
ATOM     15  C   UNL     1      -0.679  -4.560  -0.670  0.00  0.00    -0.001 C 
ENDBRANCH  13  15
ENDBRANCH   2  13
ENDBRANCH   1   2
BRANCH   1  16
ATOM     16  C   UNL     1      -1.645  -1.608   2.148  0.00  0.00    +0.120 C 
BRANCH  16  17
ATOM     17  C   UNL     1      -2.680  -2.595   2.622  0.00  0.00    -0.033 A 
ATOM     18  C   UNL     1      -3.898  -2.683   1.974  0.00  0.00    +0.008 A 
ATOM     19  C   UNL     1      -4.848  -3.588   2.408  0.00  0.00    +0.038 A 
ATOM     20  C   UNL     1      -4.580  -4.406   3.492  0.00  0.00    +0.123 A 
ATOM     21  C   UNL     1      -3.361  -4.316   4.141  0.00  0.00    +0.038 A 
ATOM     22  C   UNL     1      -2.410  -3.415   3.702  0.00  0.00    +0.008 A 
ATOM     23  F   UNL     1      -5.509  -5.290   3.918  0.00  0.00    -0.205 F 
ENDBRANCH  16  17
ENDBRANCH   1  16
BRANCH   1  24
ATOM     24  C   UNL     1       0.448  -1.516   0.934  0.00  0.00    +0.126 C 
BRANCH  24  25
ATOM     25  C   UNL     1       1.348  -1.836   2.100  0.00  0.00    +0.031 A 
ATOM     26  C   UNL     1       2.238  -2.857   2.007  0.00  0.00    +0.020 A 
ATOM     27  C   UNL     1       3.097  -3.143   3.155  0.00  0.00    +0.003 A 
ATOM     28  C   UNL     1       4.032  -4.184   3.116  0.00  0.00    +0.059 A 
ATOM     29  C   UNL     1       4.830  -4.429   4.213  0.00  0.00    +0.163 A 
ATOM     30  C   UNL     1       4.710  -3.641   5.362  0.00  0.00    +0.164 A 
ATOM     31  C   UNL     1       3.787  -2.610   5.410  0.00  0.00    +0.075 A 
ATOM     32  C   UNL     1       2.975  -2.351   4.313  0.00  0.00    +0.053 A 
ATOM     33  N   UNL     1       2.050  -1.327   4.343  0.00  0.00    -0.322 N 
ATOM     34  H   UNL     1       1.965  -0.783   5.141  0.00  0.00    +0.169 HD
ATOM     35  C   UNL     1       1.267  -1.070   3.280  0.00  0.00    +0.254 A 
ATOM     36  O   UNL     1       0.465  -0.155   3.341  0.00  0.00    -0.268 OA
ATOM     37  O   UNL     1       5.499  -3.871   6.446  0.00  0.00    -0.485 OA
ATOM     38  C   UNL     1       6.153  -5.143   6.509  0.00  0.00    +0.270 C 
ATOM     39  C   UNL     1       6.779  -5.431   5.138  0.00  0.00    +0.270 C 
ATOM     40  O   UNL     1       5.733  -5.448   4.161  0.00  0.00    -0.485 OA
ENDBRANCH  24  25
ENDBRANCH   1  24
TORSDOF 9
