REMARK  Name = ZINC36024703
REMARK  13 active torsions:
REMARK  status: ('A' for Active; 'I' for Inactive)
REMARK    1  A    between atoms: C_1  and  C_2
REMARK    2  A    between atoms: C_2  and  O_3
REMARK    3  A    between atoms: O_3  and  C_4
REMARK    4  A    between atoms: C_4  and  C_6
REMARK    5  A    between atoms: C_7  and  C_24
REMARK    6  A    between atoms: N_8  and  C_21
REMARK    7  A    between atoms: C_12  and  C_14
REMARK    8  A    between atoms: C_21  and  C_22
REMARK    9  A    between atoms: C_24  and  N_25
REMARK   10  A    between atoms: C_29  and  C_32
REMARK   11  A    between atoms: N_35  and  C_36
REMARK   12  A    between atoms: C_36  and  C_37
REMARK   13  A    between atoms: C_36  and  C_38
REMARK                            x       y       z     vdW  Elec       q    Type
REMARK                         _______ _______ _______ _____ _____    ______ ____
ROOT
ATOM      1  C   UNL     1      -2.961  -2.179   0.566  0.00  0.00    +0.080 C 
ATOM      2  C   UNL     1      -3.071  -3.515   0.398  0.00  0.00    +0.041 C 
ATOM      3  N   UNL     1      -4.294  -4.114   0.298  0.00  0.00    -0.254 N 
ATOM      4  C   UNL     1      -5.454  -3.448   0.356  0.00  0.00    +0.307 C 
ATOM      5  O   UNL     1      -6.494  -4.070   0.257  0.00  0.00    -0.252 OA
ATOM      6  N   UNL     1      -5.507  -2.112   0.520  0.00  0.00    -0.288 N 
ATOM      7  C   UNL     1      -4.240  -1.371   0.645  0.00  0.00    +0.145 C 
ATOM      8  H   UNL     1      -6.359  -1.649   0.559  0.00  0.00    +0.151 HD
ENDROOT
BRANCH   7   9
ATOM      9  C   UNL     1      -4.250  -0.644   1.965  0.00  0.00    -0.004 A 
ATOM     10  C   UNL     1      -4.832  -1.231   3.073  0.00  0.00    +0.007 A 
ATOM     11  C   UNL     1      -4.841  -0.565   4.284  0.00  0.00    +0.000 A 
ATOM     12  C   UNL     1      -4.268   0.689   4.388  0.00  0.00    +0.001 A 
ATOM     13  C   UNL     1      -3.685   1.276   3.282  0.00  0.00    +0.020 A 
ATOM     14  C   UNL     1      -3.671   0.608   2.070  0.00  0.00    +0.046 A 
ATOM     15 CL   UNL     1      -2.933   1.342   0.681  0.00  0.00    -0.083 Cl
ENDBRANCH   7   9
BRANCH   1  16
ATOM     16  C   UNL     1      -1.695  -1.557   0.670  0.00  0.00    +0.339 C 
ATOM     17  O   UNL     1      -1.289  -1.182   1.754  0.00  0.00    -0.245 OA
BRANCH  16  18
ATOM     18  O   UNL     1      -0.938  -1.379  -0.432  0.00  0.00    -0.462 OA
BRANCH  18  20
ATOM     19  C   UNL     1       1.038  -0.630  -1.605  0.00  0.00    +0.048 C 
ATOM     20  C   UNL     1       0.329  -0.744  -0.253  0.00  0.00    +0.229 C 
ENDBRANCH  18  20
ENDBRANCH  16  18
ENDBRANCH   1  16
BRANCH   3  21
ATOM     21  C   UNL     1      -4.339  -5.567   0.117  0.00  0.00    +0.141 C 
BRANCH  21  22
ATOM     22  C   UNL     1      -4.384  -6.240   1.465  0.00  0.00    -0.015 C 
ATOM     23  C   UNL     1      -5.347  -7.084   1.744  0.00  0.00    +0.005 C 
ENDBRANCH  21  22
ENDBRANCH   3  21
BRANCH   2  24
ATOM     24  C   UNL     1      -1.824  -4.357   0.320  0.00  0.00    +0.136 C 
BRANCH  24  25
ATOM     25  N   UNL     1      -1.744  -5.224   1.502  0.00  0.00    -0.294 NA
ATOM     26  C   UNL     1      -1.562  -4.431   2.725  0.00  0.00    +0.104 C 
ATOM     27  C   UNL     1      -1.664  -5.351   3.947  0.00  0.00    +0.125 C 
ATOM     28  N   UNL     1      -0.713  -6.460   3.777  0.00  0.00    -0.280 N 
ATOM     29  C   UNL     1      -0.743  -7.216   2.516  0.00  0.00    +0.088 C 
ATOM     30  C   UNL     1      -0.677  -6.223   1.351  0.00  0.00    +0.107 C 
ATOM     31  C   UNL     1       0.456  -8.165   2.457  0.00  0.00    +0.029 C 
ATOM     32  C   UNL     1       0.163  -6.775   4.752  0.00  0.00    +0.303 C 
ATOM     33  O   UNL     1       0.875  -7.754   4.637  0.00  0.00    -0.253 OA
ATOM     34  N   UNL     1       0.248  -6.006   5.856  0.00  0.00    -0.297 N 
ATOM     35  H   UNL     1      -0.369  -5.269   5.982  0.00  0.00    +0.150 HD
BRANCH  34  36
ATOM     36  C   UNL     1       1.275  -6.282   6.864  0.00  0.00    +0.068 C 
ATOM     37  C   UNL     1       1.585  -5.002   7.641  0.00  0.00    +0.027 C 
ATOM     38  C   UNL     1       0.766  -7.354   7.829  0.00  0.00    +0.027 C 
ENDBRANCH  34  36
ENDBRANCH  24  25
ENDBRANCH   2  24
TORSDOF 9
