REMARK  Name = ZINC14458142
REMARK  11 active torsions:
REMARK  status: ('A' for Active; 'I' for Inactive)
REMARK    1  A    between atoms: C_1  and  C_2
REMARK    2  A    between atoms: C_2  and  C_3
REMARK    3  A    between atoms: C_3  and  N_4
REMARK    4  A    between atoms: N_4  and  C_5
REMARK    5  A    between atoms: C_5  and  C_6
REMARK    6  A    between atoms: C_6  and  C_7
REMARK    7  A    between atoms: C_8  and  C_10
REMARK    8  A    between atoms: C_23  and  C_26
REMARK    9  A    between atoms: C_27  and  C_34
REMARK   10  A    between atoms: C_29  and  C_33
REMARK   11  A    between atoms: C_31  and  C_32
REMARK                            x       y       z     vdW  Elec       q    Type
REMARK                         _______ _______ _______ _____ _____    ______ ____
ROOT
ATOM      1  C   UNL     1      -7.795   3.172   0.272  0.00  0.00    +0.037 A 
ATOM      2  C   UNL     1      -6.978   2.857   1.362  0.00  0.00    +0.015 A 
ATOM      3  C   UNL     1      -5.628   2.678   1.180  0.00  0.00    +0.024 A 
ATOM      4  C   UNL     1      -5.061   2.807  -0.086  0.00  0.00    +0.031 A 
ATOM      5  C   UNL     1      -5.879   3.136  -1.177  0.00  0.00    -0.019 A 
ATOM      6  C   UNL     1      -7.230   3.310  -0.999  0.00  0.00    +0.019 A 
ATOM      7  C   UNL     1      -5.229   3.283  -2.498  0.00  0.00    +0.049 C 
ATOM      8  C   UNL     1      -5.969   3.064  -3.767  0.00  0.00    -0.023 C 
ATOM      9  C   UNL     1      -5.122   2.599  -4.677  0.00  0.00    -0.030 C 
ATOM     10  C   UNL     1      -3.730   2.437  -4.061  0.00  0.00    +0.033 C 
ATOM     11  C   UNL     1      -4.070   2.245  -2.577  0.00  0.00    +0.029 C 
ATOM     12  C   UNL     1      -3.040   2.711  -1.564  0.00  0.00    +0.105 C 
ATOM     13  N   UNL     1      -3.692   2.586  -0.242  0.00  0.00    -0.336 N 
ATOM     14  H   UNL     1      -3.157   2.344   0.530  0.00  0.00    +0.147 HD
ENDROOT
BRANCH  12  15
ATOM     15  C   UNL     1      -1.816   1.835  -1.625  0.00  0.00    -0.021 A 
ATOM     16  C   UNL     1      -0.648   2.318  -2.186  0.00  0.00    -0.045 A 
ATOM     17  C   UNL     1       0.474   1.513  -2.246  0.00  0.00    +0.007 A 
ATOM     18  C   UNL     1       0.431   0.229  -1.738  0.00  0.00    -0.050 A 
ATOM     19  C   UNL     1      -0.735  -0.253  -1.174  0.00  0.00    +0.007 A 
ATOM     20  C   UNL     1      -1.859   0.550  -1.118  0.00  0.00    -0.045 A 
ATOM     21  C   UNL     1      -3.131   0.025  -0.503  0.00  0.00    +0.044 C 
ATOM     22  C   UNL     1       1.656  -0.647  -1.798  0.00  0.00    +0.044 C 
ATOM     23  C   UNL     1      -0.599   3.721  -2.734  0.00  0.00    +0.044 C 
ENDBRANCH  12  15
BRANCH   1  25
ATOM     24  N   UNL     1      -9.921   2.561   1.314  0.00  0.00    -0.298 N 
ATOM     25  C   UNL     1      -9.246   3.357   0.461  0.00  0.00    +0.247 C 
ATOM     26  O   UNL     1      -9.833   4.228  -0.151  0.00  0.00    -0.270 OA
BRANCH  24  27
ATOM     27  C   UNL     1      -9.229   1.464   1.995  0.00  0.00    +0.108 C 
BRANCH  27  29
ATOM     28  C   UNL     1      -8.176   0.745   4.144  0.00  0.00    +0.005 C 
ATOM     29  C   UNL     1      -9.000   1.838   3.461  0.00  0.00    +0.016 C 
ENDBRANCH  27  29
ENDBRANCH  24  27
BRANCH  24  30
ATOM     30  C   UNL     1     -11.347   2.792   1.559  0.00  0.00    +0.108 C 
BRANCH  30  31
ATOM     31  C   UNL     1     -12.174   1.987   0.554  0.00  0.00    +0.016 C 
ATOM     32  C   UNL     1     -13.663   2.228   0.810  0.00  0.00    +0.005 C 
ENDBRANCH  30  31
ENDBRANCH  24  30
ENDBRANCH   1  25
TORSDOF 6
