REMARK  Name = ZINC44320713
REMARK  9 active torsions:
REMARK  status: ('A' for Active; 'I' for Inactive)
REMARK    1  A    between atoms: C_1  and  N_2
REMARK    2  A    between atoms: C_4  and  C_13
REMARK    3  A    between atoms: C_5  and  C_7
REMARK    4  A    between atoms: C_13  and  CA_14
REMARK    5  A    between atoms: CA_14  and  C_16
REMARK    6  A    between atoms: CA_14  and  N_19
REMARK    7  A    between atoms: C_20  and  O_22
REMARK    8  A    between atoms: O_22  and  C_23
REMARK    9  A    between atoms: C_23  and  C_24
REMARK                            x       y       z     vdW  Elec       q    Type
REMARK                         _______ _______ _______ _____ _____    ______ ____
ROOT
ATOM      1  N   UNL     1       2.666  -2.168  -2.394  0.00  0.00    -0.267 N 
ATOM      2  C   UNL     1       3.941  -1.772  -2.210  0.00  0.00    +0.401 C 
ATOM      3  O   UNL     1       4.665  -2.388  -1.452  0.00  0.00    -0.226 OA
ATOM      4  H   UNL     1       2.088  -1.676  -2.998  0.00  0.00    +0.153 HD
ENDROOT
BRANCH   1   5
ATOM      5  CA  UNL     1       2.152  -3.340  -1.681  0.00  0.00    +0.194 C 
BRANCH   5   6
ATOM      6  C   UNL     1       2.499  -4.588  -2.451  0.00  0.00    +0.376 C 
ATOM      7  O   UNL     1       2.952  -4.502  -3.580  0.00  0.00    -0.244 OA
ATOM      8  OXT UNL     1       2.326  -5.684  -1.946  0.00  0.00    -0.244 OA
ENDBRANCH   5   6
BRANCH   5   9
ATOM      9  C   UNL     1       0.632  -3.230  -1.545  0.00  0.00    +0.074 C 
BRANCH   9  13
ATOM     10  C   UNL     1      -0.642   1.375  -0.026  0.00  0.00    +0.174 C 
ATOM     11  N   UNL     1      -0.266  -0.041  -0.013  0.00  0.00    -0.255 N 
ATOM     12  C   UNL     1      -0.026  -0.807  -1.100  0.00  0.00    +0.131 A 
ATOM     13  C   UNL     1       0.290  -2.050  -0.672  0.00  0.00    +0.019 A 
ATOM     14  C   UNL     1       0.242  -2.047   0.736  0.00  0.00    +0.097 A 
ATOM     15  N   UNL     1      -0.088  -0.834   1.127  0.00  0.00    -0.170 NA
ATOM     16 CL   UNL     1      -0.110  -0.288  -2.754  0.00  0.00    -0.062 Cl
BRANCH  14  17
ATOM     17  C   UNL     1       0.521  -3.205   1.622  0.00  0.00    +0.002 A 
ATOM     18  C   UNL     1       1.289  -3.036   2.772  0.00  0.00    +0.010 A 
ATOM     19  C   UNL     1       1.545  -4.116   3.592  0.00  0.00    +0.001 A 
ATOM     20  C   UNL     1       1.041  -5.364   3.274  0.00  0.00    +0.000 A 
ATOM     21  C   UNL     1       0.278  -5.537   2.133  0.00  0.00    +0.001 A 
ATOM     22  C   UNL     1       0.011  -4.463   1.309  0.00  0.00    +0.010 A 
ENDBRANCH  14  17
ENDBRANCH   9  13
ENDBRANCH   5   9
ENDBRANCH   1   5
BRANCH   2  23
ATOM     23  O   UNL     1       4.412  -0.695  -2.865  0.00  0.00    -0.449 OA
BRANCH  23  24
ATOM     24  C   UNL     1       5.773  -0.332  -2.622  0.00  0.00    +0.246 C 
BRANCH  24  25
ATOM     25  C   UNL     1       6.126   0.907  -3.449  0.00  0.00    +0.088 C 
ATOM     26  C   UNL     1       6.145   0.563  -4.918  0.00  0.00    -0.029 A 
ATOM     27  C   UNL     1       5.170   0.088  -5.770  0.00  0.00    +0.005 A 
ATOM     28  C   UNL     1       5.468  -0.145  -7.101  0.00  0.00    +0.000 A 
ATOM     29  C   UNL     1       6.743   0.098  -7.580  0.00  0.00    +0.001 A 
ATOM     30  C   UNL     1       7.724   0.572  -6.734  0.00  0.00    +0.009 A 
ATOM     31  C   UNL     1       7.431   0.810  -5.390  0.00  0.00    -0.014 A 
ATOM     32  C   UNL     1       8.278   1.310  -4.279  0.00  0.00    -0.014 A 
ATOM     33  C   UNL     1       7.520   1.376  -3.112  0.00  0.00    -0.029 A 
ATOM     34  C   UNL     1       8.091   1.814  -1.936  0.00  0.00    +0.005 A 
ATOM     35  C   UNL     1       9.422   2.191  -1.911  0.00  0.00    +0.000 A 
ATOM     36  C   UNL     1      10.182   2.130  -3.064  0.00  0.00    +0.001 A 
ATOM     37  C   UNL     1       9.620   1.692  -4.245  0.00  0.00    +0.009 A 
ENDBRANCH  24  25
ENDBRANCH  23  24
ENDBRANCH   2  23
TORSDOF 8
