REMARK  Name = ZINC41586556
REMARK  9 active torsions:
REMARK  status: ('A' for Active; 'I' for Inactive)
REMARK    1  A    between atoms: C_1  and  C_2
REMARK    2  A    between atoms: C_2  and  O_3
REMARK    3  A    between atoms: O_3  and  C_4
REMARK    4  A    between atoms: C_4  and  C_6
REMARK    5  A    between atoms: N_11  and  C_13
REMARK    6  A    between atoms: C_13  and  C_14
REMARK    7  A    between atoms: C_15  and  O_31
REMARK    8  A    between atoms: C_22  and  C_23
REMARK    9  A    between atoms: C_23  and  C_24
REMARK                            x       y       z     vdW  Elec       q    Type
REMARK                         _______ _______ _______ _____ _____    ______ ____
ROOT
ATOM      1  C   UNL     1       3.057  -6.502   4.600  0.00  0.00    +0.023 A 
ATOM      2  C   UNL     1       4.421  -6.675   4.443  0.00  0.00    +0.122 A 
ATOM      3  C   UNL     1       5.191  -7.200   5.478  0.00  0.00    +0.046 A 
ATOM      4  C   UNL     1       4.611  -7.550   6.663  0.00  0.00    +0.017 A 
ATOM      5  C   UNL     1       3.235  -7.381   6.840  0.00  0.00    +0.045 A 
ATOM      6  C   UNL     1       2.453  -6.848   5.801  0.00  0.00    +0.172 A 
ATOM      7  O   UNL     1       1.182  -6.793   6.248  0.00  0.00    -0.354 OA
ATOM      8  N   UNL     1       1.132  -7.283   7.573  0.00  0.00    -0.082 NA
ATOM      9  C   UNL     1       2.319  -7.646   7.952  0.00  0.00    +0.096 A 
ENDROOT
BRANCH   2  10
ATOM     10  O   UNL     1       5.013  -6.332   3.269  0.00  0.00    -0.506 OA
ATOM     11  H   UNL     1       5.324  -5.417   3.239  0.00  0.00    +0.292 HD
ENDBRANCH   2  10
BRANCH   1  12
ATOM     12  C   UNL     1       2.232  -5.933   3.475  0.00  0.00    -0.035 C 
BRANCH  12  17
ATOM     13  C   UNL     1       1.516  -2.381   2.500  0.00  0.00    +0.081 C 
ATOM     14  C   UNL     1       0.812  -1.927   3.782  0.00  0.00    +0.011 C 
ATOM     15  C   UNL     1       1.499  -2.578   4.987  0.00  0.00    -0.018 C 
ATOM     16  C   UNL     1       1.477  -4.098   4.820  0.00  0.00    -0.078 C 
ATOM     17  N   UNL     1       2.188  -4.470   3.591  0.00  0.00    +0.383 N 
ATOM     18  C   UNL     1       1.495  -3.909   2.425  0.00  0.00    -0.064 C 
ATOM     19  H   UNL     1       3.130  -4.109   3.626  0.00  0.00    -0.081 HD
BRANCH  13  20
ATOM     20  C   UNL     1       0.801  -1.808   1.304  0.00  0.00    +0.308 C 
ATOM     21  O   UNL     1       0.324  -2.546   0.475  0.00  0.00    -0.251 OA
BRANCH  20  22
ATOM     22  O   UNL     1       0.693  -0.477   1.160  0.00  0.00    -0.465 OA
BRANCH  22  24
ATOM     23  C   UNL     1      -0.019   1.526   0.010  0.00  0.00    +0.048 C 
ATOM     24  C   UNL     1       0.002  -0.004   0.002  0.00  0.00    +0.229 C 
ENDBRANCH  22  24
ENDBRANCH  20  22
ENDBRANCH  13  20
ENDBRANCH  12  17
ENDBRANCH   1  12
BRANCH   9  25
ATOM     25  C   UNL     1       2.689  -8.220   9.296  0.00  0.00    +0.094 C 
BRANCH  25  26
ATOM     26  C   UNL     1       3.038  -7.099  10.242  0.00  0.00    -0.041 A 
ATOM     27  C   UNL     1       4.341  -6.648  10.327  0.00  0.00    +0.005 A 
ATOM     28  C   UNL     1       4.661  -5.620  11.194  0.00  0.00    +0.020 A 
ATOM     29  C   UNL     1       3.677  -5.044  11.977  0.00  0.00    +0.041 A 
ATOM     30  C   UNL     1       2.372  -5.496  11.891  0.00  0.00    +0.020 A 
ATOM     31  C   UNL     1       2.052  -6.520  11.019  0.00  0.00    +0.005 A 
ATOM     32 CL   UNL     1       4.078  -3.753  13.067  0.00  0.00    -0.084 Cl
ENDBRANCH  25  26
ENDBRANCH   9  25
TORSDOF 8
