REMARK  Name = ZINC66406834
REMARK  8 active torsions:
REMARK  status: ('A' for Active; 'I' for Inactive)
REMARK    1  A    between atoms: C_1  and  C_2
REMARK    2  A    between atoms: C_3  and  C_7
REMARK    3  A    between atoms: C_7  and  N_8
REMARK    4  A    between atoms: N_8  and  C_9
REMARK    5  A    between atoms: C_10  and  C_12
REMARK    6  A    between atoms: C_12  and  C_13
REMARK    7  A    between atoms: C_13  and  C_14
REMARK    8  A    between atoms: C_14  and  C_16
REMARK                            x       y       z     vdW  Elec       q    Type
REMARK                         _______ _______ _______ _____ _____    ______ ____
ROOT
ATOM      1  C   UNL     1       5.282   2.943  -3.540  0.00  0.00    +0.164 C 
ATOM      2  O   UNL     1       5.864   2.025  -4.078  0.00  0.00    -0.292 OA
ENDROOT
BRANCH   1   3
ATOM      3  C   UNL     1       5.959   4.237  -3.359  0.00  0.00    +0.018 A 
ATOM      4  C   UNL     1       5.291   5.296  -2.733  0.00  0.00    +0.011 A 
ATOM      5  C   UNL     1       5.928   6.508  -2.564  0.00  0.00    +0.005 A 
ATOM      6  C   UNL     1       7.224   6.682  -3.010  0.00  0.00    -0.035 A 
ATOM      7  C   UNL     1       7.905   5.638  -3.635  0.00  0.00    -0.013 A 
ATOM      8  C   UNL     1       7.271   4.409  -3.804  0.00  0.00    +0.020 A 
ATOM      9  C   UNL     1       9.267   6.092  -4.010  0.00  0.00    -0.014 A 
ATOM     10  C   UNL     1      10.314   5.425  -4.649  0.00  0.00    +0.009 A 
ATOM     11  C   UNL     1      11.504   6.081  -4.888  0.00  0.00    +0.001 A 
ATOM     12  C   UNL     1      11.665   7.398  -4.497  0.00  0.00    +0.000 A 
ATOM     13  C   UNL     1      10.632   8.065  -3.863  0.00  0.00    +0.004 A 
ATOM     14  C   UNL     1       9.438   7.417  -3.620  0.00  0.00    -0.035 A 
ATOM     15  C   UNL     1       8.156   7.868  -2.965  0.00  0.00    +0.071 C 
ENDBRANCH   1   3
BRANCH   1  16
ATOM     16  C   UNL     1       3.866   2.759  -3.058  0.00  0.00    +0.089 C 
BRANCH  16  17
ATOM     17  C   UNL     1       3.404   1.334  -3.367  0.00  0.00    +0.104 C 
BRANCH  17  20
ATOM     18  N   UNL     1       1.368  -0.036  -3.052  0.00  0.00    -0.300 N 
ATOM     19  C   UNL     1       2.071  -1.145  -3.701  0.00  0.00    +0.132 C 
ATOM     20  C   UNL     1       1.988   1.150  -2.885  0.00  0.00    +0.216 C 
ATOM     21  O   UNL     1       1.406   2.068  -2.348  0.00  0.00    -0.276 OA
BRANCH  18  22
ATOM     22  C   UNL     1      -0.008  -0.215  -2.583  0.00  0.00    +0.151 C 
BRANCH  22  25
ATOM     23  C   UNL     1      -0.018   1.503   0.010  0.00  0.00    +0.066 C 
ATOM     24  C   UNL     1       0.002  -0.004   0.002  0.00  0.00    +0.050 A 
ATOM     25  C   UNL     1       0.006  -0.708  -1.159  0.00  0.00    +0.029 A 
ATOM     26  S   UNL     1       0.032  -2.379  -0.531  0.00  0.00    -0.079 S 
ATOM     27  C   UNL     1       0.036  -2.009   1.111  0.00  0.00    +0.156 A 
ATOM     28  N   UNL     1       0.023  -0.699   1.122  0.00  0.00    -0.252 NA
ENDBRANCH  22  25
ENDBRANCH  18  22
ENDBRANCH  17  20
ENDBRANCH  16  17
ENDBRANCH   1  16
TORSDOF 6
