REMARK  Name = ZINC09263219
REMARK  5 active torsions:
REMARK  status: ('A' for Active; 'I' for Inactive)
REMARK    1  A    between atoms: C_1  and  C_2
REMARK    2  A    between atoms: C_7  and  N_8
REMARK    3  A    between atoms: C_12  and  C_13
REMARK    4  A    between atoms: N_17  and  C_18
REMARK    5  A    between atoms: C_21  and  O_24
REMARK                            x       y       z     vdW  Elec       q    Type
REMARK                         _______ _______ _______ _____ _____    ______ ____
ROOT
ATOM      1  N   UNL     1      -0.565   4.121   1.549  0.00  0.00    -0.217 N 
ATOM      2  C   UNL     1      -1.465   3.139   1.336  0.00  0.00    +0.262 C 
ATOM      3  O   UNL     1      -1.227   2.230   0.562  0.00  0.00    -0.269 OA
ATOM      4  C   UNL     1      -2.746   3.200   2.060  0.00  0.00    +0.101 C 
ATOM      5  C   UNL     1      -3.724   2.226   1.888  0.00  0.00    +0.044 C 
ATOM      6  C   UNL     1      -2.944   4.334   2.980  0.00  0.00    +0.255 C 
ATOM      7  O   UNL     1      -3.974   4.449   3.617  0.00  0.00    -0.270 OA
ATOM      8  N   UNL     1      -1.952   5.240   3.097  0.00  0.00    -0.263 N 
ATOM      9  C   UNL     1      -0.812   5.125   2.402  0.00  0.00    +0.150 C 
ATOM     10  S   UNL     1       0.392   6.324   2.614  0.00  0.00    -0.018 S 
ATOM     11  H   UNL     1      -2.067   5.993   3.698  0.00  0.00    +0.157 HD
ENDROOT
BRANCH   1  18
ATOM     12  C   UNL     1      -0.311   5.652  -0.837  0.00  0.00    +0.045 C 
ATOM     13  C   UNL     1       0.825   4.819  -0.300  0.00  0.00    -0.029 A 
ATOM     14  C   UNL     1       2.034   4.788  -0.967  0.00  0.00    +0.005 A 
ATOM     15  C   UNL     1       3.075   4.020  -0.479  0.00  0.00    +0.000 A 
ATOM     16  C   UNL     1       2.911   3.285   0.681  0.00  0.00    +0.002 A 
ATOM     17  C   UNL     1       1.706   3.317   1.355  0.00  0.00    +0.024 A 
ATOM     18  C   UNL     1       0.659   4.087   0.867  0.00  0.00    +0.046 A 
ENDBRANCH   1  18
BRANCH   5  19
ATOM     19  C   UNL     1      -3.562   1.235   0.907  0.00  0.00    +0.047 A 
ATOM     20  C   UNL     1      -3.441  -0.133   1.129  0.00  0.00    +0.027 A 
ATOM     21  C   UNL     1      -3.300  -0.738  -0.118  0.00  0.00    +0.020 A 
ATOM     22  C   UNL     1      -3.340   0.235  -1.066  0.00  0.00    +0.092 A 
ATOM     23  N   UNL     1      -3.494   1.438  -0.458  0.00  0.00    -0.316 N 
BRANCH  23  24
ATOM     24  C   UNL     1      -3.575   2.678  -1.107  0.00  0.00    +0.047 A 
ATOM     25  C   UNL     1      -2.607   3.042  -2.034  0.00  0.00    +0.030 A 
ATOM     26  C   UNL     1      -2.691   4.261  -2.676  0.00  0.00    +0.047 A 
ATOM     27  C   UNL     1      -3.739   5.125  -2.392  0.00  0.00    +0.117 A 
ATOM     28  C   UNL     1      -4.704   4.764  -1.462  0.00  0.00    +0.047 A 
ATOM     29  C   UNL     1      -4.621   3.545  -0.819  0.00  0.00    +0.030 A 
BRANCH  27  30
ATOM     30  O   UNL     1      -3.821   6.325  -3.024  0.00  0.00    -0.507 OA
ATOM     31  H   UNL     1      -4.259   6.287  -3.886  0.00  0.00    +0.292 HD
ENDBRANCH  27  30
ENDBRANCH  23  24
ENDBRANCH   5  19
TORSDOF 4
