REMARK  Name = ZINC16474381
REMARK  6 active torsions:
REMARK  status: ('A' for Active; 'I' for Inactive)
REMARK    1  A    between atoms: C_1  and  C_2
REMARK    2  A    between atoms: C_7  and  N_12
REMARK    3  A    between atoms: C_9  and  C_11
REMARK    4  A    between atoms: C_13  and  C_15
REMARK    5  A    between atoms: C_15  and  N_16
REMARK    6  A    between atoms: N_19  and  C_22
REMARK                            x       y       z     vdW  Elec       q    Type
REMARK                         _______ _______ _______ _____ _____    ______ ____
ROOT
ATOM      1  C   UNL     1       2.785  -4.239   3.627  0.00  0.00    +0.180 C 
ENDROOT
BRANCH   1   2
ATOM      2  N   UNL     1       3.330  -5.577   3.359  0.00  0.00    -0.291 NA
ATOM      3  C   UNL     1       2.251  -6.555   3.163  0.00  0.00    +0.104 C 
ATOM      4  C   UNL     1       2.852  -7.890   2.710  0.00  0.00    +0.120 C 
ATOM      5  N   UNL     1       3.885  -8.289   3.678  0.00  0.00    -0.325 N 
ATOM      6  C   UNL     1       4.925  -7.310   4.030  0.00  0.00    +0.120 C 
ATOM      7  C   UNL     1       4.242  -5.998   4.431  0.00  0.00    +0.104 C 
BRANCH   5   8
ATOM      8  C   UNL     1       3.879  -9.566   4.248  0.00  0.00    +0.065 A 
ATOM      9  C   UNL     1       4.567 -10.605   3.635  0.00  0.00    +0.026 A 
ATOM     10  C   UNL     1       4.560 -11.865   4.200  0.00  0.00    +0.002 A 
ATOM     11  C   UNL     1       3.869 -12.095   5.375  0.00  0.00    +0.003 A 
ATOM     12  C   UNL     1       3.182 -11.063   5.990  0.00  0.00    +0.040 A 
ATOM     13  C   UNL     1       3.189  -9.798   5.433  0.00  0.00    +0.144 A 
ATOM     14  F   UNL     1       2.523  -8.789   6.036  0.00  0.00    -0.204 F 
ENDBRANCH   5   8
ENDBRANCH   1   2
BRANCH   1  16
ATOM     15  N   UNL     1       1.471  -2.526   2.420  0.00  0.00    -0.311 N 
ATOM     16  C   UNL     1       2.056  -3.740   2.406  0.00  0.00    +0.227 C 
ATOM     17  O   UNL     1       1.996  -4.431   1.411  0.00  0.00    -0.274 OA
ATOM     18  H   UNL     1       1.520  -1.974   3.216  0.00  0.00    +0.149 HD
BRANCH  15  24
ATOM     19  C   UNL     1      -0.019   1.526   0.010  0.00  0.00    +0.008 C 
ATOM     20  C   UNL     1       0.002  -0.004   0.002  0.00  0.00    -0.009 C 
ATOM     21  C   UNL     1      -1.433  -0.534   0.013  0.00  0.00    +0.003 C 
ATOM     22  C   UNL     1      -1.413  -2.063   0.004  0.00  0.00    +0.002 C 
ATOM     23  C   UNL     1      -0.673  -2.570   1.244  0.00  0.00    +0.022 C 
ATOM     24  C   UNL     1       0.763  -2.041   1.233  0.00  0.00    +0.076 C 
ATOM     25  C   UNL     1       0.742  -0.511   1.242  0.00  0.00    +0.009 C 
ATOM     26  C   UNL     1       0.026  -0.018   2.500  0.00  0.00    +0.009 C 
ENDBRANCH  15  24
ENDBRANCH   1  16
TORSDOF 4
