REMARK  Name = ZINC09541944
REMARK  7 active torsions:
REMARK  status: ('A' for Active; 'I' for Inactive)
REMARK    1  A    between atoms: C_1  and  O_2
REMARK    2  A    between atoms: O_2  and  C_3
REMARK    3  A    between atoms: C_3  and  C_5
REMARK    4  A    between atoms: C_8  and  C_11
REMARK    5  A    between atoms: C_13  and  C_25
REMARK    6  A    between atoms: C_16  and  C_18
REMARK    7  A    between atoms: C_30  and  O_31
REMARK                            x       y       z     vdW  Elec       q    Type
REMARK                         _______ _______ _______ _____ _____    ______ ____
ROOT
ATOM      1  C   UNL     1      -0.113   0.970  -2.399  0.00  0.00    +0.081 C 
ATOM      2  C   UNL     1      -0.013   1.086   0.008  0.00  0.00    -0.028 C 
ATOM      3  C   UNL     1       1.422   1.622  -0.003  0.00  0.00    +0.044 C 
ATOM      4  C   UNL     1       2.030   1.401  -1.360  0.00  0.00    +0.040 C 
ATOM      5  N   UNL     1       1.337   1.121  -2.399  0.00  0.00    -0.299 NA
ATOM      6  N   UNL     1      -0.701   1.583  -1.199  0.00  0.00    +0.401 N 
ATOM      7  H   UNL     1      -1.698   1.341  -1.147  0.00  0.00    -0.081 HD
ATOM      8  H   UNL     1      -0.599   2.604  -1.253  0.00  0.00    -0.081 HD
ENDROOT
BRANCH   4   9
ATOM      9  C   UNL     1       3.495   1.514  -1.501  0.00  0.00    -0.003 A 
ATOM     10  C   UNL     1       4.097   1.315  -2.746  0.00  0.00    +0.010 A 
ATOM     11  C   UNL     1       5.466   1.422  -2.871  0.00  0.00    +0.002 A 
ATOM     12  C   UNL     1       6.244   1.725  -1.768  0.00  0.00    +0.015 A 
ATOM     13  C   UNL     1       5.654   1.923  -0.531  0.00  0.00    +0.018 A 
ATOM     14  C   UNL     1       4.284   1.824  -0.393  0.00  0.00    +0.025 A 
ATOM     15 BR   UNL     1       6.727   2.337   0.970  0.00  0.00    -0.050 Br
ENDBRANCH   4   9
BRANCH   1  19
ATOM     16  C   UNL     1      -1.726   2.871  -5.873  0.00  0.00    +0.059 A 
ATOM     17  C   UNL     1      -0.444   2.320  -5.907  0.00  0.00    +0.015 A 
ATOM     18  C   UNL     1       0.071   1.708  -4.783  0.00  0.00    +0.004 A 
ATOM     19  C   UNL     1      -0.681   1.640  -3.623  0.00  0.00    -0.040 A 
ATOM     20  C   UNL     1      -1.955   2.180  -3.584  0.00  0.00    +0.004 A 
ATOM     21  C   UNL     1      -2.479   2.800  -4.699  0.00  0.00    +0.015 A 
BRANCH  16  22
ATOM     22  C   UNL     1      -2.284   3.527  -7.074  0.00  0.00    +0.339 C 
ATOM     23  O   UNL     1      -1.627   3.587  -8.093  0.00  0.00    -0.245 OA
BRANCH  22  25
ATOM     24  C   UNL     1      -4.005   4.687  -8.254  0.00  0.00    +0.280 C 
ATOM     25  O   UNL     1      -3.522   4.058  -7.037  0.00  0.00    -0.464 OA
ENDBRANCH  22  25
ENDBRANCH  16  22
ENDBRANCH   1  19
BRANCH   2  26
ATOM     26  C   UNL     1      -0.730   1.578   1.238  0.00  0.00    -0.019 A 
ATOM     27  C   UNL     1      -1.582   2.663   1.155  0.00  0.00    +0.005 A 
ATOM     28  C   UNL     1      -2.240   3.114   2.284  0.00  0.00    +0.000 A 
ATOM     29  C   UNL     1      -2.049   2.482   3.498  0.00  0.00    +0.004 A 
ATOM     30  C   UNL     1      -1.200   1.396   3.587  0.00  0.00    +0.045 A 
ATOM     31  C   UNL     1      -0.541   0.938   2.455  0.00  0.00    +0.118 A 
BRANCH  31  32
ATOM     32  O   UNL     1       0.292  -0.133   2.538  0.00  0.00    -0.507 OA
ATOM     33  H   UNL     1       1.209   0.097   2.741  0.00  0.00    +0.292 HD
ENDBRANCH  31  32
ENDBRANCH   2  26
TORSDOF 6
