REMARK  Name = ZINC64213575
REMARK  4 active torsions:
REMARK  status: ('A' for Active; 'I' for Inactive)
REMARK    1  A    between atoms: C_8  and  C_10
REMARK    2  A    between atoms: C_17  and  C_19
REMARK    3  A    between atoms: C_19  and  C_20
REMARK    4  A    between atoms: C_20  and  C_21
REMARK                            x       y       z     vdW  Elec       q    Type
REMARK                         _______ _______ _______ _____ _____    ______ ____
ROOT
ATOM      1  C   UNL     1       3.078  -3.972  -0.050  0.00  0.00    +0.062 C 
ATOM      2  C   UNL     1       3.925  -4.274   1.189  0.00  0.00    +0.013 C 
ATOM      3  C   UNL     1       4.313  -5.754   1.195  0.00  0.00    +0.020 C 
ATOM      4  C   UNL     1       5.150  -6.063  -0.050  0.00  0.00    +0.108 C 
ATOM      5  N   UNL     1       4.401  -5.641  -1.241  0.00  0.00    -0.301 N 
ATOM      6  C   UNL     1       3.901  -4.261  -1.309  0.00  0.00    +0.118 C 
ATOM      7  C   UNL     1       4.176  -6.503  -2.252  0.00  0.00    +0.216 C 
ATOM      8  O   UNL     1       3.555  -6.142  -3.230  0.00  0.00    -0.276 OA
ENDROOT
BRANCH   1  16
ATOM      9  C   UNL     1      -0.016   1.357   0.009  0.00  0.00    +0.002 A 
ATOM     10  C   UNL     1       1.156   2.100   0.002  0.00  0.00    +0.001 A 
ATOM     11  C   UNL     1       2.375   1.449  -0.013  0.00  0.00    +0.017 A 
ATOM     12  C   UNL     1       2.404   0.076  -0.021  0.00  0.00    +0.039 A 
ATOM     13  C   UNL     1       1.226  -0.705  -0.013  0.00  0.00    +0.078 A 
ATOM     14  C   UNL     1       0.002  -0.004   0.002  0.00  0.00    +0.029 A 
ATOM     15  N   UNL     1       1.464  -2.033  -0.023  0.00  0.00    -0.244 NA
ATOM     16  C   UNL     1       2.669  -2.521  -0.038  0.00  0.00    +0.084 A 
ATOM     17  S   UNL     1       3.669  -1.167  -0.040  0.00  0.00    -0.072 S 
ENDBRANCH   1  16
BRANCH   7  18
ATOM     18  C   UNL     1       4.694  -7.915  -2.168  0.00  0.00    +0.098 C 
BRANCH  18  19
ATOM     19  C   UNL     1       4.305  -8.678  -3.436  0.00  0.00    +0.043 C 
BRANCH  19  20
ATOM     20  C   UNL     1       4.832 -10.112  -3.350  0.00  0.00    +0.166 C 
ATOM     21  C   UNL     1       4.628 -10.759  -4.701  0.00  0.00    +0.240 C 
ATOM     22  O   UNL     1       5.122 -10.272  -5.698  0.00  0.00    -0.273 OA
ATOM     23  N   UNL     1       3.898 -11.874  -4.784  0.00  0.00    -0.282 N 
ATOM     24  C   UNL     1       3.350 -12.425  -3.714  0.00  0.00    +0.057 A 
ATOM     25  C   UNL     1       2.583 -13.605  -3.836  0.00  0.00    +0.025 A 
ATOM     26  C   UNL     1       2.020 -14.173  -2.744  0.00  0.00    +0.002 A 
ATOM     27  C   UNL     1       2.159 -13.639  -1.453  0.00  0.00    +0.002 A 
ATOM     28  C   UNL     1       2.870 -12.513  -1.223  0.00  0.00    +0.027 A 
ATOM     29  C   UNL     1       3.514 -11.836  -2.361  0.00  0.00    +0.057 A 
ATOM     30  N   UNL     1       4.208 -10.750  -2.180  0.00  0.00    -0.372 N 
ATOM     31  H   UNL     1       4.312 -10.370  -1.294  0.00  0.00    +0.160 HD
ATOM     32  H   UNL     1       3.766 -12.290  -5.650  0.00  0.00    +0.155 HD
ENDBRANCH  19  20
ENDBRANCH  18  19
ENDBRANCH   7  18
TORSDOF 4
