REMARK  Name = ZINC18196474
REMARK  4 active torsions:
REMARK  status: ('A' for Active; 'I' for Inactive)
REMARK    1  A    between atoms: C_4  and  C_30
REMARK    2  A    between atoms: C_5  and  C_7
REMARK    3  A    between atoms: C_14  and  O_15
REMARK    4  A    between atoms: C_22  and  C_25
REMARK                            x       y       z     vdW  Elec       q    Type
REMARK                         _______ _______ _______ _____ _____    ______ ____
ROOT
ATOM      1  C   UNL     1      -2.063   3.293   2.495  0.00  0.00    +0.093 C 
ATOM      2  C   UNL     1      -2.203   2.198   3.514  0.00  0.00    +0.067 A 
ATOM      3  C   UNL     1      -1.521   1.013   3.417  0.00  0.00    +0.126 A 
ATOM      4  N   UNL     1      -1.861   0.256   4.477  0.00  0.00    -0.260 N 
ATOM      5  H   UNL     1      -1.521  -0.663   4.679  0.00  0.00    +0.190 HD
ATOM      6  N   UNL     1      -2.778   0.987   5.249  0.00  0.00    -0.134 NA
ATOM      7  C   UNL     1      -2.979   2.149   4.668  0.00  0.00    +0.237 A 
ATOM      8  N   UNL     1      -0.660   0.758   2.357  0.00  0.00    -0.303 N 
ATOM      9  C   UNL     1      -0.719   1.573   1.253  0.00  0.00    +0.017 C 
ATOM     10  C   UNL     1      -1.370   2.755   1.261  0.00  0.00    +0.024 C 
ATOM     11  C   UNL     1      -1.428   3.554   0.105  0.00  0.00    +0.162 C 
ATOM     12  O   UNL     1      -2.013   4.618   0.148  0.00  0.00    -0.292 OA
ATOM     13  C   UNL     1      -0.783   3.123  -1.182  0.00  0.00    +0.088 C 
ATOM     14  C   UNL     1      -0.751   1.592  -1.233  0.00  0.00    +0.039 C 
ATOM     15  C   UNL     1      -0.013   1.086   0.008  0.00  0.00    +0.060 C 
ATOM     16  H   UNL     1      -0.033   0.019   2.395  0.00  0.00    +0.153 HD
ENDROOT
BRANCH   1  21
ATOM     17  C   UNL     1       0.798   5.218   4.031  0.00  0.00    +0.000 A 
ATOM     18  C   UNL     1       0.250   6.482   4.146  0.00  0.00    +0.001 A 
ATOM     19  C   UNL     1      -1.046   6.713   3.727  0.00  0.00    +0.012 A 
ATOM     20  C   UNL     1      -1.793   5.682   3.188  0.00  0.00    +0.059 A 
ATOM     21  C   UNL     1      -1.247   4.418   3.078  0.00  0.00    -0.024 A 
ATOM     22  C   UNL     1       0.050   4.186   3.496  0.00  0.00    +0.005 A 
BRANCH  20  23
ATOM     23  C   UNL     1      -3.205   5.936   2.726  0.00  0.00    +0.418 C 
ATOM     24  F   UNL     1      -3.531   7.280   2.939  0.00  0.00    -0.166 F 
ATOM     25  F   UNL     1      -3.310   5.641   1.363  0.00  0.00    -0.166 F 
ATOM     26  F   UNL     1      -4.085   5.123   3.448  0.00  0.00    -0.166 F 
ENDBRANCH  20  23
ENDBRANCH   1  21
BRANCH  14  27
ATOM     27  C   UNL     1      -0.027   1.139  -2.474  0.00  0.00    -0.006 A 
ATOM     28  C   UNL     1      -0.475   0.357  -3.486  0.00  0.00    +0.011 A 
ATOM     29  C   UNL     1       0.374   0.071  -4.539  0.00  0.00    +0.008 A 
ATOM     30  C   UNL     1       1.633   0.572  -4.523  0.00  0.00    +0.045 A 
ATOM     31  S   UNL     1       1.647   1.486  -2.990  0.00  0.00    -0.101 S 
ENDBRANCH  14  27
BRANCH   7  32
ATOM     32  O   UNL     1      -3.803   3.134   5.116  0.00  0.00    -0.491 OA
ATOM     33  H   UNL     1      -4.241   2.840   5.966  0.00  0.00    +0.294 HD
ENDBRANCH   7  32
TORSDOF 4
