REMARK  Name = ZINC38188445
REMARK  8 active torsions:
REMARK  status: ('A' for Active; 'I' for Inactive)
REMARK    1  A    between atoms: C_4  and  N_7
REMARK    2  A    between atoms: C_8  and  C_10
REMARK    3  A    between atoms: C_10  and  S_11
REMARK    4  A    between atoms: S_11  and  C_12
REMARK    5  A    between atoms: C_12  and  C_13
REMARK    6  A    between atoms: N_15  and  N_16
REMARK    7  A    between atoms: C_17  and  C_18
REMARK    8  A    between atoms: C_23  and  O_24
REMARK                            x       y       z     vdW  Elec       q    Type
REMARK                         _______ _______ _______ _____ _____    ______ ____
ROOT
ATOM      1  C   UNL     1       6.216  -6.725   0.475  0.00  0.00    +0.242 C 
ATOM      2  O   UNL     1       5.126  -7.257   0.474  0.00  0.00    -0.273 OA
ATOM      3  N   UNL     1       7.332  -7.476   0.565  0.00  0.00    -0.206 N 
ATOM      4  H   UNL     1       8.204  -7.050   0.566  0.00  0.00    +0.177 HD
ENDROOT
BRANCH   3   5
ATOM      5  N   UNL     1       7.232  -8.870   0.659  0.00  0.00    -0.188 NA
ATOM      6  C   UNL     1       8.307  -9.593   0.746  0.00  0.00    +0.142 C 
BRANCH   6   7
ATOM      7  C   UNL     1       8.202 -11.059   0.845  0.00  0.00    +0.036 A 
ATOM      8  C   UNL     1       9.356 -11.841   0.945  0.00  0.00    +0.013 A 
ATOM      9  C   UNL     1       9.251 -13.213   1.037  0.00  0.00    +0.001 A 
ATOM     10  C   UNL     1       8.007 -13.819   1.031  0.00  0.00    +0.004 A 
ATOM     11  C   UNL     1       6.858 -13.058   0.932  0.00  0.00    +0.046 A 
ATOM     12  C   UNL     1       6.945 -11.678   0.844  0.00  0.00    +0.125 A 
BRANCH  12  13
ATOM     13  O   UNL     1       5.816 -10.928   0.753  0.00  0.00    -0.506 OA
ATOM     14  H   UNL     1       5.520 -10.772  -0.155  0.00  0.00    +0.292 HD
ENDBRANCH  12  13
ENDBRANCH   6   7
ENDBRANCH   3   5
BRANCH   1  15
ATOM     15  C   UNL     1       6.323  -5.225   0.374  0.00  0.00    +0.167 C 
BRANCH  15  16
ATOM     16  S   UNL     1       4.661  -4.506   0.267  0.00  0.00    -0.142 S 
BRANCH  16  17
ATOM     17  C   UNL     1       4.962  -2.721   0.153  0.00  0.00    +0.165 C 
BRANCH  17  19
ATOM     18  N   UNL     1       3.622  -0.651  -0.037  0.00  0.00    -0.285 N 
ATOM     19  C   UNL     1       3.645  -1.995   0.057  0.00  0.00    +0.227 C 
ATOM     20  O   UNL     1       2.606  -2.620   0.064  0.00  0.00    -0.275 OA
ATOM     21  H   UNL     1       4.452  -0.156  -0.121  0.00  0.00    +0.155 HD
BRANCH  18  25
ATOM     22  C   UNL     1      -0.015   1.381   0.029  0.00  0.00    +0.000 A 
ATOM     23  C   UNL     1       0.140   0.218   0.763  0.00  0.00    +0.002 A 
ATOM     24  C   UNL     1       1.344  -0.457   0.743  0.00  0.00    +0.023 A 
ATOM     25  C   UNL     1       2.400   0.031  -0.015  0.00  0.00    +0.033 A 
ATOM     26  C   UNL     1       2.241   1.198  -0.751  0.00  0.00    +0.023 A 
ATOM     27  C   UNL     1       1.034   1.870  -0.727  0.00  0.00    +0.002 A 
ENDBRANCH  18  25
ENDBRANCH  17  19
ENDBRANCH  16  17
ENDBRANCH  15  16
ENDBRANCH   1  15
TORSDOF 8
