REMARK  Name = ZINC18023074
REMARK  7 active torsions:
REMARK  status: ('A' for Active; 'I' for Inactive)
REMARK    1  A    between atoms: C_1  and  C_2
REMARK    2  A    between atoms: C_5  and  O_8
REMARK    3  A    between atoms: O_8  and  C_9
REMARK    4  A    between atoms: C_9  and  C_11
REMARK    5  A    between atoms: C_9  and  C_12
REMARK    6  A    between atoms: N_14  and  N_15
REMARK    7  A    between atoms: C_21  and  C_24
REMARK                            x       y       z     vdW  Elec       q    Type
REMARK                         _______ _______ _______ _____ _____    ______ ____
ROOT
ATOM      1  C   UNL     1      -0.012   1.031   0.159  0.00  0.00    +0.270 C 
ATOM      2  O   UNL     1       0.080  -0.161  -0.045  0.00  0.00    -0.270 OA
ATOM      3  N   UNL     1      -1.224   1.593   0.337  0.00  0.00    -0.221 N 
ATOM      4  H   UNL     1      -1.298   2.546   0.499  0.00  0.00    +0.174 HD
ENDROOT
BRANCH   3   5
ATOM      5  N   UNL     1      -2.378   0.800   0.286  0.00  0.00    -0.137 N 
ATOM      6  C   UNL     1      -3.091   0.429   1.370  0.00  0.00    +0.263 C 
ATOM      7  O   UNL     1      -2.864   0.707   2.528  0.00  0.00    -0.271 OA
ATOM      8  C   UNL     1      -4.232  -0.406   0.836  0.00  0.00    +0.114 C 
ATOM      9  C   UNL     1      -5.569   0.242   1.176  0.00  0.00    +0.035 C 
ATOM     10  C   UNL     1      -6.710  -0.602   0.603  0.00  0.00    +0.006 C 
ATOM     11  C   UNL     1      -6.644  -2.013   1.192  0.00  0.00    -0.014 C 
ATOM     12  C   UNL     1      -5.308  -2.659   0.822  0.00  0.00    +0.006 C 
ATOM     13  C   UNL     1      -4.161  -1.823   1.396  0.00  0.00    +0.035 C 
ATOM     14  C   UNL     1      -7.791  -2.855   0.630  0.00  0.00    +0.007 C 
ATOM     15  N   UNL     1      -4.019  -0.415  -0.617  0.00  0.00    -0.284 N 
ATOM     16  C   UNL     1      -2.914   0.321  -0.843  0.00  0.00    +0.326 C 
ATOM     17  O   UNL     1      -2.453   0.525  -1.949  0.00  0.00    -0.251 OA
ATOM     18  H   UNL     1      -4.567  -0.859  -1.282  0.00  0.00    +0.151 HD
ENDBRANCH   3   5
BRANCH   1  19
ATOM     19  C   UNL     1       1.229   1.885   0.206  0.00  0.00    +0.257 C 
ATOM     20  C   UNL     1       1.151   2.959  -0.880  0.00  0.00    +0.062 C 
BRANCH  19  21
ATOM     21  O   UNL     1       2.379   1.066  -0.015  0.00  0.00    -0.480 OA
BRANCH  21  26
ATOM     22  C   UNL     1       7.273   2.917   2.069  0.00  0.00    +0.044 C 
ATOM     23  C   UNL     1       5.964   2.421   1.512  0.00  0.00    -0.050 A 
ATOM     24  C   UNL     1       4.835   3.217   1.590  0.00  0.00    +0.007 A 
ATOM     25  C   UNL     1       3.634   2.765   1.080  0.00  0.00    +0.046 A 
ATOM     26  C   UNL     1       3.560   1.513   0.488  0.00  0.00    +0.122 A 
ATOM     27  C   UNL     1       4.692   0.714   0.415  0.00  0.00    +0.046 A 
ATOM     28  C   UNL     1       5.893   1.173   0.922  0.00  0.00    +0.007 A 
ENDBRANCH  21  26
ENDBRANCH  19  21
ENDBRANCH   1  19
TORSDOF 4
