REMARK  Name = ZINC38971225
REMARK  4 active torsions:
REMARK  status: ('A' for Active; 'I' for Inactive)
REMARK    1  A    between atoms: N_7  and  S_8
REMARK    2  A    between atoms: S_8  and  C_11
REMARK    3  A    between atoms: C_19  and  N_24
REMARK    4  A    between atoms: N_24  and  C_25
REMARK                            x       y       z     vdW  Elec       q    Type
REMARK                         _______ _______ _______ _____ _____    ______ ____
ROOT
ATOM      1  C   UNL     1       0.573   1.431  -0.700  0.00  0.00    +0.002 A 
ATOM      2  C   UNL     1       1.793   2.109  -0.540  0.00  0.00    +0.002 A 
ATOM      3  C   UNL     1       2.961   1.468  -0.313  0.00  0.00    +0.030 A 
ATOM      4  C   UNL     1       2.997   0.053  -0.227  0.00  0.00    +0.089 A 
ATOM      5  N   UNL     1       4.137  -0.567  -0.005  0.00  0.00    -0.226 NA
ATOM      6  C   UNL     1       4.206  -1.905   0.083  0.00  0.00    +0.192 C 
ATOM      7  N   UNL     1       5.345  -2.493   0.302  0.00  0.00    -0.110 NA
ATOM      8  C   UNL     1       2.941  -2.716  -0.078  0.00  0.00    +0.237 C 
ATOM      9  N   UNL     1       1.685  -1.990  -0.324  0.00  0.00    -0.359 N 
ATOM     10  C   UNL     1       1.722  -0.689  -0.392  0.00  0.00    +0.063 A 
ATOM     11  C   UNL     1       0.495   0.084  -0.635  0.00  0.00    +0.027 A 
ATOM     12  H   UNL     1       0.849  -2.469  -0.433  0.00  0.00    +0.162 HD
ENDROOT
BRANCH   7  13
ATOM     13  S   UNL     1       6.723  -1.592   0.476  0.00  0.00    +0.102 S 
ATOM     14  O   UNL     1       6.969  -0.980  -0.782  0.00  0.00    -0.146 OA
ATOM     15  O   UNL     1       6.568  -0.840   1.672  0.00  0.00    -0.146 OA
BRANCH  13  16
ATOM     16  C   UNL     1       8.049  -2.718   0.757  0.00  0.00    +0.132 A 
ATOM     17  C   UNL     1       9.070  -2.828  -0.168  0.00  0.00    +0.050 A 
ATOM     18  C   UNL     1      10.111  -3.711   0.053  0.00  0.00    +0.043 A 
ATOM     19  C   UNL     1      10.131  -4.485   1.200  0.00  0.00    +0.021 A 
ATOM     20  C   UNL     1       9.110  -4.375   2.125  0.00  0.00    +0.023 A 
ATOM     21  C   UNL     1       8.072  -3.487   1.907  0.00  0.00    +0.068 A 
ATOM     22 CL   UNL     1       6.793  -3.343   3.072  0.00  0.00    -0.082 Cl
ATOM     23 CL   UNL     1      11.393  -3.850  -1.110  0.00  0.00    -0.083 Cl
ENDBRANCH  13  16
ENDBRANCH   7  13
BRANCH   8  24
ATOM     24  N   UNL     1       2.764  -3.514   1.139  0.00  0.00    -0.318 N 
ATOM     25  H   UNL     1       2.909  -3.110   2.009  0.00  0.00    +0.148 HD
BRANCH  24  26
ATOM     26  C   UNL     1       2.387  -4.857   1.046  0.00  0.00    +0.030 A 
ATOM     27  C   UNL     1       2.364  -5.653   2.184  0.00  0.00    +0.026 A 
ATOM     28  C   UNL     1       1.991  -6.980   2.090  0.00  0.00    +0.041 A 
ATOM     29  C   UNL     1       1.640  -7.517   0.863  0.00  0.00    +0.142 A 
ATOM     30  C   UNL     1       1.662  -6.724  -0.273  0.00  0.00    +0.078 A 
ATOM     31  C   UNL     1       2.029  -5.395  -0.183  0.00  0.00    +0.045 A 
ATOM     32 CL   UNL     1       1.222  -7.401  -1.811  0.00  0.00    -0.081 Cl
ATOM     33  F   UNL     1       1.277  -8.815   0.774  0.00  0.00    -0.204 F 
ENDBRANCH  24  26
ENDBRANCH   8  24
TORSDOF 4
