REMARK  Name = ZINC39995095
REMARK  7 active torsions:
REMARK  status: ('A' for Active; 'I' for Inactive)
REMARK    1  A    between atoms: C_1  and  C_2
REMARK    2  A    between atoms: C_2  and  C_4
REMARK    3  A    between atoms: C_2  and  S_15
REMARK    4  A    between atoms: N_6  and  C_7
REMARK    5  A    between atoms: S_15  and  C_16
REMARK    6  A    between atoms: C_20  and  C_25
REMARK    7  A    between atoms: N_21  and  C_22
REMARK                            x       y       z     vdW  Elec       q    Type
REMARK                         _______ _______ _______ _____ _____    ______ ____
ROOT
ATOM      1  C   UNL     1      -2.418  -0.238  -1.674  0.00  0.00    +0.238 C 
ATOM      2  N   UNL     1      -2.445   1.234  -1.686  0.00  0.00    -0.237 N 
ATOM      3  N   UNL     1      -1.640   1.637  -2.758  0.00  0.00    -0.169 NA
ATOM      4  C   UNL     1      -1.137   0.609  -3.387  0.00  0.00    +0.147 C 
ATOM      5  N   UNL     1      -1.550  -0.597  -2.807  0.00  0.00    -0.282 N 
ATOM      6  H   UNL     1      -2.926   1.810  -1.073  0.00  0.00    +0.171 HD
ENDROOT
BRANCH   4   7
ATOM      7  C   UNL     1      -0.291   0.700  -4.504  0.00  0.00    +0.022 C 
ATOM      8  C   UNL     1       0.234   1.862  -5.071  0.00  0.00    +0.006 A 
ATOM      9  C   UNL     1       0.104   3.227  -4.739  0.00  0.00    +0.010 A 
ATOM     10  C   UNL     1       0.745   4.165  -5.484  0.00  0.00    +0.001 A 
ATOM     11  C   UNL     1       1.536   3.813  -6.580  0.00  0.00    +0.002 A 
ATOM     12  C   UNL     1       1.705   2.522  -6.955  0.00  0.00    +0.026 A 
ATOM     13  C   UNL     1       1.067   1.486  -6.224  0.00  0.00    +0.043 A 
ATOM     14  N   UNL     1       1.073   0.176  -6.382  0.00  0.00    -0.380 N 
ATOM     15  C   UNL     1       0.246  -0.440  -5.340  0.00  0.00    +0.152 C 
ATOM     16  H   UNL     1       1.552  -0.303  -7.076  0.00  0.00    +0.160 HD
ENDBRANCH   4   7
BRANCH   5  17
ATOM     17  C   UNL     1      -1.189  -1.949  -3.240  0.00  0.00    +0.078 C 
ATOM     18  C   UNL     1      -1.824  -3.123  -2.493  0.00  0.00    +0.024 C 
ATOM     19  C   UNL     1      -0.344  -2.795  -2.286  0.00  0.00    +0.024 C 
ENDBRANCH   5  17
BRANCH   1  20
ATOM     20  S   UNL     1      -1.713  -0.847  -0.117  0.00  0.00    -0.106 S 
BRANCH  20  22
ATOM     21  C   UNL     1      -0.241   1.450   0.081  0.00  0.00    +0.029 C 
ATOM     22  C   UNL     1      -0.077  -0.066  -0.041  0.00  0.00    +0.133 C 
BRANCH  22  23
ATOM     23  C   UNL     1       0.673  -0.588   1.157  0.00  0.00    +0.230 C 
ATOM     24  O   UNL     1       0.069  -1.104   2.074  0.00  0.00    -0.274 OA
ATOM     25  N   UNL     1       2.015  -0.481   1.211  0.00  0.00    -0.282 N 
ATOM     26  H   UNL     1       2.504  -0.126   0.452  0.00  0.00    +0.155 HD
BRANCH  25  27
ATOM     27  C   UNL     1       2.705  -0.882   2.363  0.00  0.00    +0.069 A 
ATOM     28  C   UNL     1       2.251  -1.965   3.103  0.00  0.00    +0.029 A 
ATOM     29  C   UNL     1       2.931  -2.359   4.239  0.00  0.00    +0.040 A 
ATOM     30  C   UNL     1       4.067  -1.676   4.640  0.00  0.00    +0.126 A 
ATOM     31  C   UNL     1       4.523  -0.595   3.904  0.00  0.00    +0.078 A 
ATOM     32  C   UNL     1       3.849  -0.200   2.763  0.00  0.00    +0.147 A 
ATOM     33  F   UNL     1       4.297   0.851   2.042  0.00  0.00    -0.203 F 
ATOM     34  F   UNL     1       4.731  -2.064   5.750  0.00  0.00    -0.205 F 
ENDBRANCH  25  27
ENDBRANCH  22  23
ENDBRANCH  20  22
ENDBRANCH   1  20
TORSDOF 6
