REMARK  Name = ZINC13779062
REMARK  6 active torsions:
REMARK  status: ('A' for Active; 'I' for Inactive)
REMARK    1  A    between atoms: C_1  and  C_2
REMARK    2  A    between atoms: C_5  and  S_8
REMARK    3  A    between atoms: S_8  and  N_11
REMARK    4  A    between atoms: N_13  and  S_14
REMARK    5  A    between atoms: S_14  and  C_17
REMARK    6  A    between atoms: C_20  and  C_23
REMARK                            x       y       z     vdW  Elec       q    Type
REMARK                         _______ _______ _______ _____ _____    ______ ____
ROOT
ATOM      1  N   UNL     1       1.644  -5.164   0.056  0.00  0.00    -0.224 N 
ATOM      2  C   UNL     1       2.436  -4.824   1.127  0.00  0.00    +0.245 C 
ATOM      3  N   UNL     1       1.994  -3.990   2.025  0.00  0.00    -0.091 NA
ATOM      4  N   UNL     1       3.697  -5.367   1.252  0.00  0.00    -0.278 N 
ATOM      5  C   UNL     1       4.214  -6.152   0.241  0.00  0.00    +0.304 A 
ATOM      6  N   UNL     1       3.644  -6.351  -0.919  0.00  0.00    -0.193 NA
ATOM      7  C   UNL     1       4.436  -7.174  -1.659  0.00  0.00    +0.111 A 
ATOM      8  C   UNL     1       4.332  -7.713  -2.943  0.00  0.00    +0.031 A 
ATOM      9  C   UNL     1       5.328  -8.537  -3.420  0.00  0.00    +0.002 A 
ATOM     10  C   UNL     1       6.430  -8.833  -2.633  0.00  0.00    +0.004 A 
ATOM     11  C   UNL     1       6.545  -8.307  -1.362  0.00  0.00    +0.048 A 
ATOM     12  C   UNL     1       5.553  -7.477  -0.867  0.00  0.00    +0.157 A 
ATOM     13  O   UNL     1       5.380  -6.819   0.303  0.00  0.00    -0.423 OA
ATOM     14  H   UNL     1       1.997  -5.732  -0.647  0.00  0.00    +0.191 HD
ATOM     15  H   UNL     1       4.222  -5.197   2.050  0.00  0.00    +0.173 HD
ENDROOT
BRANCH   1  16
ATOM     16  S   UNL     1       0.088  -4.605  -0.034  0.00  0.00    +0.080 S 
ATOM     17  O   UNL     1      -0.511  -4.867   1.227  0.00  0.00    -0.148 OA
ATOM     18  O   UNL     1      -0.452  -5.100  -1.252  0.00  0.00    -0.148 OA
BRANCH  16  23
ATOM     19  C   UNL     1       0.377   1.396  -0.592  0.00  0.00    +0.044 C 
ATOM     20  C   UNL     1       0.305  -0.103  -0.453  0.00  0.00    -0.050 A 
ATOM     21  C   UNL     1       0.302  -0.902  -1.581  0.00  0.00    +0.005 A 
ATOM     22  C   UNL     1       0.236  -2.277  -1.452  0.00  0.00    +0.029 A 
ATOM     23  C   UNL     1       0.174  -2.852  -0.197  0.00  0.00    +0.111 A 
ATOM     24  C   UNL     1       0.178  -2.053   0.930  0.00  0.00    +0.029 A 
ATOM     25  C   UNL     1       0.248  -0.678   0.803  0.00  0.00    +0.005 A 
ENDBRANCH  16  23
ENDBRANCH   1  16
BRANCH   3  26
ATOM     26  S   UNL     1       2.990  -3.486   3.248  0.00  0.00    +0.102 S 
ATOM     27  O   UNL     1       3.280  -4.634   4.034  0.00  0.00    -0.146 OA
ATOM     28  O   UNL     1       4.008  -2.698   2.646  0.00  0.00    -0.146 OA
BRANCH  26  29
ATOM     29  C   UNL     1       2.051  -2.400   4.271  0.00  0.00    +0.113 A 
ATOM     30  C   UNL     1       2.028  -1.045   4.001  0.00  0.00    +0.029 A 
ATOM     31  C   UNL     1       1.292  -0.193   4.803  0.00  0.00    +0.005 A 
ATOM     32  C   UNL     1       0.578  -0.697   5.874  0.00  0.00    -0.050 A 
ATOM     33  C   UNL     1       0.601  -2.053   6.143  0.00  0.00    +0.005 A 
ATOM     34  C   UNL     1       1.334  -2.905   5.339  0.00  0.00    +0.029 A 
ATOM     35  C   UNL     1      -0.224   0.232   6.749  0.00  0.00    +0.044 C 
ENDBRANCH  26  29
ENDBRANCH   3  26
TORSDOF 4
