REMARK  Name = ZINC03208728
REMARK  4 active torsions:
REMARK  status: ('A' for Active; 'I' for Inactive)
REMARK    1  A    between atoms: C_4  and  C_7
REMARK    2  A    between atoms: C_13  and  N_14
REMARK    3  A    between atoms: N_14  and  N_15
REMARK    4  A    between atoms: C_19  and  C_22
REMARK                            x       y       z     vdW  Elec       q    Type
REMARK                         _______ _______ _______ _____ _____    ______ ____
ROOT
ATOM      1  N   UNL     1      -3.690   2.939   0.175  0.00  0.00    -0.265 N 
ATOM      2  H   UNL     1      -3.638   1.977   0.282  0.00  0.00    +0.170 HD
ENDROOT
BRANCH   1   3
ATOM      3  N   UNL     1      -2.524   3.714   0.223  0.00  0.00    -0.249 N 
ATOM      4  C   UNL     1      -1.291   3.103   0.426  0.00  0.00    +0.153 A 
ATOM      5  C   UNL     1      -0.136   3.879   0.473  0.00  0.00    +0.083 A 
ATOM      6  C   UNL     1       1.084   3.258   0.675  0.00  0.00    +0.037 A 
ATOM      7  C   UNL     1       1.107   1.877   0.824  0.00  0.00    +0.074 A 
ATOM      8  C   UNL     1      -0.077   1.170   0.766  0.00  0.00    +0.125 A 
ATOM      9  N   UNL     1      -1.226   1.789   0.567  0.00  0.00    -0.237 NA
ATOM     10 CL   UNL     1      -0.225   5.602   0.281  0.00  0.00    -0.080 Cl
ATOM     11  H   UNL     1      -2.576   4.677   0.116  0.00  0.00    +0.171 HD
BRANCH   7  12
ATOM     12  C   UNL     1       2.413   1.157   1.047  0.00  0.00    +0.419 C 
ATOM     13  F   UNL     1       2.174  -0.216   1.166  0.00  0.00    -0.166 F 
ATOM     14  F   UNL     1       3.264   1.390  -0.038  0.00  0.00    -0.166 F 
ATOM     15  F   UNL     1       3.011   1.630   2.220  0.00  0.00    -0.166 F 
ENDBRANCH   7  12
ENDBRANCH   1   3
BRANCH   1  22
ATOM     16  C   UNL     1      -6.089   1.392  -0.159  0.00  0.00    +0.013 C 
ATOM     17  C   UNL     1      -6.153   2.733  -0.079  0.00  0.00    -0.025 C 
ATOM     18  C   UNL     1      -7.485   3.454  -0.037  0.00  0.00    +0.037 C 
ATOM     19  C   UNL     1      -7.365   4.686  -0.944  0.00  0.00    +0.009 C 
ATOM     20  C   UNL     1      -6.284   5.612  -0.389  0.00  0.00    +0.029 C 
ATOM     21  C   UNL     1      -4.996   4.876  -0.170  0.00  0.00    -0.002 C 
ATOM     22  C   UNL     1      -4.929   3.553  -0.029  0.00  0.00    +0.044 C 
BRANCH  16  26
ATOM     23  C   UNL     1      -9.627  -0.924   0.192  0.00  0.00    +0.000 A 
ATOM     24  C   UNL     1      -8.598  -1.359  -0.625  0.00  0.00    +0.001 A 
ATOM     25  C   UNL     1      -7.445  -0.611  -0.744  0.00  0.00    +0.008 A 
ATOM     26  C   UNL     1      -7.317   0.588  -0.037  0.00  0.00    -0.025 A 
ATOM     27  C   UNL     1      -8.359   1.018   0.790  0.00  0.00    +0.008 A 
ATOM     28  C   UNL     1      -9.508   0.262   0.895  0.00  0.00    +0.001 A 
ENDBRANCH  16  26
ENDBRANCH   1  22
TORSDOF 4
