REMARK  Name = ZINC26952746
REMARK  6 active torsions:
REMARK  status: ('A' for Active; 'I' for Inactive)
REMARK    1  A    between atoms: C_1  and  C_2
REMARK    2  A    between atoms: C_2  and  C_3
REMARK    3  A    between atoms: C_2  and  O_4
REMARK    4  A    between atoms: O_4  and  C_5
REMARK    5  A    between atoms: C_8  and  C_11
REMARK    6  A    between atoms: C_11  and  C_12
REMARK                            x       y       z     vdW  Elec       q    Type
REMARK                         _______ _______ _______ _____ _____    ______ ____
ROOT
ATOM      1  C   UNL     1       0.003   0.002   0.004  0.00  0.00    +0.076 C 
ENDROOT
BRANCH   1   2
ATOM      2  C   UNL     1       0.241   1.490   0.004  0.00  0.00    +0.031 A 
ATOM      3  C   UNL     1      -0.821   2.378   0.082  0.00  0.00    +0.139 A 
ATOM      4  N   UNL     1      -0.576   3.679   0.085  0.00  0.00    -0.203 NA
ATOM      5  C   UNL     1       0.666   4.135   0.002  0.00  0.00    +0.215 A 
ATOM      6  N   UNL     1       1.702   3.314  -0.080  0.00  0.00    -0.203 NA
ATOM      7  C   UNL     1       1.528   2.001  -0.082  0.00  0.00    +0.139 A 
ATOM      8 CL   UNL     1       2.893   0.933  -0.188  0.00  0.00    -0.062 Cl
ATOM      9  N   UNL     1       0.885   5.502   0.001  0.00  0.00    -0.327 N 
ATOM     10 CL   UNL     1      -2.452   1.791   0.184  0.00  0.00    -0.062 Cl
ATOM     11  H   UNL     1       1.910   5.894  -0.068  0.00  0.00    +0.145 HD
ATOM     12  H   UNL     1       0.034   6.195   0.068  0.00  0.00    +0.145 HD
ENDBRANCH   1   2
BRANCH   1  16
ATOM     13  C   UNL     1       0.060  -1.448   4.024  0.00  0.00    +0.121 A 
ATOM     14  C   UNL     1      -1.132  -1.023   3.455  0.00  0.00    +0.046 A 
ATOM     15  C   UNL     1      -1.148  -0.555   2.156  0.00  0.00    +0.007 A 
ATOM     16  C   UNL     1       0.023  -0.510   1.421  0.00  0.00    -0.043 A 
ATOM     17  C   UNL     1       1.211  -0.939   1.984  0.00  0.00    +0.007 A 
ATOM     18  C   UNL     1       1.233  -1.403   3.285  0.00  0.00    +0.046 A 
BRANCH  13  19
ATOM     19  O   UNL     1       0.078  -1.909   5.302  0.00  0.00    -0.489 OA
BRANCH  19  21
ATOM     20  C   UNL     1      -1.072  -3.096   7.065  0.00  0.00    +0.051 C 
ATOM     21  C   UNL     1      -1.182  -2.042   5.962  0.00  0.00    +0.167 C 
ATOM     22  C   UNL     1      -1.579  -0.699   6.578  0.00  0.00    +0.051 C 
ENDBRANCH  19  21
ENDBRANCH  13  19
ENDBRANCH   1  16
TORSDOF 4
