REMARK  Name = ZINC39700673
REMARK  8 active torsions:
REMARK  status: ('A' for Active; 'I' for Inactive)
REMARK    1  A    between atoms: C_1  and  C_2
REMARK    2  A    between atoms: C_2  and  N_3
REMARK    3  A    between atoms: N_3  and  C_4
REMARK    4  A    between atoms: N_3  and  C_6
REMARK    5  A    between atoms: C_4  and  C_5
REMARK    6  A    between atoms: C_9  and  C_12
REMARK    7  A    between atoms: N_13  and  C_14
REMARK    8  A    between atoms: C_19  and  C_24
REMARK                            x       y       z     vdW  Elec       q    Type
REMARK                         _______ _______ _______ _____ _____    ______ ____
ROOT
ATOM      1  C   UNL     1      -5.604  -2.350   6.331  0.00  0.00    +0.066 A 
ATOM      2  C   UNL     1      -4.996  -3.104   7.430  0.00  0.00    +0.030 A 
ATOM      3  C   UNL     1      -5.674  -3.347   8.566  0.00  0.00    +0.029 A 
ATOM      4  C   UNL     1      -7.051  -2.849   8.711  0.00  0.00    +0.061 A 
ATOM      5  N   UNL     1      -7.911  -2.942   9.684  0.00  0.00    -0.360 N 
ATOM      6  C   UNL     1      -9.133  -2.247   9.264  0.00  0.00    +0.207 C 
ATOM      7  N   UNL     1      -8.874  -1.733   7.913  0.00  0.00    -0.360 N 
ATOM      8  C   UNL     1      -7.656  -2.084   7.588  0.00  0.00    +0.062 A 
ATOM      9  C   UNL     1      -6.886  -1.858   6.420  0.00  0.00    +0.055 A 
ATOM     10  H   UNL     1      -7.770  -3.390  10.533  0.00  0.00    +0.162 HD
ATOM     11  H   UNL     1      -9.492  -1.227   7.363  0.00  0.00    +0.162 HD
ENDROOT
BRANCH   6  12
ATOM     12  C   UNL     1      -9.430  -1.107  10.203  0.00  0.00    +0.013 A 
ATOM     13  C   UNL     1      -8.404  -0.517  10.920  0.00  0.00    +0.010 A 
ATOM     14  C   UNL     1      -8.675   0.528  11.782  0.00  0.00    +0.020 A 
ATOM     15  C   UNL     1      -9.973   0.986  11.928  0.00  0.00    +0.042 A 
ATOM     16  C   UNL     1     -10.999   0.397  11.212  0.00  0.00    +0.040 A 
ATOM     17  C   UNL     1     -10.726  -0.646  10.345  0.00  0.00    +0.049 A 
ATOM     18 CL   UNL     1     -12.012  -1.382   9.441  0.00  0.00    -0.083 Cl
ATOM     19 CL   UNL     1     -10.313   2.299  13.012  0.00  0.00    -0.083 Cl
ENDBRANCH   6  12
BRANCH   1  21
ATOM     20  C   UNL     1      -3.636  -1.740   5.283  0.00  0.00    +0.119 C 
ATOM     21  N   UNL     1      -4.883  -2.126   5.198  0.00  0.00    -0.255 NA
BRANCH  20  25
ATOM     22  C   UNL     1      -1.394  -1.044   1.763  0.00  0.00    +0.030 A 
ATOM     23  C   UNL     1      -0.803  -0.862   3.011  0.00  0.00    +0.024 A 
ATOM     24  C   UNL     1      -1.523  -1.085   4.150  0.00  0.00    +0.011 A 
ATOM     25  C   UNL     1      -2.859  -1.498   4.062  0.00  0.00    -0.007 A 
ATOM     26  C   UNL     1      -3.450  -1.681   2.804  0.00  0.00    +0.011 A 
ATOM     27  C   UNL     1      -2.724  -1.450   1.671  0.00  0.00    +0.024 A 
BRANCH  22  28
ATOM     28  N   UNL     1      -0.657  -0.815   0.607  0.00  0.00    -0.330 N 
BRANCH  28  30
ATOM     29  C   UNL     1       0.806   1.139   0.739  0.00  0.00    +0.024 C 
ATOM     30  C   UNL     1       0.741  -0.389   0.701  0.00  0.00    +0.102 C 
ENDBRANCH  28  30
BRANCH  28  31
ATOM     31  C   UNL     1      -1.280  -1.001  -0.707  0.00  0.00    +0.102 C 
ATOM     32  C   UNL     1      -1.075  -2.445  -1.169  0.00  0.00    +0.024 C 
ENDBRANCH  28  31
ENDBRANCH  22  28
ENDBRANCH  20  25
ENDBRANCH   1  21
TORSDOF 6
