REMARK  Name = ZINC36586947
REMARK  15 active torsions:
REMARK  status: ('A' for Active; 'I' for Inactive)
REMARK    1  A    between atoms: C_1  and  C_2
REMARK    2  A    between atoms: C_2  and  C_3
REMARK    3  A    between atoms: C_3  and  C_4
REMARK    4  A    between atoms: C_4  and  N_5
REMARK    5  A    between atoms: C_6  and  C_8
REMARK    6  A    between atoms: C_8  and  C_10
REMARK    7  A    between atoms: C_8  and  N_17
REMARK    8  A    between atoms: C_15  and  O_16
REMARK    9  A    between atoms: N_17  and  C_28
REMARK   10  A    between atoms: C_18  and  C_20
REMARK   11  A    between atoms: C_24  and  O_27
REMARK   12  A    between atoms: C_25  and  O_26
REMARK   13  A    between atoms: C_28  and  C_29
REMARK   14  A    between atoms: C_28  and  C_30
REMARK   15  A    between atoms: C_28  and  C_31
REMARK                            x       y       z     vdW  Elec       q    Type
REMARK                         _______ _______ _______ _____ _____    ______ ____
ROOT
ATOM      1  C   UNL     1       1.573  -5.179  -1.764  0.00  0.00    +0.196 C 
ENDROOT
BRANCH   1   2
ATOM      2  C   UNL     1       2.715  -4.213  -1.583  0.00  0.00    +0.023 A 
ATOM      3  C   UNL     1       3.455  -4.229  -0.416  0.00  0.00    +0.009 A 
ATOM      4  C   UNL     1       4.502  -3.342  -0.249  0.00  0.00    +0.001 A 
ATOM      5  C   UNL     1       4.812  -2.437  -1.248  0.00  0.00    +0.004 A 
ATOM      6  C   UNL     1       4.075  -2.418  -2.416  0.00  0.00    +0.046 A 
ATOM      7  C   UNL     1       3.027  -3.310  -2.589  0.00  0.00    +0.122 A 
BRANCH   7   8
ATOM      8  O   UNL     1       2.304  -3.297  -3.740  0.00  0.00    -0.506 OA
ATOM      9  H   UNL     1       1.586  -2.650  -3.745  0.00  0.00    +0.292 HD
ENDBRANCH   7   8
ENDBRANCH   1   2
BRANCH   1  11
ATOM     10  N   UNL     1       0.213  -4.535   0.199  0.00  0.00    -0.313 N 
ATOM     11  C   UNL     1       0.948  -5.476  -0.426  0.00  0.00    +0.238 C 
ATOM     12  O   UNL     1       1.107  -6.562   0.090  0.00  0.00    -0.273 OA
ATOM     13  H   UNL     1       0.144  -3.644  -0.179  0.00  0.00    +0.149 HD
BRANCH  10  14
ATOM     14  C   UNL     1      -0.483  -4.858   1.446  0.00  0.00    +0.104 C 
BRANCH  14  15
ATOM     15  C   UNL     1      -1.239  -3.623   1.943  0.00  0.00    +0.018 C 
BRANCH  15  17
ATOM     16  C   UNL     1      -2.721  -2.725   3.742  0.00  0.00    +0.004 C 
ATOM     17  C   UNL     1      -1.966  -3.960   3.246  0.00  0.00    -0.002 C 
ENDBRANCH  15  17
ENDBRANCH  14  15
ENDBRANCH  10  14
ENDBRANCH   1  11
BRANCH   1  18
ATOM     18  N   UNL     1       2.075  -6.422  -2.356  0.00  0.00    -0.277 N 
ATOM     19  C   UNL     1       1.359  -7.559  -2.244  0.00  0.00    +0.252 C 
ATOM     20  O   UNL     1       1.813  -8.607  -2.661  0.00  0.00    -0.270 OA
BRANCH  19  21
ATOM     21  C   UNL     1       0.025  -7.531  -1.615  0.00  0.00    +0.082 A 
ATOM     22  C   UNL     1      -0.708  -6.341  -1.573  0.00  0.00    +0.017 A 
ATOM     23  C   UNL     1      -1.953  -6.319  -0.985  0.00  0.00    +0.005 A 
ATOM     24  C   UNL     1      -2.487  -7.473  -0.433  0.00  0.00    +0.049 A 
ATOM     25  C   UNL     1      -1.774  -8.659  -0.467  0.00  0.00    +0.159 A 
ATOM     26  C   UNL     1      -0.517  -8.698  -1.062  0.00  0.00    +0.171 A 
BRANCH  26  27
ATOM     27  O   UNL     1       0.183  -9.860  -1.103  0.00  0.00    -0.503 OA
ATOM     28  H   UNL     1       0.756 -10.001  -0.337  0.00  0.00    +0.292 HD
ENDBRANCH  26  27
BRANCH  25  29
ATOM     29  O   UNL     1      -2.305  -9.787   0.077  0.00  0.00    -0.503 OA
ATOM     30  H   UNL     1      -2.828 -10.314  -0.542  0.00  0.00    +0.292 HD
ENDBRANCH  25  29
ENDBRANCH  19  21
BRANCH  18  31
ATOM     31  C   UNL     1       3.355  -6.430  -3.068  0.00  0.00    +0.030 C 
ATOM     32  C   UNL     1       4.382  -5.615  -2.280  0.00  0.00    +0.031 C 
ATOM     33  C   UNL     1       3.849  -7.871  -3.213  0.00  0.00    +0.031 C 
ATOM     34  C   UNL     1       3.170  -5.812  -4.456  0.00  0.00    +0.031 C 
ENDBRANCH  18  31
ENDBRANCH   1  18
TORSDOF 11
