REMARK  Name = ZINC56489475
REMARK  9 active torsions:
REMARK  status: ('A' for Active; 'I' for Inactive)
REMARK    1  A    between atoms: C_1  and  N_2
REMARK    2  A    between atoms: N_2  and  C_3
REMARK    3  A    between atoms: N_2  and  C_4
REMARK    4  A    between atoms: C_4  and  C_6
REMARK    5  A    between atoms: C_4  and  C_26
REMARK    6  A    between atoms: C_6  and  N_7
REMARK    7  A    between atoms: N_10  and  C_11
REMARK    8  A    between atoms: C_11  and  C_13
REMARK    9  A    between atoms: C_11  and  C_23
REMARK                            x       y       z     vdW  Elec       q    Type
REMARK                         _______ _______ _______ _____ _____    ______ ____
ROOT
ATOM      1  N   UNL     1       0.044  -2.014   1.012  0.00  0.00    -0.301 N 
ATOM      2  C   UNL     1       0.458  -3.278   1.232  0.00  0.00    +0.300 C 
ATOM      3  O   UNL     1       0.107  -4.171   0.484  0.00  0.00    -0.253 OA
ATOM      4  N   UNL     1       1.260  -3.553   2.279  0.00  0.00    -0.292 N 
ATOM      5  H   UNL     1       0.325  -1.302   1.609  0.00  0.00    +0.150 HD
ATOM      6  H   UNL     1       1.540  -2.841   2.875  0.00  0.00    +0.151 HD
ENDROOT
BRANCH   1   7
ATOM      7  C   UNL     1      -0.828  -1.716  -0.126  0.00  0.00    +0.095 C 
BRANCH   7   8
ATOM      8  C   UNL     1      -1.251  -0.247  -0.073  0.00  0.00    -0.014 C 
BRANCH   8   9
ATOM      9  C   UNL     1      -2.103  -0.013   1.148  0.00  0.00    -0.022 A 
ATOM     10  C   UNL     1      -1.753   0.526   2.342  0.00  0.00    +0.009 A 
ATOM     11  C   UNL     1      -2.713   0.645   3.330  0.00  0.00    +0.008 A 
ATOM     12  C   UNL     1      -3.974   0.220   3.076  0.00  0.00    +0.045 A 
ATOM     13  S   UNL     1      -3.835  -0.366   1.395  0.00  0.00    -0.103 S 
ENDBRANCH   8   9
BRANCH   8  15
ATOM     14  C   UNL     1      -2.489   1.475  -1.195  0.00  0.00    -0.096 C 
ATOM     15  N   UNL     1      -2.022   0.085  -1.279  0.00  0.00    +0.382 N 
ATOM     16  C   UNL     1      -1.170  -0.075  -2.465  0.00  0.00    -0.096 C 
ATOM     17  H   UNL     1      -2.817  -0.533  -1.350  0.00  0.00    -0.082 HD
ENDBRANCH   8  15
ENDBRANCH   7   8
ENDBRANCH   1   7
BRANCH   4  18
ATOM     18  C   UNL     1       1.709  -4.927   2.518  0.00  0.00    +0.108 C 
BRANCH  18  19
ATOM     19  C   UNL     1       2.038  -5.101   3.978  0.00  0.00    -0.023 A 
ATOM     20  C   UNL     1       2.683  -4.090   4.666  0.00  0.00    +0.009 A 
ATOM     21  C   UNL     1       2.988  -4.247   6.005  0.00  0.00    +0.050 A 
ATOM     22  C   UNL     1       2.647  -5.420   6.662  0.00  0.00    +0.162 A 
ATOM     23  C   UNL     1       1.996  -6.436   5.971  0.00  0.00    +0.162 A 
ATOM     24  C   UNL     1       1.690  -6.270   4.628  0.00  0.00    +0.055 A 
ATOM     25  O   UNL     1       1.646  -7.591   6.598  0.00  0.00    -0.485 OA
ATOM     26  C   UNL     1       2.294  -7.869   7.845  0.00  0.00    +0.270 C 
ATOM     27  C   UNL     1       2.267  -6.592   8.695  0.00  0.00    +0.270 C 
ATOM     28  O   UNL     1       2.957  -5.562   7.979  0.00  0.00    -0.485 OA
ENDBRANCH  18  19
BRANCH  18  29
ATOM     29  C   UNL     1       2.956  -5.209   1.677  0.00  0.00    +0.014 C 
ATOM     30  C   UNL     1       3.599  -4.027   0.949  0.00  0.00    +0.006 C 
ATOM     31  C   UNL     1       2.826  -5.084   0.157  0.00  0.00    +0.006 C 
ENDBRANCH  18  29
ENDBRANCH   4  18
TORSDOF 7
