REMARK  Name = ZINC46824625
REMARK  9 active torsions:
REMARK  status: ('A' for Active; 'I' for Inactive)
REMARK    1  A    between atoms: C_1  and  C_2
REMARK    2  A    between atoms: C_2  and  C_3
REMARK    3  A    between atoms: C_2  and  O_4
REMARK    4  A    between atoms: O_4  and  C_5
REMARK    5  A    between atoms: C_8  and  C_11
REMARK    6  A    between atoms: C_11  and  N_12
REMARK    7  A    between atoms: N_15  and  N_16
REMARK    8  A    between atoms: C_17  and  C_19
REMARK    9  A    between atoms: C_19  and  C_20
REMARK                            x       y       z     vdW  Elec       q    Type
REMARK                         _______ _______ _______ _____ _____    ______ ____
ROOT
ATOM      1  N   UNL     1      -2.519  -0.130   6.485  0.00  0.00    -0.294 N 
ATOM      2  C   UNL     1      -3.252  -0.097   7.615  0.00  0.00    +0.316 C 
ATOM      3  O   UNL     1      -3.854  -1.089   7.978  0.00  0.00    -0.251 OA
ATOM      4  N   UNL     1      -3.320   1.036   8.342  0.00  0.00    -0.218 N 
ATOM      5  H   UNL     1      -2.039   0.662   6.195  0.00  0.00    +0.151 HD
ATOM      6  H   UNL     1      -3.848   1.059   9.155  0.00  0.00    +0.174 HD
ENDROOT
BRANCH   4   7
ATOM      7  N   UNL     1      -2.627   2.179   7.924  0.00  0.00    -0.233 N 
ATOM      8  C   UNL     1      -2.694   3.312   8.651  0.00  0.00    +0.234 C 
ATOM      9  O   UNL     1      -3.354   3.341   9.668  0.00  0.00    -0.274 OA
ATOM     10  H   UNL     1      -2.099   2.156   7.111  0.00  0.00    +0.173 HD
BRANCH   8  11
ATOM     11  C   UNL     1      -1.948   4.542   8.201  0.00  0.00    +0.134 C 
BRANCH  11  12
ATOM     12  C   UNL     1      -2.188   5.661   9.182  0.00  0.00    -0.014 A 
ATOM     13  C   UNL     1      -3.122   6.620   9.086  0.00  0.00    +0.087 A 
ATOM     14  N   UNL     1      -3.038   7.462  10.162  0.00  0.00    -0.360 N 
ATOM     15  H   UNL     1      -3.609   8.231  10.314  0.00  0.00    +0.165 HD
ATOM     16  C   UNL     1      -2.022   7.054  10.997  0.00  0.00    +0.047 A 
ATOM     17  C   UNL     1      -1.449   5.904  10.423  0.00  0.00    +0.003 A 
ATOM     18  C   UNL     1      -0.387   5.263  11.062  0.00  0.00    +0.010 A 
ATOM     19  C   UNL     1       0.090   5.753  12.245  0.00  0.00    +0.001 A 
ATOM     20  C   UNL     1      -0.475   6.884  12.818  0.00  0.00    +0.002 A 
ATOM     21  C   UNL     1      -1.518   7.539  12.200  0.00  0.00    +0.026 A 
ENDBRANCH  11  12
ENDBRANCH   8  11
ENDBRANCH   4   7
BRANCH   1  22
ATOM     22  C   UNL     1      -2.446  -1.361   5.694  0.00  0.00    +0.142 C 
BRANCH  22  26
ATOM     23  C   UNL     1      -0.050  -0.699   2.273  0.00  0.00    +0.215 A 
ATOM     24  C   UNL     1       0.566  -1.154   3.432  0.00  0.00    +0.067 A 
ATOM     25  C   UNL     1      -0.203  -1.376   4.561  0.00  0.00    +0.012 A 
ATOM     26  C   UNL     1      -1.568  -1.133   4.490  0.00  0.00    -0.012 A 
ATOM     27  C   UNL     1      -2.113  -0.681   3.305  0.00  0.00    +0.119 A 
ATOM     28  N   UNL     1      -1.353  -0.474   2.246  0.00  0.00    -0.221 NA
BRANCH  23  29
ATOM     29  O   UNL     1       0.693  -0.477   1.160  0.00  0.00    -0.474 OA
BRANCH  29  31
ATOM     30  C   UNL     1      -0.019   1.526   0.010  0.00  0.00    +0.051 C 
ATOM     31  C   UNL     1       0.002  -0.004   0.002  0.00  0.00    +0.169 C 
ATOM     32  C   UNL     1       0.718  -0.497  -1.257  0.00  0.00    +0.051 C 
ENDBRANCH  29  31
ENDBRANCH  23  29
ENDBRANCH  22  26
ENDBRANCH   1  22
TORSDOF 7
