REMARK  Name = ZINC10041262
REMARK  12 active torsions:
REMARK  status: ('A' for Active; 'I' for Inactive)
REMARK    1  A    between atoms: C_1  and  C_2
REMARK    2  A    between atoms: C_2  and  O_3
REMARK    3  A    between atoms: O_3  and  C_4
REMARK    4  A    between atoms: C_6  and  C_11
REMARK    5  A    between atoms: C_9  and  O_10
REMARK    6  A    between atoms: N_12  and  N_13
REMARK    7  A    between atoms: C_14  and  C_16
REMARK    8  A    between atoms: C_16  and  C_18
REMARK    9  A    between atoms: C_16  and  N_21
REMARK   10  A    between atoms: C_18  and  C_19
REMARK   11  A    between atoms: C_18  and  C_20
REMARK   12  A    between atoms: C_22  and  C_24
REMARK                            x       y       z     vdW  Elec       q    Type
REMARK                         _______ _______ _______ _____ _____    ______ ____
ROOT
ATOM      1  N   UNL     1      -0.148  -7.212   1.480  0.00  0.00    -0.205 N 
ATOM      2  C   UNL     1      -0.481  -8.474   1.143  0.00  0.00    +0.253 C 
ATOM      3  O   UNL     1      -0.374  -8.842  -0.008  0.00  0.00    -0.272 OA
ATOM      4  H   UNL     1      -0.302  -6.894   2.384  0.00  0.00    +0.177 HD
ENDROOT
BRANCH   1   6
ATOM      5  C   UNL     1       0.743  -5.144   0.850  0.00  0.00    +0.138 C 
ATOM      6  N   UNL     1       0.421  -6.359   0.525  0.00  0.00    -0.188 NA
BRANCH   5   9
ATOM      7  C   UNL     1       2.249  -2.101  -0.753  0.00  0.00    +0.162 A 
ATOM      8  C   UNL     1       1.688  -2.938   0.193  0.00  0.00    +0.059 A 
ATOM      9  C   UNL     1       1.342  -4.247  -0.154  0.00  0.00    -0.002 A 
ATOM     10  C   UNL     1       1.565  -4.702  -1.456  0.00  0.00    +0.013 A 
ATOM     11  C   UNL     1       2.125  -3.861  -2.394  0.00  0.00    +0.050 A 
ATOM     12  C   UNL     1       2.464  -2.560  -2.050  0.00  0.00    +0.158 A 
BRANCH  12  13
ATOM     13  O   UNL     1       3.010  -1.734  -2.981  0.00  0.00    -0.503 OA
ATOM     14  H   UNL     1       3.976  -1.769  -3.019  0.00  0.00    +0.292 HD
ENDBRANCH  12  13
BRANCH   7  15
ATOM     15  O   UNL     1       2.587  -0.827  -0.418  0.00  0.00    -0.489 OA
BRANCH  15  17
ATOM     16  C   UNL     1       2.776   1.032   1.115  0.00  0.00    +0.048 C 
ATOM     17  C   UNL     1       2.334  -0.421   0.929  0.00  0.00    +0.226 C 
ENDBRANCH  15  17
ENDBRANCH   7  15
ENDBRANCH   5   9
ENDBRANCH   1   6
BRANCH   2  18
ATOM     18  C   UNL     1      -0.988  -9.426   2.196  0.00  0.00    +0.163 C 
BRANCH  18  19
ATOM     19  N   UNL     1      -0.636 -10.798   1.822  0.00  0.00    -0.300 N 
ATOM     20  C   UNL     1      -0.515 -11.745   2.773  0.00  0.00    +0.246 C 
ATOM     21  O   UNL     1      -0.696 -11.461   3.941  0.00  0.00    -0.270 OA
ATOM     22  H   UNL     1      -0.491 -11.025   0.890  0.00  0.00    +0.150 HD
BRANCH  20  23
ATOM     23  C   UNL     1      -0.161 -13.129   2.396  0.00  0.00    +0.055 A 
ATOM     24  C   UNL     1       0.049 -13.459   1.055  0.00  0.00    +0.016 A 
ATOM     25  C   UNL     1       0.379 -14.752   0.710  0.00  0.00    +0.021 A 
ATOM     26  C   UNL     1       0.503 -15.724   1.689  0.00  0.00    +0.042 A 
ATOM     27  C   UNL     1       0.297 -15.405   3.020  0.00  0.00    +0.040 A 
ATOM     28  C   UNL     1      -0.028 -14.112   3.380  0.00  0.00    +0.054 A 
ATOM     29 CL   UNL     1      -0.278 -13.711   5.050  0.00  0.00    -0.083 Cl
ATOM     30 CL   UNL     1       0.920 -17.350   1.245  0.00  0.00    -0.083 Cl
ENDBRANCH  20  23
ENDBRANCH  18  19
BRANCH  18  31
ATOM     31  C   UNL     1      -2.508  -9.301   2.307  0.00  0.00    +0.012 C 
ATOM     32  C   UNL     1      -3.011 -10.195   3.442  0.00  0.00    +0.009 C 
ATOM     33  C   UNL     1      -2.880  -7.846   2.601  0.00  0.00    +0.009 C 
ENDBRANCH  18  31
ENDBRANCH   2  18
TORSDOF 9
