REMARK  Name = ZINC16162708
REMARK  13 active torsions:
REMARK  status: ('A' for Active; 'I' for Inactive)
REMARK    1  A    between atoms: C_1  and  C_2
REMARK    2  A    between atoms: C_2  and  N_3
REMARK    3  A    between atoms: C_4  and  C_26
REMARK    4  A    between atoms: C_6  and  O_25
REMARK    5  A    between atoms: C_7  and  C_10
REMARK    6  A    between atoms: C_10  and  C_11
REMARK    7  A    between atoms: C_10  and  C_22
REMARK    8  A    between atoms: C_12  and  O_21
REMARK    9  A    between atoms: C_14  and  C_20
REMARK   10  A    between atoms: N_15  and  C_18
REMARK   11  A    between atoms: C_18  and  C_19
REMARK   12  A    between atoms: C_22  and  C_23
REMARK   13  A    between atoms: C_22  and  C_24
REMARK                            x       y       z     vdW  Elec       q    Type
REMARK                         _______ _______ _______ _____ _____    ______ ____
ROOT
ATOM      1  C   UNL     1      -1.256  -0.525  -0.007  0.00  0.00    +0.069 C 
ENDROOT
BRANCH   1   6
ATOM      2  N   UNL     1       0.420   2.834  -0.186  0.00  0.00    -0.312 N 
ATOM      3  C   UNL     1       1.731   2.494  -0.298  0.00  0.00    +0.022 A 
ATOM      4  C   UNL     1       2.112   1.199  -0.320  0.00  0.00    +0.067 A 
ATOM      5  C   UNL     1       1.141   0.182  -0.225  0.00  0.00    +0.127 A 
ATOM      6  C   UNL     1      -0.191   0.535  -0.111  0.00  0.00    +0.066 A 
ATOM      7  C   UNL     1      -0.536   1.892  -0.093  0.00  0.00    +0.259 A 
ATOM      8  O   UNL     1      -1.708   2.221   0.003  0.00  0.00    -0.267 OA
ATOM      9  C   UNL     1       2.774   3.577  -0.400  0.00  0.00    +0.064 C 
BRANCH   2  11
ATOM     10  C   UNL     1       0.038   4.755   1.279  0.00  0.00    +0.027 C 
ATOM     11  C   UNL     1       0.042   4.249  -0.165  0.00  0.00    +0.122 C 
ENDBRANCH   2  11
BRANCH   5  12
ATOM     12  O   UNL     1       1.507  -1.122  -0.246  0.00  0.00    -0.506 OA
ATOM     13  H   UNL     1       2.460  -1.262  -0.329  0.00  0.00    +0.292 HD
ENDBRANCH   5  12
ENDBRANCH   1   6
BRANCH   1  14
ATOM     14  C   UNL     1      -2.182  -0.424  -1.192  0.00  0.00    +0.066 A 
ATOM     15  C   UNL     1      -3.357   0.298  -1.103  0.00  0.00    +0.127 A 
ATOM     16  C   UNL     1      -4.198   0.376  -2.231  0.00  0.00    +0.067 A 
ATOM     17  C   UNL     1      -3.852  -0.259  -3.372  0.00  0.00    +0.022 A 
ATOM     18  N   UNL     1      -2.697  -0.972  -3.450  0.00  0.00    -0.312 N 
ATOM     19  C   UNL     1      -1.866  -1.066  -2.396  0.00  0.00    +0.259 A 
ATOM     20  O   UNL     1      -0.834  -1.712  -2.489  0.00  0.00    -0.267 OA
ATOM     21  C   UNL     1      -4.758  -0.177  -4.573  0.00  0.00    +0.064 C 
BRANCH  18  22
ATOM     22  C   UNL     1      -2.352  -1.649  -4.702  0.00  0.00    +0.122 C 
ATOM     23  C   UNL     1      -1.524  -0.708  -5.580  0.00  0.00    +0.027 C 
ENDBRANCH  18  22
BRANCH  15  24
ATOM     24  O   UNL     1      -3.693   0.926   0.049  0.00  0.00    -0.506 OA
ATOM     25  H   UNL     1      -4.533   1.403   0.007  0.00  0.00    +0.292 HD
ENDBRANCH  15  24
ENDBRANCH   1  14
BRANCH   1  26
ATOM     26  C   UNL     1      -2.054  -0.323   1.282  0.00  0.00    -0.005 C 
ATOM     27  C   UNL     1      -3.204  -1.330   1.334  0.00  0.00    +0.008 C 
ATOM     28  C   UNL     1      -1.137  -0.533   2.488  0.00  0.00    +0.008 C 
ENDBRANCH   1  26
TORSDOF 7
