REMARK  Name = ZINC04762247
REMARK  12 active torsions:
REMARK  status: ('A' for Active; 'I' for Inactive)
REMARK    1  A    between atoms: C_1  and  C_2
REMARK    2  A    between atoms: C_7  and  C_25
REMARK    3  A    between atoms: C_9  and  C_13
REMARK    4  A    between atoms: C_10  and  C_12
REMARK    5  A    between atoms: C_13  and  O_15
REMARK    6  A    between atoms: O_15  and  C_16
REMARK    7  A    between atoms: C_16  and  C_17
REMARK    8  A    between atoms: C_20  and  O_23
REMARK    9  A    between atoms: O_23  and  C_24
REMARK   10  A    between atoms: C_34  and  C_36
REMARK   11  A    between atoms: C_36  and  O_38
REMARK   12  A    between atoms: O_38  and  C_39
REMARK                            x       y       z     vdW  Elec       q    Type
REMARK                         _______ _______ _______ _____ _____    ______ ____
ROOT
ATOM      1  C   UNL     1      -3.145   3.829  -3.425  0.00  0.00    +0.009 C 
ATOM      2  C   UNL     1      -4.265   2.799  -3.580  0.00  0.00    +0.013 C 
ATOM      3  C   UNL     1      -5.168   2.830  -2.345  0.00  0.00    +0.055 C 
ATOM      4  C   UNL     1      -4.366   2.461  -1.122  0.00  0.00    +0.016 C 
ATOM      5  C   UNL     1      -3.315   1.618  -1.206  0.00  0.00    +0.025 C 
ATOM      6  C   UNL     1      -2.519   1.253   0.021  0.00  0.00    +0.095 C 
ATOM      7  C   UNL     1      -3.282   1.575   1.273  0.00  0.00    +0.065 C 
ATOM      8  C   UNL     1      -4.328   2.419   1.255  0.00  0.00    +0.016 C 
ATOM      9  N   UNL     1      -4.729   3.000   0.084  0.00  0.00    -0.321 N 
ATOM     10  C   UNL     1      -5.064   2.726   2.533  0.00  0.00    +0.061 C 
ATOM     11  C   UNL     1      -2.931   1.059  -2.438  0.00  0.00    +0.176 C 
ATOM     12  O   UNL     1      -1.990   0.292  -2.478  0.00  0.00    -0.291 OA
ATOM     13  C   UNL     1      -3.665   1.394  -3.708  0.00  0.00    +0.171 C 
ATOM     14  H   UNL     1      -5.349   3.908   0.116  0.00  0.00    +0.152 HD
ENDROOT
BRANCH   6  15
ATOM     15  C   UNL     1      -1.224   2.023   0.019  0.00  0.00    -0.000 A 
ATOM     16  C   UNL     1      -1.242   3.405   0.031  0.00  0.00    +0.007 A 
ATOM     17  C   UNL     1      -0.054   4.112   0.024  0.00  0.00    +0.000 A 
ATOM     18  C   UNL     1       1.153   3.438   0.009  0.00  0.00    +0.003 A 
ATOM     19  C   UNL     1       1.173   2.056   0.002  0.00  0.00    +0.038 A 
ATOM     20  C   UNL     1      -0.016   1.347   0.009  0.00  0.00    +0.127 A 
ATOM     21  F   UNL     1       0.002  -0.004   0.002  0.00  0.00    -0.205 F 
ENDBRANCH   6  15
BRANCH   7  22
ATOM     22  C   UNL     1      -2.892   0.980   2.495  0.00  0.00    +0.338 C 
ATOM     23  O   UNL     1      -3.502   1.233   3.517  0.00  0.00    -0.245 OA
BRANCH  22  24
ATOM     24  O   UNL     1      -1.843   0.131   2.528  0.00  0.00    -0.457 OA
BRANCH  24  25
ATOM     25  C   UNL     1      -1.505  -0.433   3.797  0.00  0.00    +0.268 C 
BRANCH  25  26
ATOM     26  C   UNL     1      -0.318  -1.348   3.639  0.00  0.00    -0.010 A 
ATOM     27  C   UNL     1      -0.513  -2.688   3.360  0.00  0.00    +0.010 A 
ATOM     28  C   UNL     1       0.574  -3.528   3.209  0.00  0.00    +0.046 A 
ATOM     29  C   UNL     1       1.860  -3.029   3.350  0.00  0.00    +0.120 A 
ATOM     30  C   UNL     1       2.053  -1.685   3.636  0.00  0.00    +0.046 A 
ATOM     31  C   UNL     1       0.963  -0.848   3.780  0.00  0.00    +0.010 A 
BRANCH  29  32
ATOM     32  O   UNL     1       2.930  -3.854   3.209  0.00  0.00    -0.495 OA
ATOM     33  C   UNL     1       2.657  -5.226   2.915  0.00  0.00    +0.277 C 
ENDBRANCH  29  32
ENDBRANCH  25  26
ENDBRANCH  24  25
ENDBRANCH  22  24
ENDBRANCH   7  22
BRANCH  13  34
ATOM     34  C   UNL     1      -2.705   1.360  -4.869  0.00  0.00    +0.318 C 
ATOM     35  O   UNL     1      -2.519   2.355  -5.529  0.00  0.00    -0.250 OA
BRANCH  34  36
ATOM     36  O   UNL     1      -2.058   0.223  -5.171  0.00  0.00    -0.467 OA
ATOM     37  C   UNL     1      -1.149   0.263  -6.303  0.00  0.00    +0.280 C 
ENDBRANCH  34  36
ENDBRANCH  13  34
TORSDOF 8
