REMARK  Name = ZINC23368130
REMARK  10 active torsions:
REMARK  status: ('A' for Active; 'I' for Inactive)
REMARK    1  A    between atoms: C_3  and  N_11
REMARK    2  A    between atoms: C_6  and  N_7
REMARK    3  A    between atoms: C_12  and  C_14
REMARK    4  A    between atoms: C_14  and  S_15
REMARK    5  A    between atoms: S_15  and  C_16
REMARK    6  A    between atoms: C_19  and  C_28
REMARK    7  A    between atoms: N_20  and  C_21
REMARK    8  A    between atoms: C_21  and  C_22
REMARK    9  A    between atoms: C_28  and  C_29
REMARK   10  A    between atoms: C_29  and  C_30
REMARK                            x       y       z     vdW  Elec       q    Type
REMARK                         _______ _______ _______ _____ _____    ______ ____
ROOT
ATOM      1  C   UNL     1      -2.023   1.715   2.988  0.00  0.00    +0.192 A 
ATOM      2  N   UNL     1      -1.240   2.766   2.921  0.00  0.00    -0.122 NA
ATOM      3  N   UNL     1      -0.448   2.657   1.914  0.00  0.00    -0.134 NA
ATOM      4  C   UNL     1      -0.683   1.544   1.279  0.00  0.00    +0.135 A 
ATOM      5  N   UNL     1      -1.692   0.902   1.942  0.00  0.00    -0.303 N 
ENDROOT
BRANCH   1   6
ATOM      6  S   UNL     1      -3.266   1.410   4.199  0.00  0.00    -0.077 S 
BRANCH   6   7
ATOM      7  C   UNL     1      -3.095   2.904   5.207  0.00  0.00    +0.173 C 
BRANCH   7   9
ATOM      8  N   UNL     1      -4.146   3.876   7.225  0.00  0.00    -0.284 N 
ATOM      9  C   UNL     1      -4.090   2.862   6.339  0.00  0.00    +0.228 C 
ATOM     10  O   UNL     1      -4.840   1.916   6.452  0.00  0.00    -0.275 OA
ATOM     11  H   UNL     1      -3.417   4.698   7.166  0.00  0.00    +0.155 HD
BRANCH   8  14
ATOM     12  C   UNL     1      -6.526   2.700   9.769  0.00  0.00    +0.034 A 
ATOM     13  C   UNL     1      -5.554   2.690   8.787  0.00  0.00    +0.027 A 
ATOM     14  C   UNL     1      -5.130   3.883   8.220  0.00  0.00    +0.052 A 
ATOM     15  C   UNL     1      -5.681   5.086   8.645  0.00  0.00    +0.064 A 
ATOM     16  C   UNL     1      -6.657   5.089   9.624  0.00  0.00    +0.054 A 
ATOM     17  C   UNL     1      -7.077   3.897  10.187  0.00  0.00    +0.128 A 
ATOM     18 CL   UNL     1      -5.150   6.583   7.944  0.00  0.00    -0.082 Cl
BRANCH  17  19
ATOM     19  N   UNL     1      -8.118   3.904  11.239  0.00  0.00    +0.056 N 
ATOM     20  O   UNL     1      -8.488   2.856  11.736  0.00  0.00    -0.126 OA
ATOM     21  O   UNL     1      -8.604   4.958  11.608  0.00  0.00    -0.126 OA
ENDBRANCH  17  19
ENDBRANCH   8  14
ENDBRANCH   7   9
ENDBRANCH   6   7
ENDBRANCH   1   6
BRANCH   5  22
ATOM     22  C   UNL     1      -2.292  -0.390   1.602  0.00  0.00    +0.157 C 
BRANCH  22  23
ATOM     23  C   UNL     1      -1.530  -1.510   2.312  0.00  0.00    +0.138 C 
ATOM     24  C   UNL     1      -2.078  -2.883   1.865  0.00  0.00    +0.035 C 
ATOM     25  C   UNL     1      -2.057  -3.693   3.192  0.00  0.00    +0.031 C 
ATOM     26  C   UNL     1      -2.383  -2.582   4.221  0.00  0.00    +0.160 C 
ATOM     27  O   UNL     1      -1.720  -1.407   3.728  0.00  0.00    -0.375 OA
ENDBRANCH  22  23
ENDBRANCH   5  22
BRANCH   4  28
ATOM     28  C   UNL     1       0.030   1.052   0.046  0.00  0.00    +0.085 C 
BRANCH  28  29
ATOM     29  C   UNL     1      -0.700   1.556  -1.200  0.00  0.00    +0.103 C 
BRANCH  29  30
ATOM     30  C   UNL     1       0.012   1.064  -2.434  0.00  0.00    +0.211 C 
ATOM     31  O   UNL     1       1.007   0.378  -2.327  0.00  0.00    -0.276 OA
ATOM     32  N   UNL     1      -0.455   1.387  -3.656  0.00  0.00    -0.329 N 
ATOM     33  H   UNL     1       0.065   1.028  -4.556  0.00  0.00    +0.145 HD
ATOM     34  H   UNL     1      -1.357   2.009  -3.753  0.00  0.00    +0.145 HD
ENDBRANCH  29  30
ENDBRANCH  28  29
ENDBRANCH   4  28
TORSDOF 10
