REMARK  Name = ZINC37205799
REMARK  5 active torsions:
REMARK  status: ('A' for Active; 'I' for Inactive)
REMARK    1  A    between atoms: C_4  and  N_17
REMARK    2  A    between atoms: C_5  and  C_7
REMARK    3  A    between atoms: C_7  and  S_8
REMARK    4  A    between atoms: S_8  and  C_9
REMARK    5  A    between atoms: C_14  and  N_15
REMARK                            x       y       z     vdW  Elec       q    Type
REMARK                         _______ _______ _______ _____ _____    ______ ____
ROOT
ATOM      1  S   UNL     1       0.967  -2.849   1.566  0.00  0.00    -0.119 S 
ENDROOT
BRANCH   1   2
ATOM      2  C   UNL     1       0.959  -4.596   1.333  0.00  0.00    +0.029 A 
ATOM      3  C   UNL     1       1.084  -5.128   0.059  0.00  0.00    +0.017 A 
ATOM      4  C   UNL     1       1.078  -6.499  -0.122  0.00  0.00    +0.016 A 
ATOM      5  C   UNL     1       0.947  -7.343   0.966  0.00  0.00    +0.020 A 
ATOM      6  C   UNL     1       0.823  -6.820   2.241  0.00  0.00    +0.039 A 
ATOM      7  C   UNL     1       0.833  -5.447   2.432  0.00  0.00    +0.039 A 
ATOM      8 BR   UNL     1       0.939  -9.217   0.711  0.00  0.00    -0.050 Br
BRANCH   7   9
ATOM      9  N   UNL     1       0.712  -4.916   3.721  0.00  0.00    -0.357 N 
ATOM     10  H   UNL     1       0.715  -3.955   3.852  0.00  0.00    +0.142 HD
ATOM     11  H   UNL     1       0.624  -5.509   4.484  0.00  0.00    +0.142 HD
ENDBRANCH   7   9
ENDBRANCH   1   2
BRANCH   1  12
ATOM     12  C   UNL     1       1.149  -2.184  -0.112  0.00  0.00    +0.111 C 
BRANCH  12  17
ATOM     13  C   UNL     1       0.006   1.414  -0.067  0.00  0.00    +0.000 A 
ATOM     14  C   UNL     1       1.210   2.084   0.046  0.00  0.00    +0.002 A 
ATOM     15  C   UNL     1       2.393   1.374   0.107  0.00  0.00    +0.033 A 
ATOM     16  C   UNL     1       2.374  -0.008   0.056  0.00  0.00    +0.130 A 
ATOM     17  C   UNL     1       1.170  -0.678  -0.055  0.00  0.00    -0.007 A 
ATOM     18  C   UNL     1      -0.014   0.033  -0.118  0.00  0.00    +0.007 A 
BRANCH  16  19
ATOM     19  N   UNL     1       3.642  -0.769   0.121  0.00  0.00    +0.057 N 
ATOM     20  O   UNL     1       3.688  -1.816   0.723  0.00  0.00    -0.126 OA
ATOM     21  O   UNL     1       4.631  -0.343  -0.428  0.00  0.00    -0.126 OA
ENDBRANCH  16  19
ENDBRANCH  12  17
ENDBRANCH   1  12
TORSDOF 5
