REMARK  Name = ZINC36956686
REMARK  7 active torsions:
REMARK  status: ('A' for Active; 'I' for Inactive)
REMARK    1  A    between atoms: C_1  and  C_2
REMARK    2  A    between atoms: C_2  and  C_4
REMARK    3  A    between atoms: C_2  and  N_13
REMARK    4  A    between atoms: C_7  and  O_11
REMARK    5  A    between atoms: C_9  and  O_10
REMARK    6  A    between atoms: O_11  and  C_12
REMARK    7  A    between atoms: N_13  and  C_14
REMARK                            x       y       z     vdW  Elec       q    Type
REMARK                         _______ _______ _______ _____ _____    ______ ____
ROOT
ATOM      1  C   UNL     1      -0.083   1.524   0.019  0.00  0.00    +0.033 C 
ATOM      2  C   UNL     1       0.002  -0.004   0.002  0.00  0.00    +0.101 C 
ENDROOT
BRANCH   2   3
ATOM      3  C   UNL     1       0.866  -0.446  -1.151  0.00  0.00    +0.014 A 
ATOM      4  C   UNL     1       2.218  -0.657  -0.959  0.00  0.00    +0.012 A 
ATOM      5  C   UNL     1       3.013  -1.063  -2.014  0.00  0.00    +0.046 A 
ATOM      6  C   UNL     1       2.455  -1.259  -3.269  0.00  0.00    +0.124 A 
ATOM      7  C   UNL     1       1.099  -1.048  -3.464  0.00  0.00    +0.091 A 
ATOM      8  C   UNL     1       0.302  -0.647  -2.403  0.00  0.00    +0.125 A 
BRANCH   8   9
ATOM      9  O   UNL     1      -1.028  -0.445  -2.589  0.00  0.00    -0.506 OA
ATOM     10  H   UNL     1      -1.257   0.458  -2.849  0.00  0.00    +0.292 HD
ENDBRANCH   8   9
BRANCH   6  11
ATOM     11  O   UNL     1       3.237  -1.658  -4.306  0.00  0.00    -0.495 OA
ATOM     12  C   UNL     1       4.626  -1.855  -4.033  0.00  0.00    +0.277 C 
ENDBRANCH   6  11
ENDBRANCH   2   3
BRANCH   2  13
ATOM     13  N   UNL     1       0.588  -0.474   1.260  0.00  0.00    -0.336 N 
ATOM     14  H   UNL     1       1.541  -0.646   1.317  0.00  0.00    +0.147 HD
BRANCH  13  15
ATOM     15  C   UNL     1      -0.227  -0.675   2.378  0.00  0.00    +0.042 A 
ATOM     16  C   UNL     1      -1.592  -0.435   2.296  0.00  0.00    +0.025 A 
ATOM     17  C   UNL     1      -2.395  -0.636   3.402  0.00  0.00    +0.017 A 
ATOM     18  C   UNL     1      -1.840  -1.074   4.591  0.00  0.00    +0.019 A 
ATOM     19  C   UNL     1      -0.480  -1.314   4.676  0.00  0.00    +0.032 A 
ATOM     20  C   UNL     1       0.327  -1.121   3.572  0.00  0.00    +0.040 A 
ATOM     21 BR   UNL     1       2.185  -1.457   3.686  0.00  0.00    -0.048 Br
ATOM     22 BR   UNL     1      -2.942  -1.346   6.104  0.00  0.00    -0.050 Br
ENDBRANCH  13  15
ENDBRANCH   2  13
TORSDOF 5
