REMARK  Name = ZINC03665554
REMARK  10 active torsions:
REMARK  status: ('A' for Active; 'I' for Inactive)
REMARK    1  A    between atoms: C_1  and  C_2
REMARK    2  A    between atoms: C_2  and  C_3
REMARK    3  A    between atoms: C_8  and  N_9
REMARK    4  A    between atoms: N_9  and  C_10
REMARK    5  A    between atoms: C_10  and  N_12
REMARK    6  A    between atoms: N_12  and  C_13
REMARK    7  A    between atoms: N_12  and  C_20
REMARK    8  A    between atoms: C_13  and  C_14
REMARK    9  A    between atoms: C_14  and  N_55
REMARK   10  A    between atoms: C_20  and  C_21
REMARK                            x       y       z     vdW  Elec       q    Type
REMARK                         _______ _______ _______ _____ _____    ______ ____
ROOT
ATOM      1  N   UNL     1      -2.322   6.864   1.423  0.00  0.00    -0.307 N 
ENDROOT
BRANCH   1   2
ATOM      2  C   UNL     1      -1.334   7.707   1.782  0.00  0.00    +0.137 C 
ATOM      3  S   UNL     1       0.235   7.100   2.100  0.00  0.00    -0.018 S 
BRANCH   2   4
ATOM      4  N   UNL     1      -1.581   9.028   1.890  0.00  0.00    -0.297 N 
ATOM      5  H   UNL     1      -1.714   9.426   2.764  0.00  0.00    +0.154 HD
BRANCH   4  11
ATOM      6  C   UNL     1      -1.799  11.199   0.855  0.00  0.00    -0.026 A 
ATOM      7  C   UNL     1      -1.860  11.982  -0.281  0.00  0.00    +0.005 A 
ATOM      8  C   UNL     1      -1.767  11.398  -1.531  0.00  0.00    +0.000 A 
ATOM      9  C   UNL     1      -1.612  10.029  -1.648  0.00  0.00    +0.002 A 
ATOM     10  C   UNL     1      -1.545   9.241  -0.516  0.00  0.00    +0.023 A 
ATOM     11  C   UNL     1      -1.643   9.824   0.741  0.00  0.00    +0.036 A 
BRANCH   6  13
ATOM     12  C   UNL     1      -0.498  12.172   2.729  0.00  0.00    +0.009 C 
ATOM     13  C   UNL     1      -1.900  11.836   2.217  0.00  0.00    +0.033 C 
ENDBRANCH   6  13
ENDBRANCH   4  11
ENDBRANCH   2   4
ENDBRANCH   1   2
BRANCH   1  14
ATOM     14  C   UNL     1      -2.082   5.419   1.403  0.00  0.00    +0.089 C 
BRANCH  14  15
ATOM     15  C   UNL     1      -1.575   5.006   0.019  0.00  0.00    -0.060 C 
BRANCH  15  21
ATOM     16  C   UNL     1      -0.627   3.158  -1.225  0.00  0.00    -0.079 C 
ATOM     17  C   UNL     1      -0.522   1.633  -1.281  0.00  0.00    -0.019 C 
ATOM     18  C   UNL     1       0.234   1.132  -0.047  0.00  0.00    -0.004 C 
ATOM     19  C   UNL     1      -0.494   1.602   1.215  0.00  0.00    -0.019 C 
ATOM     20  C   UNL     1      -0.601   3.129   1.198  0.00  0.00    -0.079 C 
ATOM     21  N   UNL     1      -1.360   3.544  -0.001  0.00  0.00    +0.381 N 
ATOM     22  H   UNL     1      -2.273   3.073   0.003  0.00  0.00    -0.082 HD
ENDBRANCH  15  21
ENDBRANCH  14  15
ENDBRANCH   1  14
BRANCH   1  23
ATOM     23  C   UNL     1      -3.638   7.393   1.054  0.00  0.00    +0.180 C 
BRANCH  23  24
ATOM     24  C   UNL     1      -4.545   7.370   2.257  0.00  0.00    +0.122 A 
ATOM     25  C   UNL     1      -4.761   8.396   3.099  0.00  0.00    +0.046 A 
ATOM     26  C   UNL     1      -5.674   7.939   4.077  0.00  0.00    +0.041 A 
ATOM     27  C   UNL     1      -5.960   6.660   3.774  0.00  0.00    +0.195 A 
ATOM     28  O   UNL     1      -5.278   6.322   2.668  0.00  0.00    -0.466 OA
ENDBRANCH  23  24
ENDBRANCH   1  23
TORSDOF 9
