REMARK  Name = ZINC00293604
REMARK  3 active torsions:
REMARK  status: ('A' for Active; 'I' for Inactive)
REMARK    1  A    between atoms: C_1  and  C_2
REMARK    2  A    between atoms: C_11  and  C_12
REMARK    3  A    between atoms: C_12  and  N_23
REMARK                            x       y       z     vdW  Elec       q    Type
REMARK                         _______ _______ _______ _____ _____    ______ ____
ROOT
ATOM      1  C   UNL     1      -1.288   2.120   0.020  0.00  0.00    +0.177 C 
ATOM      2  C   UNL     1      -2.080   2.116  -1.079  0.00  0.00    +0.171 C 
ATOM      3  C   UNL     1      -1.793   1.425  -2.343  0.00  0.00    +0.034 A 
ATOM      4  C   UNL     1      -0.744   0.634  -2.802  0.00  0.00    +0.012 A 
ATOM      5  C   UNL     1      -0.784   0.122  -4.083  0.00  0.00    +0.001 A 
ATOM      6  C   UNL     1      -1.859   0.390  -4.918  0.00  0.00    +0.001 A 
ATOM      7  C   UNL     1      -2.909   1.173  -4.482  0.00  0.00    +0.016 A 
ATOM      8  C   UNL     1      -2.889   1.698  -3.193  0.00  0.00    +0.070 A 
ATOM      9  C   UNL     1      -3.804   2.545  -2.416  0.00  0.00    +0.345 C 
ATOM     10  O   UNL     1      -4.866   2.988  -2.809  0.00  0.00    -0.245 OA
ATOM     11  O   UNL     1      -3.275   2.744  -1.196  0.00  0.00    -0.419 OA
ENDROOT
BRANCH   1  22
ATOM     12  C   UNL     1      -1.296  -0.769   0.010  0.00  0.00    +0.044 C 
ATOM     13  C   UNL     1       0.002  -0.004   0.002  0.00  0.00    -0.040 A 
ATOM     14  C   UNL     1       1.206  -0.693  -0.014  0.00  0.00    +0.004 A 
ATOM     15  C   UNL     1       2.404  -0.046  -0.021  0.00  0.00    +0.009 A 
ATOM     16  C   UNL     1       2.462   1.359  -0.014  0.00  0.00    -0.017 A 
ATOM     17  C   UNL     1       3.692   2.039  -0.022  0.00  0.00    +0.008 A 
ATOM     18  C   UNL     1       3.707   3.401  -0.014  0.00  0.00    +0.001 A 
ATOM     19  C   UNL     1       2.522   4.132   0.001  0.00  0.00    +0.001 A 
ATOM     20  C   UNL     1       1.312   3.503   0.008  0.00  0.00    +0.009 A 
ATOM     21  C   UNL     1       1.259   2.105   0.001  0.00  0.00    -0.008 A 
ATOM     22  C   UNL     1      -0.017   1.388   0.010  0.00  0.00    +0.019 A 
ENDBRANCH   1  22
BRANCH   1  23
ATOM     23  N   UNL     1      -1.705   2.863   1.231  0.00  0.00    +0.061 N 
ATOM     24  O   UNL     1      -2.760   3.471   1.240  0.00  0.00    -0.126 OA
ATOM     25  O   UNL     1      -0.992   2.866   2.219  0.00  0.00    -0.126 OA
ENDBRANCH   1  23
TORSDOF 2
