REMARK  Name = ZINC32733942
REMARK  9 active torsions:
REMARK  status: ('A' for Active; 'I' for Inactive)
REMARK    1  A    between atoms: C_1  and  C_2
REMARK    2  A    between atoms: C_2  and  C_3
REMARK    3  A    between atoms: C_6  and  C_9
REMARK    4  A    between atoms: C_9  and  C_11
REMARK    5  A    between atoms: C_9  and  N_27
REMARK    6  A    between atoms: C_11  and  N_12
REMARK    7  A    between atoms: C_13  and  C_15
REMARK    8  A    between atoms: N_27  and  C_28
REMARK    9  A    between atoms: N_27  and  C_29
REMARK                            x       y       z     vdW  Elec       q    Type
REMARK                         _______ _______ _______ _____ _____    ______ ____
ROOT
ATOM      1  N   UNL     1       5.177  -3.149   1.790  0.00  0.00    -0.311 N 
ATOM      2  C   UNL     1       5.554  -1.970   2.323  0.00  0.00    +0.260 C 
ATOM      3  O   UNL     1       5.463  -0.949   1.667  0.00  0.00    -0.269 OA
ATOM      4  H   UNL     1       5.260  -4.072   2.382  0.00  0.00    +0.149 HD
ENDROOT
BRANCH   2   5
ATOM      5  C   UNL     1       6.078  -1.917   3.700  0.00  0.00    +0.105 A 
ATOM      6  C   UNL     1       6.451  -0.719   4.215  0.00  0.00    +0.039 A 
ATOM      7  C   UNL     1       6.973  -0.656   5.581  0.00  0.00    -0.011 A 
ATOM      8  C   UNL     1       7.372   0.550   6.160  0.00  0.00    +0.009 A 
ATOM      9  C   UNL     1       7.856   0.556   7.450  0.00  0.00    +0.001 A 
ATOM     10  C   UNL     1       7.951  -0.623   8.178  0.00  0.00    +0.001 A 
ATOM     11  C   UNL     1       7.567  -1.825   7.623  0.00  0.00    +0.014 A 
ATOM     12  C   UNL     1       7.069  -1.856   6.322  0.00  0.00    +0.046 A 
ATOM     13  C   UNL     1       6.642  -3.110   5.686  0.00  0.00    +0.257 A 
ATOM     14  O   UNL     1       6.711  -4.162   6.296  0.00  0.00    -0.267 OA
ATOM     15  N   UNL     1       6.173  -3.086   4.423  0.00  0.00    -0.318 N 
ATOM     16  H   UNL     1       5.860  -4.039   3.972  0.00  0.00    +0.169 HD
ENDBRANCH   2   5
BRANCH   1  17
ATOM     17  C   UNL     1       4.657  -3.201   0.421  0.00  0.00    +0.094 C 
BRANCH  17  18
ATOM     18  C   UNL     1       4.429  -4.660   0.018  0.00  0.00    -0.021 C 
BRANCH  18  22
ATOM     19  C   UNL     1       8.164  -6.732  -0.010  0.00  0.00    -0.048 A 
ATOM     20  C   UNL     1       7.310  -6.860   1.070  0.00  0.00    +0.004 A 
ATOM     21  C   UNL     1       6.102  -6.189   1.079  0.00  0.00    +0.002 A 
ATOM     22  C   UNL     1       5.746  -5.391   0.008  0.00  0.00    -0.059 A 
ATOM     23  C   UNL     1       6.597  -5.266  -1.074  0.00  0.00    +0.002 A 
ATOM     24  C   UNL     1       7.808  -5.933  -1.081  0.00  0.00    +0.004 A 
BRANCH  19  26
ATOM     25  C   UNL     1       9.294  -8.842  -0.658  0.00  0.00    +0.009 C 
ATOM     26  C   UNL     1       9.481  -7.464  -0.021  0.00  0.00    +0.032 C 
ENDBRANCH  19  26
ENDBRANCH  18  22
BRANCH  18  27
ATOM     27  N   UNL     1       3.831  -4.709  -1.323  0.00  0.00    +0.382 N 
ATOM     28  C   UNL     1       3.549  -6.094  -1.723  0.00  0.00    -0.096 C 
ATOM     29  C   UNL     1       2.617  -3.884  -1.389  0.00  0.00    -0.096 C 
ATOM     30  H   UNL     1       4.561  -4.294  -2.034  0.00  0.00    -0.082 HD
ENDBRANCH  18  27
ENDBRANCH  17  18
ENDBRANCH   1  17
TORSDOF 6
