REMARK  Name = ZINC04697845
REMARK  7 active torsions:
REMARK  status: ('A' for Active; 'I' for Inactive)
REMARK    1  A    between atoms: C_1  and  C_2
REMARK    2  A    between atoms: C_2  and  N_3
REMARK    3  A    between atoms: N_3  and  N_4
REMARK    4  A    between atoms: C_5  and  C_7
REMARK    5  A    between atoms: C_7  and  C_8
REMARK    6  A    between atoms: C_15  and  C_16
REMARK    7  A    between atoms: N_18  and  C_19
REMARK                            x       y       z     vdW  Elec       q    Type
REMARK                         _______ _______ _______ _____ _____    ______ ____
ROOT
ATOM      1  C   UNL     1      -0.085   1.092  -0.017  0.00  0.00    +0.062 C 
ATOM      2  C   UNL     1      -0.820   1.507  -1.265  0.00  0.00    +0.024 C 
ATOM      3  C   UNL     1      -2.135   1.800  -1.208  0.00  0.00    +0.087 C 
ENDROOT
BRANCH   3   4
ATOM      4  C   UNL     1      -2.782   2.369  -2.329  0.00  0.00    +0.243 C 
ATOM      5  O   UNL     1      -2.130   2.712  -3.299  0.00  0.00    -0.270 OA
ATOM      6  N   UNL     1      -4.120   2.533  -2.324  0.00  0.00    -0.282 N 
ATOM      7  H   UNL     1      -4.631   2.328  -1.526  0.00  0.00    +0.155 HD
BRANCH   6   8
ATOM      8  C   UNL     1      -4.772   2.998  -3.471  0.00  0.00    +0.037 A 
ATOM      9  C   UNL     1      -4.289   2.655  -4.725  0.00  0.00    +0.023 A 
ATOM     10  C   UNL     1      -4.934   3.117  -5.855  0.00  0.00    +0.002 A 
ATOM     11  C   UNL     1      -6.051   3.918  -5.730  0.00  0.00    +0.004 A 
ATOM     12  C   UNL     1      -6.538   4.265  -4.476  0.00  0.00    -0.042 A 
ATOM     13  C   UNL     1      -5.907   3.800  -3.346  0.00  0.00    -0.023 A 
ATOM     14  C   UNL     1      -6.392   4.118  -1.956  0.00  0.00    +0.037 C 
ATOM     15  C   UNL     1      -7.340   5.316  -1.979  0.00  0.00    +0.005 C 
ATOM     16  C   UNL     1      -8.417   5.060  -3.040  0.00  0.00    +0.005 C 
ATOM     17  C   UNL     1      -7.757   5.148  -4.418  0.00  0.00    +0.035 C 
ENDBRANCH   6   8
ENDBRANCH   3   4
BRANCH   2  18
ATOM     18  N   UNL     1      -0.153   1.586  -2.456  0.00  0.00    -0.269 N 
ATOM     19  H   UNL     1      -0.610   1.913  -3.247  0.00  0.00    +0.170 HD
BRANCH  18  20
ATOM     20  N   UNL     1       1.190   1.196  -2.534  0.00  0.00    -0.237 N 
ATOM     21  C   UNL     1       1.878   1.371  -3.680  0.00  0.00    +0.233 C 
ATOM     22  O   UNL     1       1.333   1.866  -4.644  0.00  0.00    -0.274 OA
ATOM     23  H   UNL     1       1.626   0.799  -1.763  0.00  0.00    +0.173 HD
BRANCH  21  24
ATOM     24  C   UNL     1       3.322   0.950  -3.764  0.00  0.00    +0.132 C 
BRANCH  24  25
ATOM     25  C   UNL     1       3.854   1.252  -5.141  0.00  0.00    -0.038 A 
ATOM     26  C   UNL     1       3.755   0.304  -6.143  0.00  0.00    +0.005 A 
ATOM     27  C   UNL     1       4.242   0.580  -7.406  0.00  0.00    +0.020 A 
ATOM     28  C   UNL     1       4.830   1.805  -7.669  0.00  0.00    +0.041 A 
ATOM     29  C   UNL     1       4.929   2.753  -6.666  0.00  0.00    +0.020 A 
ATOM     30  C   UNL     1       4.436   2.478  -5.404  0.00  0.00    +0.005 A 
ATOM     31 CL   UNL     1       5.443   2.152  -9.255  0.00  0.00    -0.084 Cl
ENDBRANCH  24  25
ENDBRANCH  21  24
ENDBRANCH  18  20
ENDBRANCH   2  18
TORSDOF 6
