REMARK  Name = ZINC40342713
REMARK  10 active torsions:
REMARK  status: ('A' for Active; 'I' for Inactive)
REMARK    1  A    between atoms: C_1  and  C_2
REMARK    2  A    between atoms: C_2  and  O_3
REMARK    3  A    between atoms: O_3  and  C_4
REMARK    4  A    between atoms: C_6  and  C_11
REMARK    5  A    between atoms: C_9  and  O_10
REMARK    6  A    between atoms: C_14  and  C_31
REMARK    7  A    between atoms: N_21  and  C_22
REMARK    8  A    between atoms: C_22  and  C_23
REMARK    9  A    between atoms: C_26  and  O_29
REMARK   10  A    between atoms: O_29  and  C_30
REMARK                            x       y       z     vdW  Elec       q    Type
REMARK                         _______ _______ _______ _____ _____    ______ ____
ROOT
ATOM      1  C   UNL     1      -0.217  -4.963  -0.535  0.00  0.00    +0.142 C 
ATOM      2  C   UNL     1      -1.531  -5.513  -0.053  0.00  0.00    +0.035 A 
ATOM      3  C   UNL     1      -2.840  -5.245   0.364  0.00  0.00    +0.099 A 
ATOM      4  N   UNL     1      -3.408  -6.402   0.644  0.00  0.00    -0.173 NA
ATOM      5  N   UNL     1      -2.589  -7.372   0.446  0.00  0.00    -0.272 N 
ATOM      6  H   UNL     1      -2.791  -8.310   0.587  0.00  0.00    +0.189 HD
ATOM      7  C   UNL     1      -1.390  -6.886   0.007  0.00  0.00    +0.126 A 
ATOM      8  C   UNL     1      -0.030  -7.234  -0.420  0.00  0.00    +0.266 C 
ATOM      9  O   UNL     1       0.410  -8.366  -0.479  0.00  0.00    -0.268 OA
ATOM     10  N   UNL     1       0.660  -6.123  -0.739  0.00  0.00    -0.281 N 
ENDROOT
BRANCH   3  11
ATOM     11  C   UNL     1      -3.472  -3.907   0.471  0.00  0.00    +0.003 A 
ATOM     12  C   UNL     1      -2.712  -2.804   0.857  0.00  0.00    +0.011 A 
ATOM     13  C   UNL     1      -3.304  -1.562   0.955  0.00  0.00    +0.020 A 
ATOM     14  C   UNL     1      -4.651  -1.409   0.671  0.00  0.00    +0.041 A 
ATOM     15  C   UNL     1      -5.409  -2.502   0.287  0.00  0.00    +0.020 A 
ATOM     16  C   UNL     1      -4.825  -3.747   0.180  0.00  0.00    +0.011 A 
ATOM     17 CL   UNL     1      -5.390   0.156   0.797  0.00  0.00    -0.084 Cl
ENDBRANCH   3  11
BRANCH   1  20
ATOM     18  C   UNL     1       0.802  -1.825   1.306  0.00  0.00    +0.162 A 
ATOM     19  C   UNL     1       0.261  -2.673   0.353  0.00  0.00    +0.055 A 
ATOM     20  C   UNL     1       0.372  -4.043   0.502  0.00  0.00    -0.019 A 
ATOM     21  C   UNL     1       1.024  -4.570   1.602  0.00  0.00    +0.009 A 
ATOM     22  C   UNL     1       1.566  -3.730   2.557  0.00  0.00    +0.049 A 
ATOM     23  C   UNL     1       1.462  -2.356   2.410  0.00  0.00    +0.158 A 
BRANCH  23  24
ATOM     24  O   UNL     1       2.000  -1.528   3.345  0.00  0.00    -0.503 OA
ATOM     25  H   UNL     1       1.395  -1.301   4.064  0.00  0.00    +0.292 HD
ENDBRANCH  23  24
BRANCH  18  26
ATOM     26  O   UNL     1       0.693  -0.477   1.160  0.00  0.00    -0.489 OA
BRANCH  26  28
ATOM     27  C   UNL     1      -0.019   1.526   0.010  0.00  0.00    +0.048 C 
ATOM     28  C   UNL     1       0.002  -0.004   0.002  0.00  0.00    +0.226 C 
ENDBRANCH  26  28
ENDBRANCH  18  26
ENDBRANCH   1  20
BRANCH  10  29
ATOM     29  C   UNL     1       2.048  -6.078  -1.208  0.00  0.00    +0.144 C 
BRANCH  29  30
ATOM     30  C   UNL     1       2.974  -5.958  -0.025  0.00  0.00    -0.030 A 
ATOM     31  C   UNL     1       3.330  -4.708   0.449  0.00  0.00    +0.009 A 
ATOM     32  C   UNL     1       4.180  -4.595   1.532  0.00  0.00    +0.046 A 
ATOM     33  C   UNL     1       4.674  -5.737   2.146  0.00  0.00    +0.120 A 
ATOM     34  C   UNL     1       4.315  -6.989   1.670  0.00  0.00    +0.046 A 
ATOM     35  C   UNL     1       3.461  -7.097   0.589  0.00  0.00    +0.009 A 
BRANCH  33  36
ATOM     36  O   UNL     1       5.510  -5.628   3.212  0.00  0.00    -0.495 OA
ATOM     37  C   UNL     1       5.981  -6.846   3.794  0.00  0.00    +0.277 C 
ENDBRANCH  33  36
ENDBRANCH  29  30
ENDBRANCH  10  29
TORSDOF 8
