REMARK  Name = ZINC36889961
REMARK  4 active torsions:
REMARK  status: ('A' for Active; 'I' for Inactive)
REMARK    1  A    between atoms: C_1  and  C_2
REMARK    2  A    between atoms: C_3  and  C_7
REMARK    3  A    between atoms: C_9  and  C_10
REMARK    4  A    between atoms: C_10  and  C_12
REMARK                            x       y       z     vdW  Elec       q    Type
REMARK                         _______ _______ _______ _____ _____    ______ ____
ROOT
ATOM      1  C   UNL     1      -2.062   1.722  -0.256  0.00  0.00    +0.225 C 
ATOM      2  O   UNL     1      -0.869   1.475  -0.308  0.00  0.00    -0.284 OA
ENDROOT
BRANCH   1   3
ATOM      3  C   UNL     1      -2.539   3.099  -0.470  0.00  0.00    +0.176 A 
ATOM      4  C   UNL     1      -1.746   4.168  -0.737  0.00  0.00    +0.061 A 
ATOM      5  C   UNL     1      -2.643   5.315  -0.873  0.00  0.00    +0.022 A 
ATOM      6  C   UNL     1      -2.454   6.673  -1.141  0.00  0.00    +0.027 A 
ATOM      7  C   UNL     1      -3.535   7.508  -1.203  0.00  0.00    +0.019 A 
ATOM      8  C   UNL     1      -4.818   7.014  -1.001  0.00  0.00    +0.019 A 
ATOM      9  C   UNL     1      -5.024   5.678  -0.735  0.00  0.00    +0.048 A 
ATOM     10  C   UNL     1      -3.941   4.810  -0.668  0.00  0.00    +0.136 A 
ATOM     11  O   UNL     1      -3.831   3.487  -0.436  0.00  0.00    -0.452 OA
ATOM     12 BR   UNL     1      -3.282   9.346  -1.566  0.00  0.00    -0.050 Br
ENDBRANCH   1   3
BRANCH   1  15
ATOM     13  C   UNL     1      -2.537  -0.559   0.325  0.00  0.00    +0.193 C 
ATOM     14  O   UNL     1      -3.413  -1.583   0.434  0.00  0.00    -0.287 OA
ATOM     15  C   UNL     1      -2.984   0.691   0.009  0.00  0.00    +0.106 C 
BRANCH  13  18
ATOM     16  C   UNL     1      -0.804   0.614   2.663  0.00  0.00    +0.087 C 
ATOM     17  C   UNL     1      -0.330  -0.293   1.557  0.00  0.00    +0.113 A 
ATOM     18  C   UNL     1      -1.101  -0.793   0.547  0.00  0.00    +0.062 A 
ATOM     19  C   UNL     1      -0.197  -1.614  -0.272  0.00  0.00    +0.053 A 
ATOM     20  C   UNL     1       1.008  -1.531   0.312  0.00  0.00    +0.196 A 
ATOM     21  O   UNL     1       0.920  -0.740   1.393  0.00  0.00    -0.467 OA
ENDBRANCH  13  18
ENDBRANCH   1  15
TORSDOF 3
