REMARK  Name = ZINC35245140
REMARK  11 active torsions:
REMARK  status: ('A' for Active; 'I' for Inactive)
REMARK    1  A    between atoms: C_4  and  C_7
REMARK    2  A    between atoms: C_7  and  C_8
REMARK    3  A    between atoms: C_8  and  C_10
REMARK    4  A    between atoms: C_8  and  N_16
REMARK    5  A    between atoms: C_17  and  C_19
REMARK    6  A    between atoms: C_22  and  C_24
REMARK    7  A    between atoms: C_24  and  N_25
REMARK    8  A    between atoms: N_25  and  C_26
REMARK    9  A    between atoms: N_25  and  C_33
REMARK   10  A    between atoms: C_26  and  C_27
REMARK   11  A    between atoms: C_33  and  C_34
REMARK                            x       y       z     vdW  Elec       q    Type
REMARK                         _______ _______ _______ _____ _____    ______ ____
ROOT
ATOM      1  C   UNL     1       2.173  -2.780   3.943  0.00  0.00    +0.189 A 
ATOM      2  C   UNL     1       1.900  -2.694   5.278  0.00  0.00    +0.055 A 
ATOM      3  C   UNL     1       0.911  -3.652   5.550  0.00  0.00    +0.043 A 
ATOM      4  C   UNL     1       0.626  -4.272   4.384  0.00  0.00    +0.090 A 
ATOM      5  O   UNL     1       1.385  -3.741   3.417  0.00  0.00    -0.457 OA
ENDROOT
BRANCH   1   7
ATOM      6  N   UNL     1       3.315  -2.150   1.883  0.00  0.00    -0.302 N 
ATOM      7  C   UNL     1       3.147  -1.966   3.208  0.00  0.00    +0.280 C 
ATOM      8  O   UNL     1       3.803  -1.125   3.794  0.00  0.00    -0.267 OA
ATOM      9  H   UNL     1       2.792  -2.820   1.416  0.00  0.00    +0.150 HD
BRANCH   6  10
ATOM     10  C   UNL     1       4.288  -1.336   1.149  0.00  0.00    +0.108 C 
BRANCH  10  11
ATOM     11  C   UNL     1       5.654  -1.963   1.263  0.00  0.00    -0.027 A 
ATOM     12  C   UNL     1       5.793  -3.336   1.186  0.00  0.00    +0.005 A 
ATOM     13  C   UNL     1       7.046  -3.910   1.290  0.00  0.00    +0.000 A 
ATOM     14  C   UNL     1       8.160  -3.111   1.472  0.00  0.00    +0.000 A 
ATOM     15  C   UNL     1       8.021  -1.738   1.548  0.00  0.00    +0.000 A 
ATOM     16  C   UNL     1       6.768  -1.164   1.439  0.00  0.00    +0.005 A 
ENDBRANCH  10  11
BRANCH  10  17
ATOM     17  C   UNL     1       3.882  -1.262  -0.324  0.00  0.00    +0.062 C 
BRANCH  17  21
ATOM     18  C   UNL     1       0.171   0.824  -0.678  0.00  0.00    +0.000 A 
ATOM     19  C   UNL     1       1.364   1.521  -0.731  0.00  0.00    +0.000 A 
ATOM     20  C   UNL     1       2.565   0.846  -0.616  0.00  0.00    +0.004 A 
ATOM     21  C   UNL     1       2.573  -0.526  -0.449  0.00  0.00    -0.045 A 
ATOM     22  C   UNL     1       1.381  -1.223  -0.395  0.00  0.00    +0.004 A 
ATOM     23  C   UNL     1       0.180  -0.549  -0.511  0.00  0.00    +0.000 A 
ENDBRANCH  17  21
ENDBRANCH  10  17
ENDBRANCH   6  10
ENDBRANCH   1   7
BRANCH   4  24
ATOM     24  C   UNL     1      -0.382  -5.377   4.201  0.00  0.00    -0.002 C 
BRANCH  24  25
ATOM     25  N   UNL     1      -1.717  -4.795   4.008  0.00  0.00    +0.390 N 
ATOM     26  H   UNL     1      -1.924  -4.169   4.772  0.00  0.00    -0.080 HD
BRANCH  25  27
ATOM     27  C   UNL     1      -1.748  -4.050   2.742  0.00  0.00    -0.042 C 
BRANCH  27  28
ATOM     28  C   UNL     1      -3.076  -3.352   2.603  0.00  0.00    -0.064 A 
ATOM     29  C   UNL     1      -4.134  -3.995   1.989  0.00  0.00    +0.002 A 
ATOM     30  C   UNL     1      -5.352  -3.354   1.861  0.00  0.00    +0.000 A 
ATOM     31  C   UNL     1      -5.512  -2.070   2.348  0.00  0.00    +0.000 A 
ATOM     32  C   UNL     1      -4.454  -1.427   2.962  0.00  0.00    +0.000 A 
ATOM     33  C   UNL     1      -3.237  -2.069   3.094  0.00  0.00    +0.002 A 
ENDBRANCH  27  28
ENDBRANCH  25  27
BRANCH  25  34
ATOM     34  C   UNL     1      -2.719  -5.869   3.969  0.00  0.00    -0.039 C 
BRANCH  34  35
ATOM     35  C   UNL     1      -2.779  -6.549   5.312  0.00  0.00    -0.029 A 
ATOM     36  C   UNL     1      -2.212  -7.798   5.481  0.00  0.00    +0.004 A 
ATOM     37  C   UNL     1      -2.267  -8.422   6.713  0.00  0.00    +0.000 A 
ATOM     38  C   UNL     1      -2.889  -7.798   7.778  0.00  0.00    +0.003 A 
ATOM     39  C   UNL     1      -3.455  -6.548   7.612  0.00  0.00    +0.038 A 
ATOM     40  C   UNL     1      -3.396  -5.920   6.380  0.00  0.00    +0.125 A 
ATOM     41  F   UNL     1      -3.946  -4.696   6.218  0.00  0.00    -0.205 F 
ENDBRANCH  34  35
ENDBRANCH  25  34
ENDBRANCH  24  25
ENDBRANCH   4  24
TORSDOF 11
