REMARK  Name = ZINC14470294
REMARK  10 active torsions:
REMARK  status: ('A' for Active; 'I' for Inactive)
REMARK    1  A    between atoms: C_1  and  C_2
REMARK    2  A    between atoms: C_2  and  C_3
REMARK    3  A    between atoms: C_3  and  C_5
REMARK    4  A    between atoms: C_3  and  N_6
REMARK    5  A    between atoms: N_6  and  S_7
REMARK    6  A    between atoms: S_7  and  C_10
REMARK    7  A    between atoms: C_23  and  C_26
REMARK    8  A    between atoms: C_29  and  O_32
REMARK    9  A    between atoms: O_32  and  C_33
REMARK   10  A    between atoms: C_33  and  C_34
REMARK                            x       y       z     vdW  Elec       q    Type
REMARK                         _______ _______ _______ _____ _____    ______ ____
ROOT
ATOM      1  C   UNL     1      -2.467   2.696  -0.758  0.00  0.00    +0.106 A 
ATOM      2  C   UNL     1      -3.120   1.729  -1.500  0.00  0.00    +0.030 A 
ATOM      3  C   UNL     1      -3.064   1.758  -2.879  0.00  0.00    +0.025 A 
ATOM      4  C   UNL     1      -2.357   2.761  -3.531  0.00  0.00    +0.031 A 
ATOM      5  C   UNL     1      -1.708   3.742  -2.773  0.00  0.00    -0.018 A 
ATOM      6  C   UNL     1      -1.767   3.702  -1.397  0.00  0.00    +0.034 A 
ATOM      7  C   UNL     1      -0.989   4.806  -3.507  0.00  0.00    +0.049 C 
ATOM      8  C   UNL     1       0.157   5.538  -2.909  0.00  0.00    -0.023 C 
ATOM      9  C   UNL     1       0.988   5.891  -3.883  0.00  0.00    -0.030 C 
ATOM     10  C   UNL     1       0.465   5.381  -5.227  0.00  0.00    +0.033 C 
ATOM     11  C   UNL     1      -0.379   4.174  -4.793  0.00  0.00    +0.029 C 
ATOM     12  C   UNL     1      -1.565   3.811  -5.668  0.00  0.00    +0.105 C 
ATOM     13  N   UNL     1      -2.297   2.758  -4.930  0.00  0.00    -0.336 N 
ATOM     14  H   UNL     1      -2.744   2.053  -5.424  0.00  0.00    +0.147 HD
ENDROOT
BRANCH  12  15
ATOM     15  C   UNL     1      -2.450   5.014  -5.872  0.00  0.00    -0.027 A 
ATOM     16  C   UNL     1      -3.491   5.261  -4.997  0.00  0.00    +0.009 A 
ATOM     17  C   UNL     1      -4.300   6.367  -5.178  0.00  0.00    +0.046 A 
ATOM     18  C   UNL     1      -4.072   7.223  -6.246  0.00  0.00    +0.121 A 
ATOM     19  C   UNL     1      -3.030   6.970  -7.126  0.00  0.00    +0.046 A 
ATOM     20  C   UNL     1      -2.221   5.866  -6.937  0.00  0.00    +0.009 A 
BRANCH  18  21
ATOM     21  O   UNL     1      -4.869   8.309  -6.430  0.00  0.00    -0.487 OA
BRANCH  21  22
ATOM     22  C   UNL     1      -5.923   8.507  -5.485  0.00  0.00    +0.264 C 
BRANCH  22  23
ATOM     23  C   UNL     1      -6.695   9.750  -5.847  0.00  0.00    -0.010 A 
ATOM     24  C   UNL     1      -6.317  10.974  -5.327  0.00  0.00    +0.007 A 
ATOM     25  C   UNL     1      -7.023  12.114  -5.662  0.00  0.00    +0.000 A 
ATOM     26  C   UNL     1      -8.111  12.030  -6.511  0.00  0.00    +0.000 A 
ATOM     27  C   UNL     1      -8.491  10.805  -7.027  0.00  0.00    +0.000 A 
ATOM     28  C   UNL     1      -7.783   9.665  -6.695  0.00  0.00    +0.007 A 
ENDBRANCH  22  23
ENDBRANCH  21  22
ENDBRANCH  18  21
ENDBRANCH  12  15
BRANCH   1  29
ATOM     29  S   UNL     1      -2.535   2.650   1.002  0.00  0.00    +0.059 S 
ATOM     30  O   UNL     1      -3.709   1.928   1.345  0.00  0.00    -0.153 OA
ATOM     31  O   UNL     1      -2.297   3.977   1.453  0.00  0.00    -0.153 OA
BRANCH  29  32
ATOM     32  N   UNL     1      -1.252   1.739   1.518  0.00  0.00    -0.187 NA
ATOM     33  H   UNL     1      -1.407   0.896   1.973  0.00  0.00    +0.148 HD
BRANCH  32  34
ATOM     34  C   UNL     1       0.118   2.205   1.286  0.00  0.00    +0.073 C 
ATOM     35  C   UNL     1       0.659   1.578  -0.001  0.00  0.00    +0.025 C 
BRANCH  34  37
ATOM     36  C   UNL     1       0.537   2.519   3.729  0.00  0.00    +0.005 C 
ATOM     37  C   UNL     1       1.003   1.794   2.465  0.00  0.00    +0.017 C 
ENDBRANCH  34  37
ENDBRANCH  32  34
ENDBRANCH  29  32
ENDBRANCH   1  29
TORSDOF 8
