REMARK  Name = ZINC39674174
REMARK  10 active torsions:
REMARK  status: ('A' for Active; 'I' for Inactive)
REMARK    1  A    between atoms: C_1  and  C_2
REMARK    2  A    between atoms: C_4  and  C_9
REMARK    3  A    between atoms: C_5  and  C_8
REMARK    4  A    between atoms: C_9  and  C_11
REMARK    5  A    between atoms: C_9  and  N_12
REMARK    6  A    between atoms: C_13  and  C_15
REMARK    7  A    between atoms: C_26  and  C_28
REMARK    8  A    between atoms: C_33  and  O_34
REMARK    9  A    between atoms: O_34  and  C_35
REMARK   10  A    between atoms: C_35  and  C_37
REMARK                            x       y       z     vdW  Elec       q    Type
REMARK                         _______ _______ _______ _____ _____    ______ ____
ROOT
ATOM      1  C   UNL     1      -2.954  -1.275  -5.046  0.00  0.00    +0.100 C 
ATOM      2  C   UNL     1      -2.341   0.027  -5.609  0.00  0.00    +0.121 C 
ATOM      3  N   UNL     1      -2.855   0.113  -6.997  0.00  0.00    -0.296 N 
ATOM      4  C   UNL     1      -4.261  -0.348  -6.898  0.00  0.00    +0.115 C 
ATOM      5  C   UNL     1      -4.214  -1.517  -5.894  0.00  0.00    -0.004 C 
ATOM      6  C   UNL     1      -4.104  -2.846  -6.636  0.00  0.00    -0.010 C 
ATOM      7  C   UNL     1      -5.392  -3.091  -7.427  0.00  0.00    -0.082 C 
ATOM      8  N   UNL     1      -6.536  -3.114  -6.507  0.00  0.00    +0.379 N 
ATOM      9  C   UNL     1      -6.690  -1.803  -5.867  0.00  0.00    -0.082 C 
ATOM     10  C   UNL     1      -5.457  -1.503  -5.010  0.00  0.00    -0.010 C 
ATOM     11  C   UNL     1      -2.195   0.520  -8.099  0.00  0.00    +0.250 C 
ATOM     12  O   UNL     1      -2.783   0.618  -9.158  0.00  0.00    -0.270 OA
ATOM     13  H   UNL     1      -7.375  -3.336  -7.022  0.00  0.00    -0.086 HD
ATOM     14  H   UNL     1      -6.383  -3.817  -5.800  0.00  0.00    -0.086 HD
ENDROOT
BRANCH  11  15
ATOM     15  C   UNL     1      -0.757   0.845  -8.020  0.00  0.00    +0.079 A 
ATOM     16  C   UNL     1      -0.234   1.437  -6.868  0.00  0.00    +0.017 A 
ATOM     17  C   UNL     1       1.110   1.738  -6.800  0.00  0.00    +0.001 A 
ATOM     18  C   UNL     1       1.944   1.456  -7.870  0.00  0.00    +0.004 A 
ATOM     19  C   UNL     1       1.439   0.872  -9.014  0.00  0.00    +0.047 A 
ATOM     20  C   UNL     1       0.091   0.557  -9.097  0.00  0.00    +0.144 A 
BRANCH  20  21
ATOM     21  O   UNL     1      -0.406  -0.022 -10.220  0.00  0.00    -0.425 OA
BRANCH  21  22
ATOM     22  C   UNL     1      -0.591  -1.353 -10.213  0.00  0.00    +0.309 C 
ATOM     23  O   UNL     1      -0.396  -1.985  -9.202  0.00  0.00    -0.251 OA
ATOM     24  C   UNL     1      -1.040  -2.057 -11.468  0.00  0.00    +0.136 C 
ENDBRANCH  21  22
ENDBRANCH  20  21
ENDBRANCH  11  15
BRANCH   1  26
ATOM     25  N   UNL     1      -3.444  -2.172  -2.794  0.00  0.00    -0.309 N 
ATOM     26  C   UNL     1      -3.323  -1.096  -3.596  0.00  0.00    +0.219 C 
ATOM     27  O   UNL     1      -3.513   0.016  -3.151  0.00  0.00    -0.275 OA
ATOM     28  H   UNL     1      -3.292  -3.062  -3.150  0.00  0.00    +0.149 HD
BRANCH  25  29
ATOM     29  C   UNL     1      -3.803  -1.998  -1.384  0.00  0.00    +0.100 C 
ATOM     30  C   UNL     1      -2.541  -1.714  -0.568  0.00  0.00    +0.033 C 
BRANCH  29  33
ATOM     31  C   UNL     1      -2.617  -4.819  -0.197  0.00  0.00    +0.039 C 
ATOM     32  C   UNL     1      -3.939  -4.681  -0.955  0.00  0.00    +0.154 C 
ATOM     33  C   UNL     1      -4.458  -3.256  -0.874  0.00  0.00    -0.001 C 
ATOM     34  C   UNL     1      -5.630  -3.376  -0.246  0.00  0.00    +0.063 C 
ATOM     35  N   UNL     1      -5.881  -4.669   0.059  0.00  0.00    -0.159 NA
ATOM     36  N   UNL     1      -5.001  -5.462  -0.298  0.00  0.00    -0.180 NA
ATOM     37  C   UNL     1      -6.548  -2.227   0.081  0.00  0.00    +0.067 C 
ENDBRANCH  29  33
ENDBRANCH  25  29
ENDBRANCH   1  26
TORSDOF 6
