REMARK  Name = ZINC37247415
REMARK  4 active torsions:
REMARK  status: ('A' for Active; 'I' for Inactive)
REMARK    1  A    between atoms: C_9  and  C_14
REMARK    2  A    between atoms: C_14  and  N_15
REMARK    3  A    between atoms: N_15  and  C_16
REMARK    4  A    between atoms: C_16  and  C_17
REMARK                            x       y       z     vdW  Elec       q    Type
REMARK                         _______ _______ _______ _____ _____    ______ ____
ROOT
ATOM      1  C   UNL     1      -0.017   1.363   0.009  0.00  0.00    +0.021 A 
ATOM      2  C   UNL     1       0.002  -0.004   0.002  0.00  0.00    +0.017 A 
ATOM      3  C   UNL     1      -1.200  -0.710   0.010  0.00  0.00    +0.065 A 
ATOM      4  C   UNL     1      -2.429  -0.014   0.026  0.00  0.00    +0.080 A 
ATOM      5  C   UNL     1      -2.423   1.382   0.034  0.00  0.00    +0.048 A 
ATOM      6  C   UNL     1      -1.221   2.057   0.030  0.00  0.00    +0.043 A 
ATOM      7 CL   UNL     1      -1.212   3.792   0.040  0.00  0.00    -0.083 Cl
ATOM      8  N   UNL     1      -3.586  -0.722   0.033  0.00  0.00    -0.232 NA
ATOM      9  C   UNL     1      -3.589  -2.020   0.026  0.00  0.00    +0.124 A 
ATOM     10  N   UNL     1      -2.457  -2.770   0.011  0.00  0.00    -0.309 N 
ATOM     11  H   UNL     1      -2.521  -3.738   0.006  0.00  0.00    +0.170 HD
ATOM     12  C   UNL     1      -1.239  -2.179   0.002  0.00  0.00    +0.259 A 
ATOM     13  O   UNL     1      -0.216  -2.839  -0.012  0.00  0.00    -0.267 OA
ENDROOT
BRANCH   9  14
ATOM     14  C   UNL     1      -4.918  -2.732   0.035  0.00  0.00    +0.155 C 
BRANCH  14  15
ATOM     15  N   UNL     1      -6.003  -1.742   0.051  0.00  0.00    -0.309 NA
ATOM     16  H   UNL     1      -5.909  -1.115   0.835  0.00  0.00    +0.122 HD
BRANCH  15  17
ATOM     17  C   UNL     1      -7.316  -2.402   0.060  0.00  0.00    +0.084 C 
BRANCH  17  18
ATOM     18  C   UNL     1      -8.419  -1.341   0.077  0.00  0.00    +0.003 C 
ATOM     19  C   UNL     1      -8.351  -0.556   1.388  0.00  0.00    +0.005 C 
ATOM     20  C   UNL     1      -9.454   0.505   1.405  0.00  0.00    +0.000 C 
ATOM     21  C   UNL     1     -10.819  -0.177   1.288  0.00  0.00    +0.000 C 
ATOM     22  C   UNL     1     -10.887  -0.963  -0.023  0.00  0.00    +0.000 C 
ATOM     23  C   UNL     1      -9.784  -2.023  -0.040  0.00  0.00    +0.005 C 
ENDBRANCH  17  18
ENDBRANCH  15  17
ENDBRANCH  14  15
ENDBRANCH   9  14
TORSDOF 4
