REMARK  Name = ZINC03033423
REMARK  8 active torsions:
REMARK  status: ('A' for Active; 'I' for Inactive)
REMARK    1  A    between atoms: C_10  and  O_11
REMARK    2  A    between atoms: O_11  and  C_12
REMARK    3  A    between atoms: C_12  and  C_13
REMARK    4  A    between atoms: N_15  and  N_16
REMARK    5  A    between atoms: C_17  and  C_18
REMARK    6  A    between atoms: C_21  and  O_24
REMARK    7  A    between atoms: O_24  and  C_25
REMARK    8  A    between atoms: C_25  and  C_27
REMARK                            x       y       z     vdW  Elec       q    Type
REMARK                         _______ _______ _______ _____ _____    ______ ____
ROOT
ATOM      1  N   UNL     1      -7.280   3.993   0.147  0.00  0.00    -0.188 NA
ATOM      2  C   UNL     1      -8.467   3.472   0.073  0.00  0.00    +0.138 C 
ENDROOT
BRANCH   2   3
ATOM      3  C   UNL     1      -9.657   4.341   0.096  0.00  0.00    -0.005 A 
ATOM      4  C   UNL     1      -9.511   5.727   0.203  0.00  0.00    +0.013 A 
ATOM      5  C   UNL     1     -10.626   6.536   0.219  0.00  0.00    +0.047 A 
ATOM      6  C   UNL     1     -11.894   5.976   0.139  0.00  0.00    +0.132 A 
ATOM      7  C   UNL     1     -12.045   4.599   0.038  0.00  0.00    +0.047 A 
ATOM      8  C   UNL     1     -10.935   3.782   0.016  0.00  0.00    +0.013 A 
BRANCH   6   9
ATOM      9  O   UNL     1     -12.991   6.777   0.160  0.00  0.00    -0.422 OA
BRANCH   9  10
ATOM     10  C   UNL     1     -13.773   6.715   1.255  0.00  0.00    +0.344 C 
ATOM     11  O   UNL     1     -13.430   6.046   2.209  0.00  0.00    -0.245 OA
BRANCH  10  12
ATOM     12  C   UNL     1     -15.048   7.460   1.296  0.00  0.00    +0.060 A 
ATOM     13  C   UNL     1     -15.861   7.397   2.429  0.00  0.00    +0.015 A 
ATOM     14  C   UNL     1     -17.051   8.095   2.461  0.00  0.00    +0.002 A 
ATOM     15  C   UNL     1     -17.439   8.856   1.373  0.00  0.00    +0.015 A 
ATOM     16  C   UNL     1     -16.638   8.923   0.246  0.00  0.00    +0.019 A 
ATOM     17  C   UNL     1     -15.443   8.234   0.203  0.00  0.00    +0.030 A 
ATOM     18 BR   UNL     1     -17.178   9.968  -1.235  0.00  0.00    -0.050 Br
ENDBRANCH  10  12
ENDBRANCH   9  10
ENDBRANCH   6   9
ENDBRANCH   2   3
BRANCH   1  21
ATOM     19  C   UNL     1      -4.918   3.709   0.202  0.00  0.00    +0.270 C 
ATOM     20  O   UNL     1      -4.788   4.912   0.290  0.00  0.00    -0.270 OA
ATOM     21  N   UNL     1      -6.149   3.167   0.125  0.00  0.00    -0.204 N 
ATOM     22  H   UNL     1      -6.253   2.205   0.055  0.00  0.00    +0.177 HD
BRANCH  19  23
ATOM     23  C   UNL     1      -3.701   2.820   0.178  0.00  0.00    +0.326 C 
BRANCH  23  24
ATOM     24  O   UNL     1      -2.522   3.623   0.272  0.00  0.00    -0.482 OA
BRANCH  24  34
ATOM     25  C   UNL     1       2.274   5.078   0.526  0.00  0.00    +0.001 A 
ATOM     26  C   UNL     1       1.061   5.765   0.535  0.00  0.00    +0.001 A 
ATOM     27  C   UNL     1      -0.122   5.098   0.451  0.00  0.00    +0.012 A 
ATOM     28  C   UNL     1      -0.125   3.697   0.353  0.00  0.00    +0.024 A 
ATOM     29  C   UNL     1       1.107   2.998   0.343  0.00  0.00    -0.014 A 
ATOM     30  C   UNL     1       2.310   3.721   0.431  0.00  0.00    +0.008 A 
ATOM     31  C   UNL     1       1.105   1.597   0.244  0.00  0.00    +0.009 A 
ATOM     32  C   UNL     1      -0.078   0.927   0.159  0.00  0.00    +0.004 A 
ATOM     33  C   UNL     1      -1.291   1.609   0.163  0.00  0.00    +0.046 A 
ATOM     34  C   UNL     1      -1.331   2.972   0.264  0.00  0.00    +0.129 A 
ENDBRANCH  24  34
ENDBRANCH  23  24
ENDBRANCH  19  23
ENDBRANCH   1  21
TORSDOF 8
