REMARK  Name = ZINC08442117
REMARK  6 active torsions:
REMARK  status: ('A' for Active; 'I' for Inactive)
REMARK    1  A    between atoms: C_1  and  C_2
REMARK    2  A    between atoms: C_5  and  S_8
REMARK    3  A    between atoms: S_8  and  C_9
REMARK    4  A    between atoms: C_9  and  C_10
REMARK    5  A    between atoms: C_17  and  N_32
REMARK    6  A    between atoms: C_18  and  C_30
REMARK                            x       y       z     vdW  Elec       q    Type
REMARK                         _______ _______ _______ _____ _____    ______ ____
ROOT
ATOM      1  C   UNL     1       0.097  -6.482   1.870  0.00  0.00    +0.081 A 
ATOM      2  C   UNL     1      -1.016  -7.308   1.944  0.00  0.00    +0.062 A 
ATOM      3  C   UNL     1      -0.578  -8.600   2.059  0.00  0.00    +0.223 A 
ATOM      4  N   UNL     1       0.764  -8.573   2.058  0.00  0.00    -0.246 N 
ATOM      5  H   UNL     1       1.351  -9.343   2.128  0.00  0.00    +0.192 HD
ATOM      6  N   UNL     1       1.169  -7.235   1.933  0.00  0.00    -0.175 NA
ATOM      7  O   UNL     1      -1.426  -9.653   2.152  0.00  0.00    -0.423 OA
ATOM      8  C   UNL     1      -2.727  -9.445   1.863  0.00  0.00    +0.201 C 
ATOM      9  C   UNL     1      -3.280  -8.216   1.735  0.00  0.00    +0.110 C 
ATOM     10  C   UNL     1      -2.477  -6.957   1.912  0.00  0.00    +0.145 C 
ATOM     11  C   UNL     1      -2.885  -6.220   3.147  0.00  0.00    +0.001 A 
ATOM     12  C   UNL     1      -2.866  -6.582   4.477  0.00  0.00    +0.045 A 
ATOM     13  C   UNL     1      -3.325  -5.641   5.394  0.00  0.00    +0.124 A 
ATOM     14  C   UNL     1      -3.779  -4.402   4.986  0.00  0.00    +0.040 A 
ATOM     15  C   UNL     1      -3.802  -4.032   3.650  0.00  0.00    +0.026 A 
ATOM     16  C   UNL     1      -3.344  -4.968   2.721  0.00  0.00    +0.038 A 
ATOM     17  N   UNL     1      -3.258  -4.867   1.342  0.00  0.00    -0.284 N 
ATOM     18  C   UNL     1      -2.761  -5.990   0.783  0.00  0.00    +0.238 C 
ATOM     19  O   UNL     1      -2.576  -6.187  -0.399  0.00  0.00    -0.274 OA
ATOM     20  F   UNL     1      -3.327  -5.947   6.711  0.00  0.00    -0.205 F 
ATOM     21  H   UNL     1      -3.524  -4.082   0.838  0.00  0.00    +0.155 HD
ENDROOT
BRANCH   8  22
ATOM     22  N   UNL     1      -3.535 -10.540   1.687  0.00  0.00    -0.328 N 
ATOM     23  H   UNL     1      -3.166 -11.434   1.772  0.00  0.00    +0.145 HD
ATOM     24  H   UNL     1      -4.474 -10.421   1.478  0.00  0.00    +0.145 HD
ENDBRANCH   8  22
BRANCH   9  25
ATOM     25  C   UNL     1      -4.674  -8.112   1.423  0.00  0.00    +0.102 C 
ATOM     26  N   UNL     1      -5.779  -8.029   1.175  0.00  0.00    -0.191 NA
ENDBRANCH   9  25
BRANCH   1  27
ATOM     27  C   UNL     1       0.077  -4.981   1.735  0.00  0.00    +0.132 C 
BRANCH  27  28
ATOM     28  S   UNL     1       0.062  -4.533  -0.023  0.00  0.00    -0.119 S 
BRANCH  28  33
ATOM     29  C   UNL     1      -0.018   1.503   0.010  0.00  0.00    +0.044 C 
ATOM     30  C   UNL     1       0.002  -0.004   0.002  0.00  0.00    -0.050 A 
ATOM     31  C   UNL     1       0.006  -0.687  -1.200  0.00  0.00    +0.004 A 
ATOM     32  C   UNL     1       0.024  -2.068  -1.212  0.00  0.00    +0.015 A 
ATOM     33  C   UNL     1       0.039  -2.771  -0.013  0.00  0.00    +0.008 A 
ATOM     34  C   UNL     1       0.036  -2.081   1.193  0.00  0.00    +0.015 A 
ATOM     35  C   UNL     1       0.023  -0.700   1.197  0.00  0.00    +0.004 A 
ENDBRANCH  28  33
ENDBRANCH  27  28
ENDBRANCH   1  27
TORSDOF 5
