REMARK  Name = ZINC48716908
REMARK  9 active torsions:
REMARK  status: ('A' for Active; 'I' for Inactive)
REMARK    1  A    between atoms: C_1  and  C_2
REMARK    2  A    between atoms: C_3  and  C_11
REMARK    3  A    between atoms: C_7  and  N_8
REMARK    4  A    between atoms: C_11  and  S_12
REMARK    5  A    between atoms: S_12  and  C_15
REMARK    6  A    between atoms: C_15  and  C_17
REMARK    7  A    between atoms: C_15  and  C_18
REMARK    8  A    between atoms: N_20  and  C_21
REMARK    9  A    between atoms: N_20  and  C_22
REMARK                            x       y       z     vdW  Elec       q    Type
REMARK                         _______ _______ _______ _____ _____    ______ ____
ROOT
ATOM      1  S   UNL     1       0.728   0.645  -3.247  0.00  0.00    -0.016 S 
ATOM      2  O   UNL     1       1.331   1.625  -2.413  0.00  0.00    -0.173 OA
ATOM      3  O   UNL     1       1.504  -0.462  -3.684  0.00  0.00    -0.173 OA
ENDROOT
BRANCH   1   4
ATOM      4  C   UNL     1       0.042   1.477  -4.706  0.00  0.00    +0.213 C 
ATOM      5  C   UNL     1      -0.905   2.592  -4.259  0.00  0.00    +0.042 C 
BRANCH   4   6
ATOM      6  C   UNL     1       1.163   2.066  -5.522  0.00  0.00    +0.240 C 
ATOM      7  O   UNL     1       2.245   2.266  -5.011  0.00  0.00    -0.274 OA
ATOM      8  N   UNL     1       0.964   2.371  -6.820  0.00  0.00    -0.300 N 
ATOM      9  C   UNL     1      -0.342   2.130  -7.437  0.00  0.00    +0.132 C 
BRANCH   8  10
ATOM     10  C   UNL     1       2.054   2.945  -7.613  0.00  0.00    +0.076 C 
ATOM     11  C   UNL     1       1.634   4.318  -8.139  0.00  0.00    +0.022 C 
ATOM     12  C   UNL     1       2.773   4.917  -8.968  0.00  0.00    +0.002 C 
ATOM     13  C   UNL     1       3.086   3.993 -10.147  0.00  0.00    +0.000 C 
ATOM     14  C   UNL     1       3.506   2.619  -9.620  0.00  0.00    +0.002 C 
ATOM     15  C   UNL     1       2.367   2.021  -8.792  0.00  0.00    +0.022 C 
ENDBRANCH   8  10
ENDBRANCH   4   6
ENDBRANCH   1   4
BRANCH   1  16
ATOM     16  C   UNL     1      -0.753   0.014  -2.412  0.00  0.00    +0.202 C 
BRANCH  16  19
ATOM     17  C   UNL     1      -0.542   1.446   0.089  0.00  0.00    +0.046 C 
ATOM     18  C   UNL     1      -0.248  -0.031   0.040  0.00  0.00    -0.016 A 
ATOM     19  C   UNL     1      -0.349  -0.716  -1.157  0.00  0.00    -0.021 A 
ATOM     20  C   UNL     1      -0.080  -2.071  -1.202  0.00  0.00    +0.005 A 
ATOM     21  C   UNL     1       0.290  -2.741  -0.051  0.00  0.00    +0.003 A 
ATOM     22  C   UNL     1       0.392  -2.056   1.145  0.00  0.00    +0.033 A 
ATOM     23  C   UNL     1       0.127  -0.700   1.190  0.00  0.00    +0.129 A 
BRANCH  23  24
ATOM     24  N   UNL     1       0.241   0.035   2.470  0.00  0.00    +0.057 N 
ATOM     25  O   UNL     1       0.674   1.163   2.482  0.00  0.00    -0.126 OA
ATOM     26  O   UNL     1      -0.099  -0.494   3.502  0.00  0.00    -0.126 OA
ENDBRANCH  23  24
ENDBRANCH  16  19
ENDBRANCH   1  16
TORSDOF 6
