REMARK  Name = ZINC06803513
REMARK  8 active torsions:
REMARK  status: ('A' for Active; 'I' for Inactive)
REMARK    1  A    between atoms: C_1  and  C_2
REMARK    2  A    between atoms: C_7  and  C_8
REMARK    3  A    between atoms: C_8  and  N_9
REMARK    4  A    between atoms: C_16  and  C_21
REMARK    5  A    between atoms: C_17  and  C_18
REMARK    6  A    between atoms: C_21  and  N_22
REMARK    7  A    between atoms: N_22  and  C_23
REMARK    8  A    between atoms: C_29  and  C_31
REMARK                            x       y       z     vdW  Elec       q    Type
REMARK                         _______ _______ _______ _____ _____    ______ ____
ROOT
ATOM      1  N   UNL     1      -1.294   0.750   2.672  0.00  0.00    -0.330 N 
ATOM      2  C   UNL     1      -1.819   1.918   2.174  0.00  0.00    +0.050 A 
ATOM      3  C   UNL     1      -1.315   2.906   1.332  0.00  0.00    +0.026 A 
ATOM      4  C   UNL     1      -2.099   3.988   1.001  0.00  0.00    +0.002 A 
ATOM      5  C   UNL     1      -3.391   4.107   1.499  0.00  0.00    +0.001 A 
ATOM      6  C   UNL     1      -3.907   3.152   2.325  0.00  0.00    +0.010 A 
ATOM      7  C   UNL     1      -3.130   2.040   2.677  0.00  0.00    +0.002 A 
ATOM      8  C   UNL     1      -3.367   0.908   3.491  0.00  0.00    -0.025 A 
ATOM      9  C   UNL     1      -2.244   0.139   3.469  0.00  0.00    +0.134 A 
ENDROOT
BRANCH   9  10
ATOM     10  C   UNL     1      -2.070  -1.133   4.178  0.00  0.00    +0.403 C 
ATOM     11  O   UNL     1      -1.012  -1.742   4.090  0.00  0.00    -0.239 OA
ATOM     12  O   UNL     1      -2.982  -1.584   4.858  0.00  0.00    -0.239 OA
ENDBRANCH   9  10
BRANCH   1  13
ATOM     13  C   UNL     1       0.050   0.235   2.400  0.00  0.00    +0.158 C 
BRANCH  13  20
ATOM     14  C   UNL     1       2.866  -0.389   2.222  0.00  0.00    +0.044 C 
ATOM     15  C   UNL     1       2.340   0.396   3.397  0.00  0.00    -0.046 A 
ATOM     16  C   UNL     1       3.206   0.822   4.386  0.00  0.00    +0.004 A 
ATOM     17  C   UNL     1       2.724   1.541   5.463  0.00  0.00    +0.000 A 
ATOM     18  C   UNL     1       1.376   1.835   5.551  0.00  0.00    +0.000 A 
ATOM     19  C   UNL     1       0.511   1.410   4.561  0.00  0.00    +0.005 A 
ATOM     20  C   UNL     1       0.993   0.694   3.482  0.00  0.00    -0.025 A 
ENDBRANCH  13  20
ENDBRANCH   1  13
BRANCH   8  21
ATOM     21  C   UNL     1      -4.638   0.604   4.243  0.00  0.00    -0.043 C 
BRANCH  21  22
ATOM     22  N   UNL     1      -5.537  -0.182   3.388  0.00  0.00    +0.384 N 
ATOM     23  H   UNL     1      -5.756   0.344   2.556  0.00  0.00    -0.085 HD
ATOM     24  H   UNL     1      -5.084  -1.047   3.130  0.00  0.00    -0.085 HD
BRANCH  22  25
ATOM     25  C   UNL     1      -6.775  -0.478   4.122  0.00  0.00    -0.069 C 
ATOM     26  C   UNL     1      -6.458  -1.382   5.315  0.00  0.00    -0.015 C 
ATOM     27  C   UNL     1      -7.747  -1.690   6.078  0.00  0.00    -0.002 C 
ATOM     28  C   UNL     1      -8.733  -2.400   5.149  0.00  0.00    +0.000 C 
ATOM     29  C   UNL     1      -9.050  -1.497   3.955  0.00  0.00    +0.002 C 
ATOM     30  C   UNL     1      -7.761  -1.189   3.192  0.00  0.00    -0.028 C 
ATOM     31  C   UNL     1      -7.140  -2.495   2.692  0.00  0.00    +0.006 C 
ENDBRANCH  22  25
ENDBRANCH  21  22
ENDBRANCH   8  21
TORSDOF 6
