REMARK  Name = ZINC39504173
REMARK  5 active torsions:
REMARK  status: ('A' for Active; 'I' for Inactive)
REMARK    1  A    between atoms: C_1  and  C_2
REMARK    2  A    between atoms: C_2  and  O_3
REMARK    3  A    between atoms: O_3  and  C_4
REMARK    4  A    between atoms: N_14  and  O_16
REMARK    5  A    between atoms: O_16  and  C_17
REMARK                            x       y       z     vdW  Elec       q    Type
REMARK                         _______ _______ _______ _____ _____    ______ ____
ROOT
ATOM      1  C   UNL     1      -1.432  -1.925   0.005  0.00  0.00    +0.136 C 
ATOM      2  C   UNL     1      -2.752  -2.398   0.671  0.00  0.00    +0.057 C 
ATOM      3  C   UNL     1      -3.010  -3.755  -0.007  0.00  0.00    +0.051 C 
ATOM      4  C   UNL     1      -4.512  -3.958  -0.238  0.00  0.00    +0.026 C 
ATOM      5  C   UNL     1      -4.906  -5.228   0.547  0.00  0.00    +0.017 C 
ATOM      6  C   UNL     1      -3.580  -6.019   0.680  0.00  0.00    +0.059 C 
ATOM      7  C   UNL     1      -2.532  -4.899   0.902  0.00  0.00    +0.039 C 
ATOM      8 BR   UNL     1      -3.646  -7.233   2.225  0.00  0.00    -0.088 Br
ATOM      9  N   UNL     1      -2.279  -3.767  -1.280  0.00  0.00    -0.180 NA
ATOM     10  C   UNL     1      -1.596  -2.463  -1.438  0.00  0.00    +0.147 C 
ENDROOT
BRANCH   9  11
ATOM     11  O   UNL     1      -3.183  -4.025  -2.401  0.00  0.00    -0.300 OA
ATOM     12  C   UNL     1      -2.862  -5.200  -3.148  0.00  0.00    +0.221 C 
ENDBRANCH   9  11
BRANCH   1  13
ATOM     13  O   UNL     1      -1.339  -0.499   0.012  0.00  0.00    -0.375 OA
BRANCH  13  15
ATOM     14  C   UNL     1      -0.019   1.526   0.010  0.00  0.00    +0.034 C 
ATOM     15  C   UNL     1       0.002  -0.004   0.002  0.00  0.00    +0.157 C 
ENDBRANCH  13  15
ENDBRANCH   1  13
TORSDOF 3
