REMARK  Name = ZINC09207104
REMARK  3 active torsions:
REMARK  status: ('A' for Active; 'I' for Inactive)
REMARK    1  A    between atoms: N_9  and  C_23
REMARK    2  A    between atoms: C_10  and  C_13
REMARK    3  A    between atoms: C_23  and  C_24
REMARK                            x       y       z     vdW  Elec       q    Type
REMARK                         _______ _______ _______ _____ _____    ______ ____
ROOT
ATOM      1  C   UNL     1      -2.460  -1.885   5.133  0.00  0.00    +0.001 A 
ATOM      2  C   UNL     1      -1.309  -1.865   5.905  0.00  0.00    +0.002 A 
ATOM      3  C   UNL     1      -0.109  -1.444   5.365  0.00  0.00    +0.024 A 
ATOM      4  C   UNL     1      -0.058  -1.037   4.042  0.00  0.00    +0.041 A 
ATOM      5  C   UNL     1      -1.225  -1.053   3.258  0.00  0.00    +0.058 A 
ATOM      6  C   UNL     1      -2.427  -1.483   3.814  0.00  0.00    +0.015 A 
ATOM      7  C   UNL     1      -1.134  -0.608   1.855  0.00  0.00    +0.250 C 
ATOM      8  O   UNL     1      -2.142  -0.369   1.220  0.00  0.00    -0.270 OA
ATOM      9  N   UNL     1       0.081  -0.471   1.285  0.00  0.00    -0.268 N 
ATOM     10  C   UNL     1       1.302  -0.836   2.004  0.00  0.00    +0.194 C 
ATOM     11  N   UNL     1       1.125  -0.613   3.447  0.00  0.00    -0.321 N 
ATOM     12  H   UNL     1       1.817  -0.183   3.973  0.00  0.00    +0.148 HD
ENDROOT
BRANCH  10  13
ATOM     13  C   UNL     1       1.613  -2.289   1.754  0.00  0.00    +0.008 A 
ATOM     14  C   UNL     1       0.598  -3.162   1.409  0.00  0.00    +0.057 A 
ATOM     15  C   UNL     1       0.882  -4.497   1.174  0.00  0.00    +0.167 A 
ATOM     16  C   UNL     1       2.191  -4.959   1.295  0.00  0.00    +0.167 A 
ATOM     17  C   UNL     1       3.202  -4.080   1.645  0.00  0.00    +0.065 A 
ATOM     18  C   UNL     1       2.912  -2.747   1.873  0.00  0.00    +0.028 A 
ATOM     19 BR   UNL     1       4.295  -1.548   2.351  0.00  0.00    -0.050 Br
ATOM     20  O   UNL     1       2.209  -6.296   1.021  0.00  0.00    -0.453 OA
ATOM     21  C   UNL     1       0.972  -6.564   0.334  0.00  0.00    +0.466 C 
ATOM     22  O   UNL     1       0.080  -5.545   0.824  0.00  0.00    -0.453 OA
ENDBRANCH  10  13
BRANCH   9  23
ATOM     23  C   UNL     1       0.180   0.048  -0.081  0.00  0.00    +0.184 C 
BRANCH  23  24
ATOM     24  C   UNL     1       0.234   1.554  -0.044  0.00  0.00    +0.122 A 
ATOM     25  C   UNL     1       1.351   2.299   0.038  0.00  0.00    +0.046 A 
ATOM     26  C   UNL     1       0.941   3.652   0.045  0.00  0.00    +0.041 A 
ATOM     27  C   UNL     1      -0.402   3.653  -0.034  0.00  0.00    +0.195 A 
ATOM     28  O   UNL     1      -0.824   2.379  -0.093  0.00  0.00    -0.466 OA
ENDBRANCH  23  24
ENDBRANCH   9  23
TORSDOF 3
