REMARK  Name = ZINC35742750
REMARK  10 active torsions:
REMARK  status: ('A' for Active; 'I' for Inactive)
REMARK    1  A    between atoms: C_4  and  C_7
REMARK    2  A    between atoms: C_7  and  N_8
REMARK    3  A    between atoms: N_8  and  C_9
REMARK    4  A    between atoms: N_8  and  C_16
REMARK    5  A    between atoms: C_9  and  C_10
REMARK    6  A    between atoms: C_16  and  C_17
REMARK    7  A    between atoms: C_20  and  C_22
REMARK    8  A    between atoms: C_22  and  C_23
REMARK    9  A    between atoms: C_22  and  C_29
REMARK   10  A    between atoms: C_22  and  O_35
REMARK                            x       y       z     vdW  Elec       q    Type
REMARK                         _______ _______ _______ _____ _____    ______ ____
ROOT
ATOM      1  C   UNL     1       6.642   0.701   1.169  0.00  0.00    +0.089 A 
ATOM      2  C   UNL     1       7.426   1.755   1.455  0.00  0.00    +0.043 A 
ATOM      3  C   UNL     1       8.073   2.123   0.253  0.00  0.00    +0.048 A 
ATOM      4  C   UNL     1       7.645   1.271  -0.696  0.00  0.00    +0.146 A 
ATOM      5  O   UNL     1       6.783   0.408  -0.134  0.00  0.00    -0.463 OA
ENDROOT
BRANCH   1   6
ATOM      6  C   UNL     1       5.760  -0.032   2.146  0.00  0.00    -0.002 C 
BRANCH   6   7
ATOM      7  N   UNL     1       4.426   0.584   2.160  0.00  0.00    +0.390 N 
ATOM      8  H   UNL     1       4.513   1.569   2.357  0.00  0.00    -0.080 HD
BRANCH   7   9
ATOM      9  C   UNL     1       3.789   0.401   0.849  0.00  0.00    -0.042 C 
BRANCH   9  13
ATOM     10  C   UNL     1       0.087   2.530   0.753  0.00  0.00    +0.000 A 
ATOM     11  C   UNL     1       1.272   3.191   0.487  0.00  0.00    +0.000 A 
ATOM     12  C   UNL     1       2.470   2.502   0.518  0.00  0.00    +0.002 A 
ATOM     13  C   UNL     1       2.483   1.152   0.816  0.00  0.00    -0.064 A 
ATOM     14  C   UNL     1       1.299   0.491   1.082  0.00  0.00    +0.002 A 
ATOM     15  C   UNL     1       0.101   1.179   1.050  0.00  0.00    +0.000 A 
ENDBRANCH   9  13
ENDBRANCH   7   9
BRANCH   7  16
ATOM     16  C   UNL     1       3.603  -0.053   3.197  0.00  0.00    -0.042 C 
BRANCH  16  17
ATOM     17  C   UNL     1       4.181   0.253   4.554  0.00  0.00    -0.064 A 
ATOM     18  C   UNL     1       5.033  -0.650   5.163  0.00  0.00    +0.002 A 
ATOM     19  C   UNL     1       5.563  -0.369   6.408  0.00  0.00    +0.000 A 
ATOM     20  C   UNL     1       5.242   0.815   7.045  0.00  0.00    +0.000 A 
ATOM     21  C   UNL     1       4.391   1.718   6.436  0.00  0.00    +0.000 A 
ATOM     22  C   UNL     1       3.864   1.440   5.189  0.00  0.00    +0.002 A 
ENDBRANCH  16  17
ENDBRANCH   7  16
ENDBRANCH   6   7
ENDBRANCH   1   6
BRANCH   4  23
ATOM     23  C   UNL     1       8.066   1.280  -2.143  0.00  0.00    +0.174 C 
BRANCH  23  24
ATOM     24  C   UNL     1       8.012  -0.123  -2.691  0.00  0.00    -0.004 A 
ATOM     25  C   UNL     1       9.178  -0.763  -3.067  0.00  0.00    +0.007 A 
ATOM     26  C   UNL     1       9.128  -2.050  -3.569  0.00  0.00    +0.000 A 
ATOM     27  C   UNL     1       7.913  -2.697  -3.695  0.00  0.00    +0.000 A 
ATOM     28  C   UNL     1       6.747  -2.056  -3.318  0.00  0.00    +0.000 A 
ATOM     29  C   UNL     1       6.797  -0.771  -2.812  0.00  0.00    +0.007 A 
ENDBRANCH  23  24
BRANCH  23  30
ATOM     30  C   UNL     1       7.134   2.164  -2.932  0.00  0.00    -0.004 A 
ATOM     31  C   UNL     1       5.777   2.150  -2.665  0.00  0.00    +0.007 A 
ATOM     32  C   UNL     1       4.922   2.960  -3.389  0.00  0.00    +0.000 A 
ATOM     33  C   UNL     1       5.423   3.784  -4.379  0.00  0.00    +0.000 A 
ATOM     34  C   UNL     1       6.780   3.799  -4.645  0.00  0.00    +0.000 A 
ATOM     35  C   UNL     1       7.636   2.992  -3.919  0.00  0.00    +0.007 A 
ENDBRANCH  23  30
BRANCH  23  36
ATOM     36  O   UNL     1       9.400   1.782  -2.248  0.00  0.00    -0.372 OA
ATOM     37  H   UNL     1       9.509   2.683  -1.914  0.00  0.00    +0.212 HD
ENDBRANCH  23  36
ENDBRANCH   4  23
TORSDOF 10
