REMARK  Name = ZINC39909325
REMARK  6 active torsions:
REMARK  status: ('A' for Active; 'I' for Inactive)
REMARK    1  A    between atoms: C_1  and  C_2
REMARK    2  A    between atoms: C_6  and  C_31
REMARK    3  A    between atoms: C_7  and  C_11
REMARK    4  A    between atoms: N_13  and  C_14
REMARK    5  A    between atoms: N_13  and  C_23
REMARK    6  A    between atoms: C_14  and  C_15
REMARK                            x       y       z     vdW  Elec       q    Type
REMARK                         _______ _______ _______ _____ _____    ______ ____
ROOT
ATOM      1  C   UNL     1       0.174  -5.234   2.524  0.00  0.00    +0.283 C 
ATOM      2  O   UNL     1       0.176  -4.117   2.042  0.00  0.00    -0.267 OA
ATOM      3  N   UNL     1      -0.141  -5.407   3.823  0.00  0.00    -0.286 N 
ENDROOT
BRANCH   1  10
ATOM      4  C   UNL     1       1.766 -11.936  -0.205  0.00  0.00    +0.044 C 
ATOM      5  C   UNL     1       1.515 -10.451  -0.140  0.00  0.00    -0.047 A 
ATOM      6  C   UNL     1       1.609  -9.688  -1.296  0.00  0.00    +0.004 A 
ATOM      7  C   UNL     1       1.385  -8.341  -1.257  0.00  0.00    +0.012 A 
ATOM      8  C   UNL     1       1.058  -7.729  -0.044  0.00  0.00    +0.024 A 
ATOM      9  C   UNL     1       0.762  -6.354   0.356  0.00  0.00    +0.008 A 
ATOM     10  C   UNL     1       0.518  -6.395   1.691  0.00  0.00    +0.194 A 
ATOM     11  O   UNL     1       0.638  -7.663   2.137  0.00  0.00    -0.450 OA
ATOM     12  C   UNL     1       0.962  -8.497   1.131  0.00  0.00    +0.136 A 
ATOM     13  C   UNL     1       1.189  -9.867   1.064  0.00  0.00    +0.050 A 
ATOM     14  C   UNL     1       0.733  -5.138  -0.534  0.00  0.00    +0.048 C 
ENDBRANCH   1  10
BRANCH   3  15
ATOM     15  C   UNL     1      -0.606  -4.269   4.621  0.00  0.00    +0.099 C 
ATOM     16  C   UNL     1      -1.827  -3.624   3.945  0.00  0.00    +0.047 C 
ATOM     17  C   UNL     1      -2.125  -2.251   4.593  0.00  0.00    +0.168 C 
ATOM     18  S   UNL     1      -0.468  -1.714   5.183  0.00  0.00    -0.029 S 
ATOM     19  O   UNL     1      -0.494  -1.605   6.599  0.00  0.00    -0.174 OA
ATOM     20  O   UNL     1      -0.036  -0.607   4.404  0.00  0.00    -0.174 OA
ATOM     21  C   UNL     1       0.518  -3.198   4.714  0.00  0.00    +0.188 C 
ENDBRANCH   3  15
BRANCH   3  22
ATOM     22  C   UNL     1      -0.020  -6.731   4.437  0.00  0.00    +0.145 C 
BRANCH  22  23
ATOM     23  C   UNL     1       1.359  -6.888   5.025  0.00  0.00    -0.012 A 
ATOM     24  C   UNL     1       2.342  -7.550   4.314  0.00  0.00    +0.008 A 
ATOM     25  C   UNL     1       3.607  -7.695   4.852  0.00  0.00    +0.020 A 
ATOM     26  C   UNL     1       3.889  -7.176   6.103  0.00  0.00    +0.042 A 
ATOM     27  C   UNL     1       2.906  -6.513   6.815  0.00  0.00    +0.040 A 
ATOM     28  C   UNL     1       1.642  -6.365   6.274  0.00  0.00    +0.047 A 
ATOM     29 CL   UNL     1       0.408  -5.528   7.164  0.00  0.00    -0.083 Cl
ATOM     30 CL   UNL     1       5.478  -7.358   6.780  0.00  0.00    -0.083 Cl
ENDBRANCH  22  23
ENDBRANCH   3  22
TORSDOF 4
