REMARK  Name = ZINC67099132
REMARK  4 active torsions:
REMARK  status: ('A' for Active; 'I' for Inactive)
REMARK    1  A    between atoms: C_6  and  O_7
REMARK    2  A    between atoms: O_7  and  C_8
REMARK    3  A    between atoms: C_8  and  C_9
REMARK    4  A    between atoms: C_11  and  C_14
REMARK                            x       y       z     vdW  Elec       q    Type
REMARK                         _______ _______ _______ _____ _____    ______ ____
ROOT
ATOM      1  C   UNL     1      -0.017   1.388   0.010  0.00  0.00    +0.046 A 
ATOM      2  C   UNL     1       1.153   2.093   0.002  0.00  0.00    +0.018 A 
ATOM      3  C   UNL     1       2.374   1.412  -0.012  0.00  0.00    +0.059 A 
ATOM      4  C   UNL     1       2.402   0.006  -0.014  0.00  0.00    +0.135 A 
ATOM      5  C   UNL     1       1.206  -0.693  -0.010  0.00  0.00    +0.092 A 
ATOM      6  C   UNL     1       0.002  -0.004   0.002  0.00  0.00    +0.125 A 
ATOM      7  O   UNL     1       3.578  -0.664  -0.012  0.00  0.00    -0.484 OA
ATOM      8  C   UNL     1       4.746   0.002  -0.491  0.00  0.00    +0.118 C 
ATOM      9  C   UNL     1       5.977  -0.866  -0.227  0.00  0.00    +0.048 C 
ATOM     10  C   UNL     1       5.824  -2.202  -0.957  0.00  0.00    +0.004 C 
ATOM     11  C   UNL     1       5.689  -1.950  -2.460  0.00  0.00    +0.000 C 
ATOM     12  C   UNL     1       4.459  -1.080  -2.724  0.00  0.00    +0.004 C 
ATOM     13  C   UNL     1       4.612   0.256  -1.994  0.00  0.00    +0.048 C 
ATOM     14  C   UNL     1       4.904   1.344   0.237  0.00  0.00    +0.127 C 
ATOM     15  C   UNL     1       3.646   2.151  -0.029  0.00  0.00    +0.170 C 
ATOM     16  O   UNL     1       3.687   3.345  -0.244  0.00  0.00    -0.292 OA
ENDROOT
BRANCH   6  17
ATOM     17  O   UNL     1      -1.167  -0.693   0.006  0.00  0.00    -0.484 OA
BRANCH  17  18
ATOM     18  C   UNL     1      -2.372   0.075   0.018  0.00  0.00    +0.308 C 
BRANCH  18  19
ATOM     19  C   UNL     1      -3.559  -0.853   0.021  0.00  0.00    +0.209 A 
ATOM     20  N   UNL     1      -4.176  -1.331  -1.066  0.00  0.00    -0.192 NA
ATOM     21  C   UNL     1      -5.165  -2.106  -0.715  0.00  0.00    +0.231 A 
ATOM     22  O   UNL     1      -5.211  -2.147   0.622  0.00  0.00    -0.338 OA
ATOM     23  N   UNL     1      -4.148  -1.326   1.082  0.00  0.00    -0.058 NA
BRANCH  21  24
ATOM     24  C   UNL     1      -6.095  -2.829  -1.654  0.00  0.00    +0.078 C 
ATOM     25  C   UNL     1      -7.313  -3.526  -1.044  0.00  0.00    +0.014 C 
ATOM     26  C   UNL     1      -6.139  -4.356  -1.568  0.00  0.00    +0.014 C 
ENDBRANCH  21  24
ENDBRANCH  18  19
ENDBRANCH  17  18
ENDBRANCH   6  17
TORSDOF 4
