REMARK  Name = ZINC34711068
REMARK  12 active torsions:
REMARK  status: ('A' for Active; 'I' for Inactive)
REMARK    1  A    between atoms: C_1  and  C_2
REMARK    2  A    between atoms: C_2  and  C_3
REMARK    3  A    between atoms: C_3  and  C_4
REMARK    4  A    between atoms: C_4  and  N_5
REMARK    5  A    between atoms: C_10  and  C_27
REMARK    6  A    between atoms: C_13  and  C_16
REMARK    7  A    between atoms: N_18  and  C_19
REMARK    8  A    between atoms: C_19  and  C_20
REMARK    9  A    between atoms: C_30  and  O_35
REMARK   10  A    between atoms: C_31  and  O_33
REMARK   11  A    between atoms: O_33  and  C_34
REMARK   12  A    between atoms: O_35  and  C_36
REMARK                            x       y       z     vdW  Elec       q    Type
REMARK                         _______ _______ _______ _____ _____    ______ ____
ROOT
ATOM      1  N   UNL     1       1.101  -4.728   1.740  0.00  0.00    -0.299 N 
ATOM      2  C   UNL     1       1.615  -3.850   2.625  0.00  0.00    +0.302 C 
ATOM      3  O   UNL     1       1.570  -2.658   2.394  0.00  0.00    -0.253 OA
ATOM      4  N   UNL     1       2.177  -4.295   3.766  0.00  0.00    -0.284 N 
ATOM      5  C   UNL     1       2.348  -5.735   4.005  0.00  0.00    +0.117 C 
ATOM      6  C   UNL     1       3.816  -6.007   4.346  0.00  0.00    +0.037 C 
ATOM      7  C   UNL     1       4.236  -5.121   5.521  0.00  0.00    +0.024 C 
ATOM      8  C   UNL     1       4.097  -3.649   5.127  0.00  0.00    +0.093 C 
ATOM      9  C   UNL     1       2.637  -3.349   4.792  0.00  0.00    +0.122 C 
ATOM     10  H   UNL     1       1.201  -5.681   1.889  0.00  0.00    +0.150 HD
ENDROOT
BRANCH   6  11
ATOM     11  C   UNL     1       3.984  -7.457   4.723  0.00  0.00    -0.039 A 
ATOM     12  C   UNL     1       3.285  -7.975   5.797  0.00  0.00    +0.008 A 
ATOM     13  C   UNL     1       3.435  -9.304   6.147  0.00  0.00    +0.049 A 
ATOM     14  C   UNL     1       4.289 -10.119   5.421  0.00  0.00    +0.161 A 
ATOM     15  C   UNL     1       4.992  -9.597   4.340  0.00  0.00    +0.162 A 
ATOM     16  C   UNL     1       4.833  -8.266   3.992  0.00  0.00    +0.053 A 
BRANCH  15  17
ATOM     17  O   UNL     1       5.831 -10.393   3.625  0.00  0.00    -0.491 OA
ATOM     18  C   UNL     1       6.521  -9.790   2.528  0.00  0.00    +0.277 C 
ENDBRANCH  15  17
BRANCH  14  19
ATOM     19  O   UNL     1       4.438 -11.427   5.765  0.00  0.00    -0.491 OA
ATOM     20  C   UNL     1       3.685 -11.893   6.886  0.00  0.00    +0.277 C 
ENDBRANCH  14  19
ENDBRANCH   6  11
BRANCH   8  21
ATOM     21  C   UNL     1       4.542  -2.777   6.272  0.00  0.00    +0.218 C 
ATOM     22  O   UNL     1       4.932  -3.283   7.303  0.00  0.00    -0.275 OA
ATOM     23  N   UNL     1       4.506  -1.435   6.151  0.00  0.00    -0.311 N 
ATOM     24  H   UNL     1       4.194  -1.030   5.327  0.00  0.00    +0.149 HD
BRANCH  23  25
ATOM     25  C   UNL     1       4.939  -0.587   7.265  0.00  0.00    +0.142 C 
BRANCH  25  26
ATOM     26  C   UNL     1       4.802   0.862   6.876  0.00  0.00    +0.005 A 
ATOM     27  C   UNL     1       5.911   1.573   6.458  0.00  0.00    +0.008 A 
ATOM     28  C   UNL     1       5.785   2.903   6.101  0.00  0.00    +0.000 A 
ATOM     29  C   UNL     1       4.551   3.523   6.162  0.00  0.00    +0.003 A 
ATOM     30  C   UNL     1       3.441   2.813   6.580  0.00  0.00    +0.038 A 
ATOM     31  C   UNL     1       3.564   1.480   6.932  0.00  0.00    +0.128 A 
ATOM     32  F   UNL     1       2.479   0.784   7.336  0.00  0.00    -0.205 F 
ENDBRANCH  25  26
ENDBRANCH  23  25
ENDBRANCH   8  21
BRANCH   1  33
ATOM     33  C   UNL     1       0.393  -4.242   0.553  0.00  0.00    +0.106 C 
BRANCH  33  34
ATOM     34  C   UNL     1      -0.085  -5.434  -0.279  0.00  0.00    +0.018 C 
BRANCH  34  36
ATOM     35  C   UNL     1      -1.302  -6.119  -2.351  0.00  0.00    +0.004 C 
ATOM     36  C   UNL     1      -0.824  -4.927  -1.519  0.00  0.00    -0.002 C 
ENDBRANCH  34  36
ENDBRANCH  33  34
ENDBRANCH   1  33
TORSDOF 9
