REMARK  Name = ZINC59645183
REMARK  6 active torsions:
REMARK  status: ('A' for Active; 'I' for Inactive)
REMARK    1  A    between atoms: C_10  and  C_11
REMARK    2  A    between atoms: C_11  and  N_12
REMARK    3  A    between atoms: C_14  and  C_21
REMARK    4  A    between atoms: N_22  and  N_23
REMARK    5  A    between atoms: C_24  and  C_26
REMARK    6  A    between atoms: C_26  and  C_27
REMARK                            x       y       z     vdW  Elec       q    Type
REMARK                         _______ _______ _______ _____ _____    ______ ____
ROOT
ATOM      1  N   UNL     1       5.331   0.509   1.328  0.00  0.00    -0.342 N 
ATOM      2  C   UNL     1       5.031   1.688   1.941  0.00  0.00    +0.096 A 
ATOM      3  C   UNL     1       5.520   1.684   3.210  0.00  0.00    +0.020 A 
ATOM      4  C   UNL     1       6.184   0.381   3.400  0.00  0.00    +0.009 A 
ATOM      5  C   UNL     1       6.028  -0.313   2.189  0.00  0.00    +0.050 A 
ATOM      6  C   UNL     1       6.554  -1.594   2.064  0.00  0.00    +0.026 A 
ATOM      7  C   UNL     1       7.218  -2.171   3.124  0.00  0.00    +0.002 A 
ATOM      8  C   UNL     1       7.369  -1.485   4.321  0.00  0.00    +0.001 A 
ATOM      9  C   UNL     1       6.862  -0.212   4.462  0.00  0.00    +0.010 A 
ENDROOT
BRANCH   3  10
ATOM     10  C   UNL     1       5.409   2.767   4.200  0.00  0.00    +0.140 C 
ATOM     11  N   UNL     1       5.929   2.623   5.382  0.00  0.00    -0.188 NA
BRANCH  11  12
ATOM     12  N   UNL     1       5.823   3.654   6.324  0.00  0.00    -0.207 N 
ATOM     13  C   UNL     1       6.362   3.504   7.551  0.00  0.00    +0.238 C 
ATOM     14  O   UNL     1       6.939   2.476   7.838  0.00  0.00    -0.274 OA
ATOM     15  H   UNL     1       5.361   4.475   6.095  0.00  0.00    +0.177 HD
BRANCH  13  16
ATOM     16  C   UNL     1       6.248   4.613   8.564  0.00  0.00    +0.153 C 
BRANCH  16  17
ATOM     17  C   UNL     1       6.928   4.197   9.843  0.00  0.00    +0.059 A 
ATOM     18  C   UNL     1       7.898   4.956  10.407  0.00  0.00    +0.072 A 
ATOM     19  S   UNL     1       8.296   3.973  11.844  0.00  0.00    -0.061 S 
ATOM     20  C   UNL     1       7.204   2.721  11.580  0.00  0.00    +0.156 A 
ATOM     21  N   UNL     1       6.601   3.079  10.466  0.00  0.00    -0.230 NA
ATOM     22  N   UNL     1       6.987   1.589  12.351  0.00  0.00    -0.338 N 
ATOM     23  H   UNL     1       7.503   1.448  13.160  0.00  0.00    +0.144 HD
ATOM     24  H   UNL     1       6.320   0.939  12.082  0.00  0.00    +0.144 HD
ENDBRANCH  16  17
ENDBRANCH  13  16
ENDBRANCH  11  12
ENDBRANCH   3  10
BRANCH   1  25
ATOM     25  C   UNL     1       4.960   0.161  -0.046  0.00  0.00    +0.157 C 
BRANCH  25  35
ATOM     26  C   UNL     1      -0.016   1.357   0.009  0.00  0.00    +0.001 A 
ATOM     27  C   UNL     1       1.169   2.091   0.002  0.00  0.00    +0.001 A 
ATOM     28  C   UNL     1       2.378   1.468  -0.013  0.00  0.00    +0.009 A 
ATOM     29  C   UNL     1       2.438   0.064  -0.021  0.00  0.00    -0.013 A 
ATOM     30  C   UNL     1       1.233  -0.683  -0.013  0.00  0.00    -0.018 A 
ATOM     31  C   UNL     1       0.002  -0.004   0.002  0.00  0.00    +0.008 A 
ATOM     32  C   UNL     1       1.292  -2.087  -0.021  0.00  0.00    +0.008 A 
ATOM     33  C   UNL     1       2.502  -2.709  -0.036  0.00  0.00    +0.001 A 
ATOM     34  C   UNL     1       3.687  -1.976  -0.043  0.00  0.00    +0.006 A 
ATOM     35  C   UNL     1       3.668  -0.615  -0.037  0.00  0.00    -0.020 A 
ENDBRANCH  25  35
ENDBRANCH   1  25
TORSDOF 6
