REMARK  Name = ZINC05126347
REMARK  11 active torsions:
REMARK  status: ('A' for Active; 'I' for Inactive)
REMARK    1  A    between atoms: C_1  and  C_2
REMARK    2  A    between atoms: C_2  and  C_3
REMARK    3  A    between atoms: C_14  and  O_37
REMARK    4  A    between atoms: C_18  and  C_36
REMARK    5  A    between atoms: C_23  and  C_35
REMARK    6  A    between atoms: C_24  and  C_26
REMARK    7  A    between atoms: C_26  and  C_34
REMARK    8  A    between atoms: N_27  and  N_28
REMARK    9  A    between atoms: C_29  and  O_31
REMARK   10  A    between atoms: O_31  and  C_32
REMARK   11  A    between atoms: C_32  and  C_33
REMARK                            x       y       z     vdW  Elec       q    Type
REMARK                         _______ _______ _______ _____ _____    ______ ____
ROOT
ATOM      1  C   UNL     1       0.191  -3.461   1.297  0.00  0.00    -0.002 C 
ATOM      2  C   UNL     1       1.309  -2.795   2.112  0.00  0.00    +0.008 C 
ATOM      3  C   UNL     1       1.881  -1.638   1.264  0.00  0.00    -0.000 C 
ATOM      4  C   UNL     1       1.572  -0.313   1.941  0.00  0.00    +0.000 C 
ATOM      5  C   UNL     1       0.180  -0.279   2.560  0.00  0.00    +0.031 C 
ATOM      6  C   UNL     1      -0.068   1.077   3.162  0.00  0.00    -0.027 C 
ATOM      7  C   UNL     1       0.514   2.161   2.744  0.00  0.00    -0.065 C 
ATOM      8  C   UNL     1       0.119   3.474   3.399  0.00  0.00    +0.062 C 
ATOM      9  C   UNL     1      -0.277   4.458   2.293  0.00  0.00    +0.119 C 
ATOM     10  C   UNL     1       0.881   4.603   1.307  0.00  0.00    +0.032 C 
ATOM     11  C   UNL     1       1.165   3.264   0.625  0.00  0.00    +0.014 C 
ATOM     12  C   UNL     1       1.540   2.194   1.651  0.00  0.00    -0.008 C 
ATOM     13  C   UNL     1       1.728   0.851   0.968  0.00  0.00    +0.003 C 
ATOM     14  C   UNL     1       0.717   0.658  -0.164  0.00  0.00    +0.005 C 
ATOM     15  C   UNL     1       1.124  -0.575  -0.961  0.00  0.00    +0.008 C 
ATOM     16  C   UNL     1       1.321  -1.822  -0.142  0.00  0.00    -0.021 C 
ATOM     17  C   UNL     1       0.096  -2.730  -0.052  0.00  0.00    +0.044 C 
ATOM     18  C   UNL     1       2.391  -2.648  -0.917  0.00  0.00    +0.012 C 
ATOM     19  C   UNL     1       2.889   2.582   2.272  0.00  0.00    +0.016 C 
ENDROOT
BRANCH  17  20
ATOM     20  C   UNL     1      -1.207  -1.998  -0.176  0.00  0.00    +0.038 C 
ATOM     21  N   UNL     1      -2.309  -2.649  -0.179  0.00  0.00    -0.187 NA
ATOM     22  C   UNL     1      -1.219  -0.496  -0.296  0.00  0.00    +0.062 C 
BRANCH  21  23
ATOM     23  N   UNL     1      -2.296  -4.047  -0.274  0.00  0.00    -0.172 N 
ATOM     24  C   UNL     1      -3.456  -4.726  -0.377  0.00  0.00    +0.420 C 
ATOM     25  O   UNL     1      -3.443  -5.928  -0.551  0.00  0.00    -0.225 OA
ATOM     26  H   UNL     1      -1.453  -4.526  -0.266  0.00  0.00    +0.181 HD
BRANCH  24  27
ATOM     27  O   UNL     1      -4.630  -4.072  -0.281  0.00  0.00    -0.450 OA
BRANCH  27  28
ATOM     28  C   UNL     1      -5.837  -4.879  -0.289  0.00  0.00    +0.230 C 
ATOM     29  C   UNL     1      -7.062  -3.964  -0.299  0.00  0.00    +0.048 C 
ENDBRANCH  27  28
ENDBRANCH  24  27
ENDBRANCH  21  23
ENDBRANCH  17  20
BRANCH   1  31
ATOM     30  C   UNL     1      -1.024  -4.113   3.380  0.00  0.00    +0.004 C 
ATOM     31  C   UNL     1      -1.144  -3.386   2.039  0.00  0.00    +0.001 C 
ENDBRANCH   1  31
BRANCH   9  32
ATOM     32  O   UNL     1      -1.431   3.966   1.609  0.00  0.00    -0.391 OA
ATOM     33  H   UNL     1      -2.205   3.850   2.177  0.00  0.00    +0.210 HD
ENDBRANCH   9  32
TORSDOF 6
