REMARK  Name = ZINC16809368
REMARK  6 active torsions:
REMARK  status: ('A' for Active; 'I' for Inactive)
REMARK    1  A    between atoms: C_1  and  C_2
REMARK    2  A    between atoms: C_2  and  C_3
REMARK    3  A    between atoms: C_3  and  C_4
REMARK    4  A    between atoms: C_4  and  C_5
REMARK    5  A    between atoms: C_6  and  C_21
REMARK    6  A    between atoms: N_13  and  C_14
REMARK                            x       y       z     vdW  Elec       q    Type
REMARK                         _______ _______ _______ _____ _____    ______ ____
ROOT
ATOM      1  C   UNL     1       0.031   1.406   0.539  0.00  0.00    +0.038 A 
ATOM      2  C   UNL     1       1.225   2.067   0.535  0.00  0.00    +0.050 A 
ATOM      3  N   UNL     1       2.359   1.396   0.345  0.00  0.00    -0.221 NA
ATOM      4  C   UNL     1       2.361   0.092   0.157  0.00  0.00    +0.200 A 
ATOM      5  N   UNL     1       1.202  -0.621   0.151  0.00  0.00    -0.295 N 
ATOM      6  H   UNL     1       1.220  -1.580   0.011  0.00  0.00    +0.172 HD
ATOM      7  C   UNL     1       0.025   0.014   0.340  0.00  0.00    +0.256 A 
ATOM      8  O   UNL     1      -1.025  -0.609   0.337  0.00  0.00    -0.267 OA
ATOM      9  N   UNL     1       3.552  -0.559  -0.034  0.00  0.00    -0.285 N 
ATOM     10  C   UNL     1       1.260   3.558   0.747  0.00  0.00    +0.066 C 
ATOM     11  H   UNL     1       3.572  -1.527  -0.092  0.00  0.00    +0.155 HD
ENDROOT
BRANCH   9  12
ATOM     12  C   UNL     1       4.739   0.173  -0.147  0.00  0.00    +0.034 A 
ATOM     13  C   UNL     1       4.730   1.423  -0.752  0.00  0.00    +0.024 A 
ATOM     14  C   UNL     1       5.902   2.146  -0.858  0.00  0.00    +0.017 A 
ATOM     15  C   UNL     1       7.087   1.620  -0.372  0.00  0.00    +0.018 A 
ATOM     16  C   UNL     1       7.099   0.373   0.227  0.00  0.00    +0.017 A 
ATOM     17  C   UNL     1       5.929  -0.352   0.340  0.00  0.00    +0.024 A 
ATOM     18 BR   UNL     1       8.691   2.609  -0.525  0.00  0.00    -0.050 Br
ENDBRANCH   9  12
BRANCH   1  19
ATOM     19  C   UNL     1      -1.259   2.156   0.748  0.00  0.00    +0.042 C 
BRANCH  19  20
ATOM     20  C   UNL     1      -1.871   2.506  -0.610  0.00  0.00    +0.005 C 
BRANCH  20  22
ATOM     21  C   UNL     1      -3.792   3.617  -1.757  0.00  0.00    +0.004 C 
ATOM     22  C   UNL     1      -3.181   3.267  -0.399  0.00  0.00    -0.003 C 
ENDBRANCH  20  22
ENDBRANCH  19  20
ENDBRANCH   1  19
TORSDOF 4
