REMARK  Name = ZINC13496804
REMARK  6 active torsions:
REMARK  status: ('A' for Active; 'I' for Inactive)
REMARK    1  A    between atoms: C_4  and  C_7
REMARK    2  A    between atoms: C_7  and  C_8
REMARK    3  A    between atoms: C_8  and  N_9
REMARK    4  A    between atoms: N_11  and  C_12
REMARK    5  A    between atoms: C_15  and  S_18
REMARK    6  A    between atoms: S_18  and  N_21
REMARK                            x       y       z     vdW  Elec       q    Type
REMARK                         _______ _______ _______ _____ _____    ______ ____
ROOT
ATOM      1  N   UNL     1       5.860  -0.501   1.739  0.00  0.00    -0.367 N 
ATOM      2  C   UNL     1       6.276  -1.400   2.680  0.00  0.00    +0.143 C 
ATOM      3  N   UNL     1       5.474  -1.690   3.750  0.00  0.00    -0.295 N 
ATOM      4  S   UNL     1       7.753  -2.139   2.525  0.00  0.00    -0.016 SA
ATOM      5  H   UNL     1       4.512  -1.592   3.676  0.00  0.00    +0.154 HD
ATOM      6  H   UNL     1       6.428  -0.295   0.980  0.00  0.00    +0.161 HD
ENDROOT
BRANCH   3   7
ATOM      7  C   UNL     1       6.042  -2.127   4.951  0.00  0.00    +0.033 A 
ATOM      8  C   UNL     1       5.355  -3.024   5.760  0.00  0.00    +0.025 A 
ATOM      9  C   UNL     1       5.919  -3.454   6.945  0.00  0.00    +0.030 A 
ATOM     10  C   UNL     1       7.166  -2.994   7.327  0.00  0.00    +0.105 A 
ATOM     11  C   UNL     1       7.852  -2.101   6.524  0.00  0.00    +0.030 A 
ATOM     12  C   UNL     1       7.296  -1.671   5.335  0.00  0.00    +0.025 A 
BRANCH  10  13
ATOM     13  S   UNL     1       7.881  -3.545   8.840  0.00  0.00    +0.056 S 
ATOM     14  O   UNL     1       8.813  -2.548   9.235  0.00  0.00    -0.153 OA
ATOM     15  O   UNL     1       6.805  -3.954   9.672  0.00  0.00    -0.153 OA
BRANCH  13  16
ATOM     16  N   UNL     1       8.760  -4.906   8.499  0.00  0.00    -0.204 NA
ATOM     17  H   UNL     1       9.546  -5.121   9.026  0.00  0.00    +0.144 HD
ATOM     18  H   UNL     1       8.489  -5.489   7.772  0.00  0.00    +0.144 HD
ENDBRANCH  13  16
ENDBRANCH  10  13
ENDBRANCH   3   7
BRANCH   1  19
ATOM     19  C   UNL     1       4.555   0.152   1.875  0.00  0.00    +0.119 C 
BRANCH  19  20
ATOM     20  C   UNL     1       4.336   1.104   0.698  0.00  0.00    +0.056 C 
BRANCH  20  24
ATOM     21  C   UNL     1       0.533   3.009   1.094  0.00  0.00    +0.000 A 
ATOM     22  C   UNL     1       1.657   3.587   1.652  0.00  0.00    +0.000 A 
ATOM     23  C   UNL     1       2.888   2.971   1.524  0.00  0.00    +0.004 A 
ATOM     24  C   UNL     1       2.994   1.776   0.838  0.00  0.00    -0.046 A 
ATOM     25  C   UNL     1       1.869   1.197   0.280  0.00  0.00    +0.004 A 
ATOM     26  C   UNL     1       0.639   1.814   0.407  0.00  0.00    +0.000 A 
ENDBRANCH  20  24
ENDBRANCH  19  20
ENDBRANCH   1  19
TORSDOF 6
