REMARK  Name = ZINC02121136
REMARK  8 active torsions:
REMARK  status: ('A' for Active; 'I' for Inactive)
REMARK    1  A    between atoms: C_1  and  C_2
REMARK    2  A    between atoms: C_3  and  O_17
REMARK    3  A    between atoms: O_17  and  C_18
REMARK    4  A    between atoms: C_18  and  C_19
REMARK    5  A    between atoms: N_21  and  CA_22
REMARK    6  A    between atoms: CA_22  and  C_24
REMARK    7  A    between atoms: CA_22  and  C_32
REMARK    8  A    between atoms: C_24  and  C_25
REMARK                            x       y       z     vdW  Elec       q    Type
REMARK                         _______ _______ _______ _____ _____    ______ ____
ROOT
ATOM      1  O   UNL     1      -0.009   0.000  -2.372  0.00  0.00    -0.482 OA
ENDROOT
BRANCH   1   4
ATOM      2  C   UNL     1      -0.018   1.503   0.010  0.00  0.00    +0.051 C 
ATOM      3  C   UNL     1       0.002  -0.004   0.002  0.00  0.00    +0.034 A 
ATOM      4  C   UNL     1       0.006  -0.690  -1.202  0.00  0.00    +0.128 A 
ATOM      5  C   UNL     1       0.024  -2.080  -1.220  0.00  0.00    +0.047 A 
ATOM      6  C   UNL     1       0.034  -2.788  -0.038  0.00  0.00    +0.016 A 
ATOM      7  C   UNL     1       0.029  -2.108   1.177  0.00  0.00    +0.026 A 
ATOM      8  C   UNL     1       0.023  -0.703   1.198  0.00  0.00    +0.146 A 
ATOM      9  O   UNL     1       0.043  -0.035   2.379  0.00  0.00    -0.421 OA
ATOM     10  C   UNL     1      -0.480  -0.644   3.469  0.00  0.00    +0.345 A 
ATOM     11  O   UNL     1      -1.137  -0.025   4.283  0.00  0.00    -0.245 OA
ATOM     12  C   UNL     1      -0.225  -2.087   3.631  0.00  0.00    +0.067 A 
ATOM     13  C   UNL     1       0.028  -2.835   2.461  0.00  0.00    -0.000 A 
ATOM     14  C   UNL     1       0.278  -4.196   2.555  0.00  0.00    +0.009 A 
ATOM     15  C   UNL     1       0.257  -4.806   3.795  0.00  0.00    +0.001 A 
ATOM     16  C   UNL     1      -0.012  -4.073   4.941  0.00  0.00    +0.001 A 
ATOM     17  C   UNL     1      -0.238  -2.717   4.869  0.00  0.00    +0.015 A 
ENDBRANCH   1   4
BRANCH   1  18
ATOM     18  C   UNL     1      -0.004  -0.767  -3.578  0.00  0.00    +0.324 C 
BRANCH  18  19
ATOM     19  C   UNL     1      -0.021   0.163  -4.764  0.00  0.00    +0.251 C 
ATOM     20  O   UNL     1      -0.036   1.363  -4.593  0.00  0.00    -0.272 OA
ATOM     21  N   UNL     1      -0.020  -0.341  -6.014  0.00  0.00    -0.299 N 
ATOM     22  H   UNL     1      -0.008  -1.301  -6.150  0.00  0.00    +0.150 HD
BRANCH  21  23
ATOM     23  CA  UNL     1      -0.037   0.562  -7.167  0.00  0.00    +0.191 C 
BRANCH  23  24
ATOM     24  C   UNL     1      -1.459   0.951  -7.480  0.00  0.00    +0.376 C 
ATOM     25  O   UNL     1      -1.699   2.038  -7.979  0.00  0.00    -0.244 OA
ATOM     26  OXT UNL     1      -2.370   0.179  -7.234  0.00  0.00    -0.244 OA
ENDBRANCH  23  24
BRANCH  23  27
ATOM     27  C   UNL     1       0.576  -0.144  -8.378  0.00  0.00    +0.069 C 
BRANCH  27  28
ATOM     28  C   UNL     1       2.033  -0.423  -8.111  0.00  0.00    -0.045 A 
ATOM     29  C   UNL     1       2.990   0.512  -8.457  0.00  0.00    +0.005 A 
ATOM     30  C   UNL     1       4.326   0.257  -8.213  0.00  0.00    +0.020 A 
ATOM     31  C   UNL     1       4.706  -0.935  -7.622  0.00  0.00    +0.041 A 
ATOM     32  C   UNL     1       3.748  -1.871  -7.277  0.00  0.00    +0.020 A 
ATOM     33  C   UNL     1       2.411  -1.612  -7.516  0.00  0.00    +0.005 A 
ATOM     34 CL   UNL     1       6.384  -1.257  -7.316  0.00  0.00    -0.084 Cl
ENDBRANCH  27  28
ENDBRANCH  23  27
ENDBRANCH  21  23
ENDBRANCH  18  19
ENDBRANCH   1  18
TORSDOF 7
