REMARK  Name = ZINC38925704
REMARK  8 active torsions:
REMARK  status: ('A' for Active; 'I' for Inactive)
REMARK    1  A    between atoms: C_1  and  O_2
REMARK    2  A    between atoms: O_2  and  C_3
REMARK    3  A    between atoms: C_6  and  C_11
REMARK    4  A    between atoms: C_8  and  O_9
REMARK    5  A    between atoms: O_9  and  C_10
REMARK    6  A    between atoms: N_17  and  N_18
REMARK    7  A    between atoms: C_19  and  C_20
REMARK    8  A    between atoms: C_25  and  O_26
REMARK                            x       y       z     vdW  Elec       q    Type
REMARK                         _______ _______ _______ _____ _____    ______ ____
ROOT
ATOM      1  C   UNL     1       2.523  -2.507  -4.393  0.00  0.00    +0.264 C 
ATOM      2  N   UNL     1       1.842  -3.768  -4.723  0.00  0.00    -0.189 NA
ATOM      3  N   UNL     1       1.388  -3.671  -5.867  0.00  0.00    -0.219 N 
ATOM      4  C   UNL     1       1.649  -2.471  -6.450  0.00  0.00    +0.174 C 
ATOM      5  S   UNL     1       1.158  -2.021  -8.028  0.00  0.00    -0.015 S 
ATOM      6  N   UNL     1       2.353  -1.683  -5.604  0.00  0.00    -0.172 N 
ATOM      7  H   UNL     1       0.895  -4.381  -6.306  0.00  0.00    +0.176 HD
ENDROOT
BRANCH   1  11
ATOM      8  C   UNL     1       0.665  -0.628  -1.030  0.00  0.00    +0.162 A 
ATOM      9  C   UNL     1       1.220   0.143  -2.039  0.00  0.00    +0.050 A 
ATOM     10  C   UNL     1       1.821  -0.468  -3.125  0.00  0.00    +0.011 A 
ATOM     11  C   UNL     1       1.868  -1.847  -3.207  0.00  0.00    +0.001 A 
ATOM     12  C   UNL     1       1.316  -2.622  -2.204  0.00  0.00    +0.056 A 
ATOM     13  C   UNL     1       0.719  -2.016  -1.110  0.00  0.00    +0.162 A 
BRANCH   8  15
ATOM     14  C   UNL     1       0.058   1.400   0.053  0.00  0.00    +0.277 C 
ATOM     15  O   UNL     1       0.075  -0.029   0.038  0.00  0.00    -0.491 OA
ENDBRANCH   8  15
BRANCH  13  16
ATOM     16  O   UNL     1       0.180  -2.777  -0.120  0.00  0.00    -0.491 OA
ATOM     17  C   UNL     1       0.272  -4.195  -0.269  0.00  0.00    +0.277 C 
ENDBRANCH  13  16
ENDBRANCH   1  11
BRANCH   6  18
ATOM     18  N   UNL     1       2.817  -0.379  -5.825  0.00  0.00    -0.183 NA
ATOM     19  C   UNL     1       2.679   0.169  -6.995  0.00  0.00    +0.142 C 
BRANCH  19  20
ATOM     20  C   UNL     1       3.264   1.494  -7.261  0.00  0.00    +0.037 A 
ATOM     21  C   UNL     1       3.114   2.090  -8.515  0.00  0.00    +0.028 A 
ATOM     22  C   UNL     1       3.664   3.332  -8.757  0.00  0.00    +0.019 A 
ATOM     23  C   UNL     1       4.365   3.991  -7.761  0.00  0.00    +0.019 A 
ATOM     24  C   UNL     1       4.521   3.412  -6.515  0.00  0.00    +0.047 A 
ATOM     25  C   UNL     1       3.970   2.168  -6.254  0.00  0.00    +0.126 A 
ATOM     26 BR   UNL     1       3.461   4.137 -10.456  0.00  0.00    -0.050 Br
BRANCH  25  27
ATOM     27  O   UNL     1       4.118   1.601  -5.029  0.00  0.00    -0.506 OA
ATOM     28  H   UNL     1       4.909   1.052  -4.942  0.00  0.00    +0.292 HD
ENDBRANCH  25  27
ENDBRANCH  19  20
ENDBRANCH   6  18
TORSDOF 6
