REMARK  Name = ZINC33444909
REMARK  11 active torsions:
REMARK  status: ('A' for Active; 'I' for Inactive)
REMARK    1  A    between atoms: C_1  and  C_2
REMARK    2  A    between atoms: C_2  and  N_3
REMARK    3  A    between atoms: N_3  and  C_4
REMARK    4  A    between atoms: C_4  and  C_5
REMARK    5  A    between atoms: C_6  and  C_8
REMARK    6  A    between atoms: C_12  and  N_13
REMARK    7  A    between atoms: C_14  and  C_16
REMARK    8  A    between atoms: C_24  and  C_28
REMARK    9  A    between atoms: C_28  and  C_29
REMARK   10  A    between atoms: C_28  and  C_30
REMARK   11  A    between atoms: C_28  and  C_31
REMARK                            x       y       z     vdW  Elec       q    Type
REMARK                         _______ _______ _______ _____ _____    ______ ____
ROOT
ATOM      1  C   UNL     1       1.212  -1.127   0.075  0.00  0.00    +0.069 A 
ATOM      2  C   UNL     1       1.897  -1.593  -1.119  0.00  0.00    -0.023 A 
ATOM      3  C   UNL     1       2.935  -2.428  -0.897  0.00  0.00    -0.004 A 
ATOM      4  S   UNL     1       3.011  -2.599   0.863  0.00  0.00    -0.077 S 
ATOM      5  C   UNL     1       1.686  -1.572   1.301  0.00  0.00    +0.085 A 
ATOM      6  C   UNL     1       3.819  -3.062  -1.926  0.00  0.00    +0.046 C 
ATOM      7  C   UNL     1       3.143  -2.922  -3.298  0.00  0.00    -0.000 C 
ATOM      8  C   UNL     1       2.676  -1.474  -3.473  0.00  0.00    +0.009 C 
ATOM      9  C   UNL     1       1.502  -1.189  -2.534  0.00  0.00    +0.037 C 
ENDROOT
BRANCH   5  10
ATOM     10  N   UNL     1       1.213  -1.271   2.568  0.00  0.00    -0.275 N 
ATOM     11  C   UNL     1       1.807  -1.804   3.654  0.00  0.00    +0.250 C 
ATOM     12  O   UNL     1       2.759  -2.549   3.522  0.00  0.00    -0.270 OA
ATOM     13  H   UNL     1       0.352  -0.597   2.688  0.00  0.00    +0.156 HD
BRANCH  11  14
ATOM     14  C   UNL     1       1.303  -1.482   5.005  0.00  0.00    +0.051 A 
ATOM     15  C   UNL     1       0.214  -0.622   5.161  0.00  0.00    +0.014 A 
ATOM     16  C   UNL     1      -0.256  -0.331   6.424  0.00  0.00    +0.001 A 
ATOM     17  C   UNL     1       0.357  -0.879   7.538  0.00  0.00    +0.001 A 
ATOM     18  C   UNL     1       1.440  -1.727   7.392  0.00  0.00    +0.016 A 
ATOM     19  C   UNL     1       1.917  -2.032   6.133  0.00  0.00    +0.030 A 
ATOM     20 BR   UNL     1       3.398  -3.192   5.935  0.00  0.00    -0.050 Br
ENDBRANCH  11  14
ENDBRANCH   5  10
BRANCH   7  21
ATOM     21  C   UNL     1       4.142  -3.276  -4.401  0.00  0.00    -0.035 C 
ATOM     22  C   UNL     1       4.619  -4.718  -4.214  0.00  0.00    +0.011 C 
ATOM     23  C   UNL     1       3.465  -3.136  -5.766  0.00  0.00    +0.011 C 
ATOM     24  C   UNL     1       5.340  -2.328  -4.327  0.00  0.00    +0.011 C 
ENDBRANCH   7  21
BRANCH   1  26
ATOM     25  N   UNL     1      -1.178  -0.711  -0.165  0.00  0.00    -0.298 N 
ATOM     26  C   UNL     1       0.066  -0.216  -0.012  0.00  0.00    +0.249 C 
ATOM     27  O   UNL     1       0.239   0.987   0.054  0.00  0.00    -0.270 OA
BRANCH  25  29
ATOM     28  C   UNL     1      -1.676  -2.804   0.999  0.00  0.00    +0.024 C 
ATOM     29  C   UNL     1      -1.376  -2.150  -0.352  0.00  0.00    +0.104 C 
ENDBRANCH  25  29
BRANCH  25  30
ATOM     30  C   UNL     1      -2.333   0.190  -0.138  0.00  0.00    +0.104 C 
ATOM     31  C   UNL     1      -2.630   0.681  -1.556  0.00  0.00    +0.024 C 
ENDBRANCH  25  30
ENDBRANCH   1  26
TORSDOF 6
