REMARK  Name = ZINC63097153
REMARK  8 active torsions:
REMARK  status: ('A' for Active; 'I' for Inactive)
REMARK    1  A    between atoms: C_1  and  C_2
REMARK    2  A    between atoms: C_4  and  C_12
REMARK    3  A    between atoms: C_12  and  C_13
REMARK    4  A    between atoms: C_13  and  N_14
REMARK    5  A    between atoms: N_14  and  C_15
REMARK    6  A    between atoms: C_15  and  C_33
REMARK    7  A    between atoms: C_17  and  C_32
REMARK    8  A    between atoms: N_19  and  C_22
REMARK                            x       y       z     vdW  Elec       q    Type
REMARK                         _______ _______ _______ _____ _____    ______ ____
ROOT
ATOM      1  C   UNL     1      -5.927  -0.964  -1.038  0.00  0.00    +0.015 C 
ATOM      2  C   UNL     1      -6.831  -0.956  -2.087  0.00  0.00    +0.077 C 
ATOM      3  C   UNL     1      -8.080  -1.723  -2.199  0.00  0.00    +0.070 C 
ATOM      4  N   UNL     1      -8.624  -1.423  -3.338  0.00  0.00    -0.179 NA
ATOM      5  N   UNL     1      -7.851  -0.499  -4.041  0.00  0.00    -0.158 N 
ATOM      6  C   UNL     1      -6.754  -0.174  -3.328  0.00  0.00    +0.271 C 
ATOM      7  O   UNL     1      -5.875   0.608  -3.649  0.00  0.00    -0.268 OA
ATOM      8  C   UNL     1      -8.629  -2.685  -1.176  0.00  0.00    +0.068 C 
ATOM      9  C   UNL     1      -6.233  -1.745   0.214  0.00  0.00    +0.061 C 
ENDROOT
BRANCH   5  10
ATOM     10  C   UNL     1      -8.186   0.044  -5.360  0.00  0.00    +0.249 C 
ATOM     11  N   UNL     1      -9.509   0.684  -5.348  0.00  0.00    -0.315 N 
ATOM     12  C   UNL     1     -10.492   0.147  -6.178  0.00  0.00    +0.043 A 
ATOM     13  C   UNL     1     -11.810   0.622  -6.299  0.00  0.00    +0.024 A 
ATOM     14  C   UNL     1     -12.708   0.021  -7.149  0.00  0.00    +0.002 A 
ATOM     15  C   UNL     1     -12.346  -1.073  -7.915  0.00  0.00    +0.001 A 
ATOM     16  C   UNL     1     -11.055  -1.562  -7.816  0.00  0.00    +0.016 A 
ATOM     17  C   UNL     1     -10.156  -0.960  -6.964  0.00  0.00    +0.032 A 
ATOM     18  S   UNL     1      -8.452  -1.302  -6.581  0.00  0.00    -0.080 S 
ATOM     19  H   UNL     1      -9.692   1.451  -4.783  0.00  0.00    +0.149 HD
ENDBRANCH   5  10
BRANCH   1  20
ATOM     20  N   UNL     1      -4.774  -0.273  -1.137  0.00  0.00    -0.346 N 
ATOM     21  H   UNL     1      -4.577   0.230  -1.943  0.00  0.00    +0.146 HD
BRANCH  20  22
ATOM     22  C   UNL     1      -3.817  -0.281  -0.027  0.00  0.00    +0.105 C 
BRANCH  22  23
ATOM     23  C   UNL     1      -2.603   0.574  -0.394  0.00  0.00    +0.052 C 
BRANCH  23  26
ATOM     24  C   UNL     1      -0.492   2.790   0.676  0.00  0.00    +0.035 C 
ATOM     25  C   UNL     1      -0.287   1.279   0.806  0.00  0.00    +0.103 C 
ATOM     26  C   UNL     1      -1.619   0.565   0.748  0.00  0.00    -0.037 C 
ATOM     27  C   UNL     1      -1.749  -0.083   1.928  0.00  0.00    -0.001 A 
ATOM     28  C   UNL     1      -2.804  -0.940   2.481  0.00  0.00    +0.010 A 
ATOM     29  C   UNL     1      -2.647  -1.456   3.721  0.00  0.00    +0.001 A 
ATOM     30  C   UNL     1      -1.505  -1.195   4.489  0.00  0.00    +0.002 A 
ATOM     31  C   UNL     1      -0.493  -0.417   4.050  0.00  0.00    +0.026 A 
ATOM     32  C   UNL     1      -0.552   0.179   2.760  0.00  0.00    +0.043 A 
ATOM     33  N   UNL     1       0.286   0.958   2.118  0.00  0.00    -0.378 N 
ATOM     34  H   UNL     1       1.141   1.270   2.453  0.00  0.00    +0.160 HD
ENDBRANCH  23  26
ENDBRANCH  22  23
ENDBRANCH  20  22
ENDBRANCH   1  20
TORSDOF 5
