REMARK  Name = ZINC13070527
REMARK  12 active torsions:
REMARK  status: ('A' for Active; 'I' for Inactive)
REMARK    1  A    between atoms: C_1  and  C_2
REMARK    2  A    between atoms: C_2  and  O_3
REMARK    3  A    between atoms: O_3  and  C_4
REMARK    4  A    between atoms: C_4  and  C_6
REMARK    5  A    between atoms: C_7  and  C_29
REMARK    6  A    between atoms: C_10  and  N_11
REMARK    7  A    between atoms: C_12  and  C_14
REMARK    8  A    between atoms: C_14  and  S_15
REMARK    9  A    between atoms: S_15  and  C_16
REMARK   10  A    between atoms: C_19  and  C_22
REMARK   11  A    between atoms: N_20  and  N_21
REMARK   12  A    between atoms: C_25  and  C_28
REMARK                            x       y       z     vdW  Elec       q    Type
REMARK                         _______ _______ _______ _____ _____    ______ ____
ROOT
ATOM      1  N   UNL     1      -4.558   6.930  -1.362  0.00  0.00    -0.279 N 
ATOM      2  C   UNL     1      -4.595   8.257  -1.128  0.00  0.00    +0.228 C 
ATOM      3  O   UNL     1      -3.967   8.728  -0.203  0.00  0.00    -0.275 OA
ATOM      4  H   UNL     1      -5.060   6.554  -2.102  0.00  0.00    +0.155 HD
ENDROOT
BRANCH   1   9
ATOM      5  C   UNL     1      -3.644   4.726  -0.628  0.00  0.00    +0.096 A 
ATOM      6  C   UNL     1      -2.787   4.107   0.367  0.00  0.00    +0.012 A 
ATOM      7  C   UNL     1      -2.227   4.934   1.288  0.00  0.00    +0.057 A 
ATOM      8  S   UNL     1      -2.834   6.541   0.821  0.00  0.00    -0.080 S 
ATOM      9  C   UNL     1      -3.803   6.104  -0.545  0.00  0.00    +0.086 A 
BRANCH   6  10
ATOM     10  C   UNL     1      -2.541   2.650   0.380  0.00  0.00    +0.021 A 
ATOM     11  C   UNL     1      -1.351   1.977   0.446  0.00  0.00    +0.016 A 
ATOM     12  C   UNL     1      -1.369   0.598   0.445  0.00  0.00    +0.008 A 
ATOM     13  C   UNL     1      -2.561  -0.047   0.379  0.00  0.00    +0.046 A 
ATOM     14  S   UNL     1      -3.719   1.310   0.308  0.00  0.00    -0.097 S 
ENDBRANCH   6  10
BRANCH   5  15
ATOM     15  C   UNL     1      -4.306   3.939  -1.667  0.00  0.00    +0.342 C 
ATOM     16  O   UNL     1      -5.414   3.476  -1.466  0.00  0.00    -0.245 OA
BRANCH  15  17
ATOM     17  O   UNL     1      -3.690   3.725  -2.848  0.00  0.00    -0.461 OA
BRANCH  17  19
ATOM     18  C   UNL     1      -3.544   2.812  -5.080  0.00  0.00    +0.048 C 
ATOM     19  C   UNL     1      -4.395   2.946  -3.816  0.00  0.00    +0.229 C 
ENDBRANCH  17  19
ENDBRANCH  15  17
ENDBRANCH   5  15
ENDBRANCH   1   9
BRANCH   2  20
ATOM     20  C   UNL     1      -5.415   9.156  -2.016  0.00  0.00    +0.173 C 
BRANCH  20  21
ATOM     21  S   UNL     1      -5.261  10.868  -1.450  0.00  0.00    -0.075 S 
BRANCH  21  22
ATOM     22  C   UNL     1      -6.289  11.676  -2.631  0.00  0.00    +0.209 A 
ATOM     23  N   UNL     1      -6.941  11.103  -3.618  0.00  0.00    -0.121 NA
ATOM     24  N   UNL     1      -7.597  11.985  -4.284  0.00  0.00    -0.127 NA
ATOM     25  C   UNL     1      -7.397  13.175  -3.769  0.00  0.00    +0.182 A 
ATOM     26  N   UNL     1      -6.554  13.014  -2.694  0.00  0.00    -0.224 N 
BRANCH  25  27
ATOM     27  C   UNL     1      -7.971  14.449  -4.253  0.00  0.00    +0.021 A 
ATOM     28  C   UNL     1      -9.068  14.441  -5.115  0.00  0.00    +0.012 A 
ATOM     29  C   UNL     1      -9.601  15.634  -5.559  0.00  0.00    +0.004 A 
ATOM     30  C   UNL     1      -9.044  16.836  -5.159  0.00  0.00    -0.050 A 
ATOM     31  C   UNL     1      -7.953  16.850  -4.309  0.00  0.00    +0.004 A 
ATOM     32  C   UNL     1      -7.413  15.665  -3.853  0.00  0.00    +0.012 A 
ATOM     33  C   UNL     1      -9.628  18.134  -5.652  0.00  0.00    +0.044 C 
ENDBRANCH  25  27
BRANCH  26  34
ATOM     34  N   UNL     1      -6.080  13.989  -1.863  0.00  0.00    -0.295 N 
ATOM     35  H   UNL     1      -5.261  14.431  -2.254  0.00  0.00    +0.163 HD
ATOM     36  H   UNL     1      -6.796  14.671  -1.660  0.00  0.00    +0.163 HD
ENDBRANCH  26  34
ENDBRANCH  21  22
ENDBRANCH  20  21
ENDBRANCH   2  20
TORSDOF 10
