REMARK  Name = ZINC67412943
REMARK  8 active torsions:
REMARK  status: ('A' for Active; 'I' for Inactive)
REMARK    1  A    between atoms: C_1  and  C_2
REMARK    2  A    between atoms: N_4  and  C_5
REMARK    3  A    between atoms: C_5  and  C_6
REMARK    4  A    between atoms: N_11  and  C_13
REMARK    5  A    between atoms: C_13  and  C_14
REMARK    6  A    between atoms: N_16  and  C_17
REMARK    7  A    between atoms: C_17  and  C_19
REMARK    8  A    between atoms: C_17  and  C_25
REMARK                            x       y       z     vdW  Elec       q    Type
REMARK                         _______ _______ _______ _____ _____    ______ ____
ROOT
ATOM      1  C   UNL     1      -5.368  -6.650   0.456  0.00  0.00    +0.197 C 
ATOM      2  O   UNL     1      -6.326  -5.926   0.281  0.00  0.00    -0.278 OA
ATOM      3  N   UNL     1      -5.552  -7.960   0.714  0.00  0.00    -0.310 N 
ATOM      4  H   UNL     1      -4.787  -8.552   0.783  0.00  0.00    +0.149 HD
ENDROOT
BRANCH   1   5
ATOM      5  C   UNL     1      -3.973  -6.084   0.385  0.00  0.00    +0.019 C 
BRANCH   5  10
ATOM      6  C   UNL     1      -2.768  -2.559  -0.072  0.00  0.00    -0.011 C 
ATOM      7  C   UNL     1      -3.385  -2.282  -1.447  0.00  0.00    +0.001 C 
ATOM      8  C   UNL     1      -4.761  -2.949  -1.522  0.00  0.00    -0.018 C 
ATOM      9  C   UNL     1      -4.611  -4.447  -1.245  0.00  0.00    -0.078 C 
ATOM     10  N   UNL     1      -4.042  -4.646   0.093  0.00  0.00    +0.386 N 
ATOM     11  C   UNL     1      -2.693  -4.071   0.152  0.00  0.00    -0.073 C 
ATOM     12  H   UNL     1      -4.629  -4.194   0.778  0.00  0.00    -0.081 HD
BRANCH   6  13
ATOM     13  C   UNL     1      -1.361  -1.963  -0.014  0.00  0.00    +0.105 C 
BRANCH  13  17
ATOM     14  C   UNL     1      -0.405   1.740  -0.182  0.00  0.00    +0.109 C 
ATOM     15  C   UNL     1      -0.319   0.239  -0.082  0.00  0.00    +0.210 C 
ATOM     16  O   UNL     1       0.761  -0.301   0.026  0.00  0.00    -0.276 OA
ATOM     17  N   UNL     1      -1.444  -0.504  -0.112  0.00  0.00    -0.315 N 
ATOM     18  H   UNL     1      -2.308  -0.072  -0.198  0.00  0.00    +0.149 HD
ENDBRANCH  13  17
ENDBRANCH   6  13
ENDBRANCH   5  10
ENDBRANCH   1   5
BRANCH   3  19
ATOM     19  C   UNL     1      -6.907  -8.488   0.892  0.00  0.00    +0.106 C 
BRANCH  19  20
ATOM     20  C   UNL     1      -7.492  -8.832  -0.454  0.00  0.00    -0.027 A 
ATOM     21  C   UNL     1      -6.702  -9.431  -1.418  0.00  0.00    +0.005 A 
ATOM     22  C   UNL     1      -7.239  -9.746  -2.652  0.00  0.00    +0.000 A 
ATOM     23  C   UNL     1      -8.565  -9.464  -2.922  0.00  0.00    +0.000 A 
ATOM     24  C   UNL     1      -9.355  -8.867  -1.957  0.00  0.00    +0.000 A 
ATOM     25  C   UNL     1      -8.819  -8.555  -0.721  0.00  0.00    +0.005 A 
ENDBRANCH  19  20
BRANCH  19  26
ATOM     26  C   UNL     1      -6.853  -9.746   1.761  0.00  0.00    +0.014 C 
ATOM     27  C   UNL     1      -8.277 -10.295   1.984  0.00  0.00    +0.006 C 
ATOM     28  C   UNL     1      -8.262 -10.812   3.444  0.00  0.00    +0.000 C 
ATOM     29  C   UNL     1      -7.396  -9.754   4.172  0.00  0.00    +0.000 C 
ATOM     30  C   UNL     1      -6.293  -9.402   3.152  0.00  0.00    +0.006 C 
ENDBRANCH  19  26
ENDBRANCH   3  19
TORSDOF 7
