REMARK  Name = ZINC37620031
REMARK  9 active torsions:
REMARK  status: ('A' for Active; 'I' for Inactive)
REMARK    1  A    between atoms: C_1  and  C_2
REMARK    2  A    between atoms: C_2  and  C_3
REMARK    3  A    between atoms: C_3  and  C_4
REMARK    4  A    between atoms: C_4  and  C_5
REMARK    5  A    between atoms: C_5  and  C_7
REMARK    6  A    between atoms: C_5  and  N_22
REMARK    7  A    between atoms: N_9  and  C_10
REMARK    8  A    between atoms: C_15  and  O_16
REMARK    9  A    between atoms: O_16  and  C_17
REMARK                            x       y       z     vdW  Elec       q    Type
REMARK                         _______ _______ _______ _____ _____    ______ ____
ROOT
ATOM      1  C   UNL     1       1.366  -4.024  -2.588  0.00  0.00    +0.203 C 
ATOM      2  O   UNL     1       2.310  -4.704  -2.243  0.00  0.00    -0.277 OA
ATOM      3  N   UNL     1       0.243  -4.613  -3.045  0.00  0.00    -0.284 N 
ATOM      4  H   UNL     1      -0.534  -4.074  -3.259  0.00  0.00    +0.155 HD
ENDROOT
BRANCH   3   5
ATOM      5  C   UNL     1       0.199  -6.004  -3.209  0.00  0.00    +0.078 A 
ATOM      6  C   UNL     1       0.885  -6.831  -2.331  0.00  0.00    +0.047 A 
ATOM      7  C   UNL     1       0.840  -8.203  -2.496  0.00  0.00    +0.044 A 
ATOM      8  C   UNL     1       0.112  -8.755  -3.535  0.00  0.00    +0.039 A 
ATOM      9  C   UNL     1      -0.574  -7.936  -4.414  0.00  0.00    +0.063 A 
ATOM     10  C   UNL     1      -0.538  -6.560  -4.252  0.00  0.00    +0.162 A 
ATOM     11 BR   UNL     1      -1.567  -8.695  -5.833  0.00  0.00    -0.046 Br
ATOM     12 CL   UNL     1       1.699  -9.236  -1.397  0.00  0.00    -0.083 Cl
BRANCH  10  13
ATOM     13  O   UNL     1      -1.217  -5.754  -5.112  0.00  0.00    -0.431 OA
BRANCH  13  14
ATOM     14  C   UNL     1      -0.517  -5.313  -6.277  0.00  0.00    +0.541 C 
ATOM     15  F   UNL     1       0.615  -4.585  -5.893  0.00  0.00    -0.166 F 
ATOM     16  F   UNL     1      -0.123  -6.423  -7.033  0.00  0.00    -0.166 F 
ENDBRANCH  13  14
ENDBRANCH  10  13
ENDBRANCH   3   5
BRANCH   1  17
ATOM     17  C   UNL     1       1.449  -2.522  -2.505  0.00  0.00    +0.013 C 
BRANCH  17  18
ATOM     18  N   UNL     1       2.858  -2.111  -2.451  0.00  0.00    +0.386 N 
ATOM     19  H   UNL     1       2.913  -1.105  -2.396  0.00  0.00    -0.089 HD
ATOM     20  H   UNL     1       3.296  -2.518  -1.638  0.00  0.00    -0.089 HD
ATOM     21  H   UNL     1       3.333  -2.429  -3.283  0.00  0.00    -0.089 HD
ENDBRANCH  17  18
BRANCH  17  22
ATOM     22  C   UNL     1       0.729  -2.040  -1.244  0.00  0.00    -0.007 C 
BRANCH  22  23
ATOM     23  C   UNL     1       0.704  -0.510  -1.224  0.00  0.00    -0.001 C 
BRANCH  23  25
ATOM     24  C   UNL     1      -0.041   1.501   0.058  0.00  0.00    +0.004 C 
ATOM     25  C   UNL     1      -0.016  -0.029   0.037  0.00  0.00    -0.003 C 
ENDBRANCH  23  25
ENDBRANCH  22  23
ENDBRANCH  17  22
ENDBRANCH   1  17
TORSDOF 8
