REMARK  Name = ZINC08758857
REMARK  5 active torsions:
REMARK  status: ('A' for Active; 'I' for Inactive)
REMARK    1  A    between atoms: C_4  and  C_7
REMARK    2  A    between atoms: C_7  and  C_8
REMARK    3  A    between atoms: C_7  and  N_67
REMARK    4  A    between atoms: C_26  and  C_31
REMARK    5  A    between atoms: C_36  and  O_37
REMARK                            x       y       z     vdW  Elec       q    Type
REMARK                         _______ _______ _______ _____ _____    ______ ____
ROOT
ATOM      1  C   UNL     1      -7.378  -4.092  -4.715  0.00  0.00    -0.058 C 
ATOM      2  C   UNL     1      -6.744  -3.574  -3.421  0.00  0.00    +0.089 C 
ATOM      3  N   UNL     1      -5.466  -2.918  -3.733  0.00  0.00    -0.303 N 
ATOM      4  C   UNL     1      -5.666  -1.797  -4.661  0.00  0.00    +0.089 C 
ATOM      5  C   UNL     1      -6.299  -2.314  -5.954  0.00  0.00    -0.058 C 
ATOM      6  C   UNL     1      -4.832  -2.501  -2.583  0.00  0.00    +0.218 A 
ATOM      7  N   UNL     1      -5.414  -2.728  -1.411  0.00  0.00    -0.222 NA
ATOM      8  C   UNL     1      -4.840  -2.342  -0.286  0.00  0.00    +0.127 A 
ATOM      9  C   UNL     1      -3.603  -1.689  -0.354  0.00  0.00    +0.057 A 
ATOM     10  C   UNL     1      -3.017  -1.472  -1.607  0.00  0.00    +0.057 A 
ATOM     11  N   UNL     1      -3.660  -1.888  -2.684  0.00  0.00    -0.219 NA
ATOM     12  C   UNL     1      -1.686  -0.789  -1.746  0.00  0.00    +0.065 C 
ATOM     13  C   UNL     1      -1.378   0.072  -0.523  0.00  0.00    +0.036 C 
ATOM     14  C   UNL     1      -1.485  -0.784   0.746  0.00  0.00    +0.088 C 
ATOM     15  C   UNL     1      -2.926  -1.237   0.869  0.00  0.00    +0.167 C 
ATOM     16  O   UNL     1      -3.500  -1.226   1.938  0.00  0.00    -0.292 OA
ATOM     17  N   UNL     1      -7.593  -2.951  -5.630  0.00  0.00    +0.389 N 
ATOM     18  H   UNL     1      -8.197  -2.262  -5.167  0.00  0.00    -0.080 HD
ENDROOT
BRANCH  13  19
ATOM     19  C   UNL     1       0.019   0.626  -0.638  0.00  0.00    -0.002 A 
ATOM     20  C   UNL     1       1.098  -0.232  -0.723  0.00  0.00    +0.007 A 
ATOM     21  C   UNL     1       2.379   0.277  -0.834  0.00  0.00    +0.001 A 
ATOM     22  C   UNL     1       2.584   1.644  -0.856  0.00  0.00    +0.004 A 
ATOM     23  C   UNL     1       1.508   2.506  -0.767  0.00  0.00    +0.046 A 
ATOM     24  C   UNL     1       0.221   1.998  -0.655  0.00  0.00    +0.120 A 
BRANCH  24  25
ATOM     25  O   UNL     1      -0.839   2.844  -0.568  0.00  0.00    -0.506 OA
ATOM     26  H   UNL     1      -1.221   3.085  -1.422  0.00  0.00    +0.292 HD
ENDBRANCH  24  25
ENDBRANCH  13  19
BRANCH  17  27
ATOM     27  C   UNL     1      -8.253  -3.415  -6.869  0.00  0.00    -0.007 C 
BRANCH  27  31
ATOM     28  C   UNL     1     -11.983  -5.235  -5.857  0.00  0.00    +0.000 A 
ATOM     29  C   UNL     1     -11.156  -5.827  -6.793  0.00  0.00    +0.000 A 
ATOM     30  C   UNL     1      -9.950  -5.238  -7.121  0.00  0.00    +0.002 A 
ATOM     31  C   UNL     1      -9.569  -4.057  -6.512  0.00  0.00    -0.057 A 
ATOM     32  C   UNL     1     -10.393  -3.468  -5.571  0.00  0.00    +0.002 A 
ATOM     33  C   UNL     1     -11.603  -4.054  -5.247  0.00  0.00    +0.000 A 
ENDBRANCH  27  31
BRANCH  27  34
ATOM     34  C   UNL     1      -8.500  -2.228  -7.765  0.00  0.00    -0.057 A 
ATOM     35  C   UNL     1      -8.989  -1.050  -7.233  0.00  0.00    +0.002 A 
ATOM     36  C   UNL     1      -9.210   0.040  -8.054  0.00  0.00    +0.000 A 
ATOM     37  C   UNL     1      -8.953  -0.052  -9.409  0.00  0.00    +0.000 A 
ATOM     38  C   UNL     1      -8.469  -1.233  -9.942  0.00  0.00    +0.000 A 
ATOM     39  C   UNL     1      -8.242  -2.321  -9.120  0.00  0.00    +0.002 A 
ENDBRANCH  27  34
ENDBRANCH  17  27
TORSDOF 5
