REMARK  Name = ZINC14832282
REMARK  11 active torsions:
REMARK  status: ('A' for Active; 'I' for Inactive)
REMARK    1  A    between atoms: C_1  and  C_2
REMARK    2  A    between atoms: C_2  and  C_3
REMARK    3  A    between atoms: C_3  and  C_5
REMARK    4  A    between atoms: C_3  and  C_6
REMARK    5  A    between atoms: C_9  and  O_13
REMARK    6  A    between atoms: O_13  and  C_14
REMARK    7  A    between atoms: C_14  and  C_15
REMARK    8  A    between atoms: N_17  and  N_18
REMARK    9  A    between atoms: C_19  and  C_21
REMARK   10  A    between atoms: C_21  and  O_22
REMARK   11  A    between atoms: O_22  and  C_23
REMARK                            x       y       z     vdW  Elec       q    Type
REMARK                         _______ _______ _______ _____ _____    ______ ____
ROOT
ATOM      1  C   UNL     1       4.127   8.655   0.009  0.00  0.00    +0.267 C 
ATOM      2  O   UNL     1       5.253   8.205  -0.004  0.00  0.00    -0.271 OA
ATOM      3  N   UNL     1       3.068   7.821   0.015  0.00  0.00    -0.231 N 
ATOM      4  H   UNL     1       2.168   8.181   0.025  0.00  0.00    +0.173 HD
ENDROOT
BRANCH   3   5
ATOM      5  N   UNL     1       3.268   6.434   0.005  0.00  0.00    -0.231 N 
ATOM      6  C   UNL     1       2.209   5.601   0.011  0.00  0.00    +0.267 C 
ATOM      7  O   UNL     1       1.083   6.051   0.024  0.00  0.00    -0.271 OA
ATOM      8  H   UNL     1       4.169   6.074  -0.005  0.00  0.00    +0.173 HD
BRANCH   6   9
ATOM      9  C   UNL     1       2.425   4.109   0.001  0.00  0.00    +0.326 C 
BRANCH   9  10
ATOM     10  O   UNL     1       1.159   3.445   0.009  0.00  0.00    -0.483 OA
BRANCH  10  11
ATOM     11  C   UNL     1       1.176   2.086   0.002  0.00  0.00    +0.121 A 
ATOM     12  C   UNL     1      -0.017   1.377   0.010  0.00  0.00    +0.047 A 
ATOM     13  C   UNL     1       0.002  -0.004   0.002  0.00  0.00    +0.019 A 
ATOM     14  C   UNL     1       1.209  -0.680  -0.013  0.00  0.00    +0.018 A 
ATOM     15  C   UNL     1       2.399   0.025  -0.020  0.00  0.00    +0.019 A 
ATOM     16  C   UNL     1       2.385   1.406  -0.013  0.00  0.00    +0.047 A 
ATOM     17 BR   UNL     1       1.232  -2.571  -0.022  0.00  0.00    -0.050 Br
ENDBRANCH  10  11
ENDBRANCH   9  10
ENDBRANCH   6   9
ENDBRANCH   3   5
BRANCH   1  18
ATOM     18  C   UNL     1       3.912  10.146   0.019  0.00  0.00    +0.326 C 
BRANCH  18  19
ATOM     19  O   UNL     1       5.177  10.810   0.011  0.00  0.00    -0.482 OA
BRANCH  19  23
ATOM     20  C   UNL     1       5.128  14.936   0.033  0.00  0.00    -0.043 A 
ATOM     21  C   UNL     1       3.938  14.231   0.041  0.00  0.00    +0.007 A 
ATOM     22  C   UNL     1       3.952  12.850   0.028  0.00  0.00    +0.047 A 
ATOM     23  C   UNL     1       5.161  12.169   0.018  0.00  0.00    +0.135 A 
ATOM     24  C   UNL     1       6.354  12.879   0.011  0.00  0.00    +0.060 A 
ATOM     25  C   UNL     1       6.334  14.261   0.018  0.00  0.00    +0.022 A 
ATOM     26 BR   UNL     1       8.004  11.956  -0.011  0.00  0.00    -0.047 Br
BRANCH  20  27
ATOM     27  C   UNL     1       5.109  16.443   0.042  0.00  0.00    +0.016 C 
ATOM     28  C   UNL     1       4.393  16.937   1.301  0.00  0.00    +0.012 C 
BRANCH  27  30
ATOM     29  C   UNL     1       4.458  18.477  -1.255  0.00  0.00    +0.004 C 
ATOM     30  C   UNL     1       4.370  16.951  -1.198  0.00  0.00    +0.004 C 
ENDBRANCH  27  30
ENDBRANCH  20  27
ENDBRANCH  19  23
ENDBRANCH  18  19
ENDBRANCH   1  18
TORSDOF 9
