REMARK  Name = ZINC15841663
REMARK  6 active torsions:
REMARK  status: ('A' for Active; 'I' for Inactive)
REMARK    1  A    between atoms: C_1  and  C_2
REMARK    2  A    between atoms: C_2  and  C_3
REMARK    3  A    between atoms: C_3  and  C_28
REMARK    4  A    between atoms: N_15  and  C_20
REMARK    5  A    between atoms: C_25  and  O_26
REMARK    6  A    between atoms: O_26  and  C_27
REMARK                            x       y       z     vdW  Elec       q    Type
REMARK                         _______ _______ _______ _____ _____    ______ ____
ROOT
ATOM      1  C   UNL     1       1.308  -0.748  -0.027  0.00  0.00    +0.004 C 
ATOM      2  C   UNL     1       2.611  -0.164   0.512  0.00  0.00    +0.047 C 
ATOM      3  C   UNL     1       2.729   1.288   0.132  0.00  0.00    -0.037 A 
ATOM      4  C   UNL     1       3.958   1.839  -0.162  0.00  0.00    +0.004 A 
ATOM      5  C   UNL     1       4.054   3.175  -0.507  0.00  0.00    +0.000 A 
ATOM      6  C   UNL     1       2.921   3.969  -0.560  0.00  0.00    +0.001 A 
ATOM      7  C   UNL     1       1.684   3.431  -0.268  0.00  0.00    +0.010 A 
ATOM      8  C   UNL     1       1.582   2.085   0.078  0.00  0.00    +0.002 A 
ATOM      9  C   UNL     1       0.274   1.478   0.392  0.00  0.00    +0.060 A 
ATOM     10  C   UNL     1       0.140   0.121   0.349  0.00  0.00    +0.048 A 
ATOM     11  C   UNL     1      -1.109  -0.452   0.660  0.00  0.00    +0.265 A 
ATOM     12  O   UNL     1      -1.255  -1.661   0.635  0.00  0.00    -0.267 OA
ATOM     13  N   UNL     1      -2.142   0.351   0.987  0.00  0.00    -0.225 N 
ATOM     14  C   UNL     1      -1.991   1.688   1.018  0.00  0.00    +0.334 A 
ATOM     15  O   UNL     1      -2.938   2.390   1.312  0.00  0.00    -0.246 OA
ATOM     16  N   UNL     1      -0.805   2.259   0.732  0.00  0.00    -0.306 N 
ATOM     17  H   UNL     1      -0.714   3.225   0.761  0.00  0.00    +0.170 HD
ATOM     18  C   UNL     1       1.103  -2.147   0.559  0.00  0.00    +0.016 C 
ENDROOT
BRANCH  13  19
ATOM     19  C   UNL     1      -3.388  -0.213   1.298  0.00  0.00    +0.096 A 
ATOM     20  C   UNL     1      -3.687  -0.561   2.607  0.00  0.00    +0.030 A 
ATOM     21  C   UNL     1      -4.917  -1.112   2.911  0.00  0.00    +0.002 A 
ATOM     22  C   UNL     1      -5.848  -1.328   1.912  0.00  0.00    +0.004 A 
ATOM     23  C   UNL     1      -5.556  -0.989   0.604  0.00  0.00    +0.048 A 
ATOM     24  C   UNL     1      -4.326  -0.431   0.291  0.00  0.00    +0.144 A 
BRANCH  24  25
ATOM     25  O   UNL     1      -4.037  -0.097  -0.994  0.00  0.00    -0.493 OA
ATOM     26  C   UNL     1      -5.047  -0.349  -1.973  0.00  0.00    +0.277 C 
ENDBRANCH  24  25
ENDBRANCH  13  19
BRANCH   1  28
ATOM     27  C   UNL     1       2.579  -1.732  -1.940  0.00  0.00    +0.005 C 
ATOM     28  C   UNL     1       1.392  -0.848  -1.551  0.00  0.00    +0.008 C 
ENDBRANCH   1  28
TORSDOF 3
