REMARK  Name = ZINC20532111
REMARK  8 active torsions:
REMARK  status: ('A' for Active; 'I' for Inactive)
REMARK    1  A    between atoms: C_1  and  C_2
REMARK    2  A    between atoms: C_2  and  O_3
REMARK    3  A    between atoms: O_3  and  C_4
REMARK    4  A    between atoms: C_4  and  C_6
REMARK    5  A    between atoms: C_6  and  C_7
REMARK    6  A    between atoms: C_10  and  N_13
REMARK    7  A    between atoms: C_20  and  C_23
REMARK    8  A    between atoms: C_23  and  N_24
REMARK                            x       y       z     vdW  Elec       q    Type
REMARK                         _______ _______ _______ _____ _____    ______ ____
ROOT
ATOM      1  N   UNL     1      -2.724   3.502   1.018  0.00  0.00    -0.269 N 
ATOM      2  C   UNL     1      -3.863   2.869   0.673  0.00  0.00    +0.306 C 
ATOM      3  O   UNL     1      -3.872   1.661   0.542  0.00  0.00    -0.252 OA
ATOM      4  N   UNL     1      -4.992   3.577   0.472  0.00  0.00    -0.285 N 
ATOM      5  C   UNL     1      -4.972   5.046   0.510  0.00  0.00    +0.109 C 
ATOM      6  C   UNL     1      -5.589   5.582  -0.785  0.00  0.00    +0.019 C 
ATOM      7  C   UNL     1      -6.982   4.977  -0.970  0.00  0.00    +0.005 C 
ATOM      8  C   UNL     1      -6.869   3.455  -1.082  0.00  0.00    -0.010 C 
ATOM      9  C   UNL     1      -6.266   2.895   0.204  0.00  0.00    +0.111 C 
ATOM     10  H   UNL     1      -2.734   4.583   1.219  0.00  0.00    +0.156 HD
ENDROOT
BRANCH   1  14
ATOM     11  C   UNL     1       0.838   1.361   1.321  0.00  0.00    -0.037 A 
ATOM     12  C   UNL     1       0.593   2.417   2.179  0.00  0.00    +0.006 A 
ATOM     13  C   UNL     1      -0.590   3.125   2.085  0.00  0.00    +0.023 A 
ATOM     14  C   UNL     1      -1.528   2.782   1.120  0.00  0.00    +0.035 A 
ATOM     15  C   UNL     1      -1.278   1.722   0.259  0.00  0.00    +0.023 A 
ATOM     16  C   UNL     1      -0.096   1.014   0.362  0.00  0.00    +0.006 A 
BRANCH  11  17
ATOM     17  C   UNL     1       2.126   0.587   1.430  0.00  0.00    +0.155 C 
BRANCH  17  18
ATOM     18  C   UNL     1       1.942  -0.562   2.388  0.00  0.00    +0.311 C 
ATOM     19  O   UNL     1       0.874  -0.735   2.926  0.00  0.00    -0.250 OA
BRANCH  18  20
ATOM     20  O   UNL     1       2.964  -1.394   2.643  0.00  0.00    -0.465 OA
BRANCH  20  22
ATOM     21  C   UNL     1       3.986  -3.314   3.738  0.00  0.00    +0.048 C 
ATOM     22  C   UNL     1       2.715  -2.479   3.575  0.00  0.00    +0.229 C 
ENDBRANCH  20  22
ENDBRANCH  18  20
ENDBRANCH  17  18
ENDBRANCH  11  17
ENDBRANCH   1  14
BRANCH   8  23
ATOM     23  C   UNL     1      -8.259   2.854  -1.301  0.00  0.00    -0.073 C 
BRANCH  23  24
ATOM     24  N   UNL     1      -8.137   1.407  -1.527  0.00  0.00    +0.383 N 
ATOM     25  C   UNL     1      -7.587   1.127  -2.863  0.00  0.00    -0.074 C 
ATOM     26  C   UNL     1      -7.142  -0.335  -2.908  0.00  0.00    +0.017 C 
ATOM     27  C   UNL     1      -8.254  -1.226  -2.417  0.00  0.00    -0.048 A 
ATOM     28  C   UNL     1      -8.191  -2.581  -2.704  0.00  0.00    +0.004 A 
ATOM     29  C   UNL     1      -9.185  -3.433  -2.266  0.00  0.00    +0.000 A 
ATOM     30  C   UNL     1     -10.248  -2.933  -1.536  0.00  0.00    +0.000 A 
ATOM     31  C   UNL     1     -10.312  -1.584  -1.252  0.00  0.00    +0.002 A 
ATOM     32  C   UNL     1      -9.315  -0.726  -1.693  0.00  0.00    -0.061 A 
ATOM     33  C   UNL     1      -9.431   0.739  -1.361  0.00  0.00    -0.043 C 
ATOM     34  H   UNL     1      -7.444   1.009  -0.772  0.00  0.00    -0.081 HD
ENDBRANCH  23  24
ENDBRANCH   8  23
TORSDOF 7
