REMARK  Name = ZINC23425646
REMARK  11 active torsions:
REMARK  status: ('A' for Active; 'I' for Inactive)
REMARK    1  A    between atoms: C_1  and  N_2
REMARK    2  A    between atoms: C_6  and  C_8
REMARK    3  A    between atoms: C_8  and  C_9
REMARK    4  A    between atoms: C_9  and  N_10
REMARK    5  A    between atoms: C_11  and  C_13
REMARK    6  A    between atoms: C_13  and  C_14
REMARK    7  A    between atoms: C_14  and  C_15
REMARK    8  A    between atoms: C_18  and  C_28
REMARK    9  A    between atoms: N_19  and  C_20
REMARK   10  A    between atoms: C_23  and  O_26
REMARK   11  A    between atoms: O_26  and  C_27
REMARK                            x       y       z     vdW  Elec       q    Type
REMARK                         _______ _______ _______ _____ _____    ______ ____
ROOT
ATOM      1  C   UNL     1      -6.445  -0.036  -8.146  0.00  0.00    +0.025 A 
ATOM      2  C   UNL     1      -7.712   0.411  -8.005  0.00  0.00    +0.024 A 
ATOM      3  C   UNL     1      -8.545  -0.415  -8.778  0.00  0.00    +0.028 A 
ATOM      4  C   UNL     1      -7.753  -1.351  -9.372  0.00  0.00    +0.054 A 
ATOM      5  N   UNL     1      -6.457  -1.112  -8.986  0.00  0.00    -0.313 N 
ENDROOT
BRANCH   4   6
ATOM      6  C   UNL     1      -8.207  -2.428 -10.278  0.00  0.00    -0.001 A 
ATOM      7  C   UNL     1      -7.302  -3.040 -11.147  0.00  0.00    +0.011 A 
ATOM      8  C   UNL     1      -7.731  -4.048 -11.985  0.00  0.00    +0.020 A 
ATOM      9  C   UNL     1      -9.057  -4.445 -11.974  0.00  0.00    +0.041 A 
ATOM     10  C   UNL     1      -9.960  -3.837 -11.119  0.00  0.00    +0.020 A 
ATOM     11  C   UNL     1      -9.543  -2.832 -10.271  0.00  0.00    +0.011 A 
ATOM     12 CL   UNL     1      -9.591  -5.709 -13.038  0.00  0.00    -0.084 Cl
ENDBRANCH   4   6
BRANCH   5  13
ATOM     13  C   UNL     1      -5.334  -1.852  -9.385  0.00  0.00    +0.047 A 
ATOM     14  C   UNL     1      -4.388  -1.280 -10.226  0.00  0.00    +0.030 A 
ATOM     15  C   UNL     1      -3.280  -2.007 -10.614  0.00  0.00    +0.047 A 
ATOM     16  C   UNL     1      -3.117  -3.312 -10.172  0.00  0.00    +0.120 A 
ATOM     17  C   UNL     1      -4.064  -3.886  -9.336  0.00  0.00    +0.047 A 
ATOM     18  C   UNL     1      -5.170  -3.158  -8.943  0.00  0.00    +0.030 A 
BRANCH  16  19
ATOM     19  O   UNL     1      -2.029  -4.029 -10.559  0.00  0.00    -0.495 OA
ATOM     20  C   UNL     1      -1.094  -3.376 -11.420  0.00  0.00    +0.277 C 
ENDBRANCH  16  19
ENDBRANCH   5  13
BRANCH   1  21
ATOM     21  C   UNL     1      -5.224   0.557  -7.492  0.00  0.00    +0.063 C 
BRANCH  21  22
ATOM     22  C   UNL     1      -5.064  -0.027  -6.086  0.00  0.00    +0.102 C 
BRANCH  22  24
ATOM     23  N   UNL     1      -3.502   0.197  -4.181  0.00  0.00    -0.315 N 
ATOM     24  C   UNL     1      -3.843   0.567  -5.432  0.00  0.00    +0.213 C 
ATOM     25  O   UNL     1      -3.167   1.376  -6.030  0.00  0.00    -0.276 OA
ATOM     26  H   UNL     1      -4.115  -0.537  -3.638  0.00  0.00    +0.149 HD
BRANCH  23  27
ATOM     27  C   UNL     1      -2.315   0.774  -3.545  0.00  0.00    +0.102 C 
BRANCH  27  28
ATOM     28  C   UNL     1      -2.155   0.190  -2.140  0.00  0.00    +0.003 C 
BRANCH  28  34
ATOM     29  C   UNL     1      -1.692  -0.859   0.109  0.00  0.00    -0.096 C 
ATOM     30  N   UNL     1      -0.777   0.271  -0.104  0.00  0.00    +0.380 N 
ATOM     31  C   UNL     1      -0.977   1.315   0.922  0.00  0.00    -0.079 C 
ATOM     32  C   UNL     1      -0.699   2.652   0.190  0.00  0.00    -0.020 C 
ATOM     33  C   UNL     1      -1.301   2.368  -1.214  0.00  0.00    -0.017 C 
ATOM     34  C   UNL     1      -0.983   0.874  -1.434  0.00  0.00    -0.068 C 
ATOM     35  H   UNL     1       0.245  -0.130  -0.035  0.00  0.00    -0.082 HD
ENDBRANCH  28  34
ENDBRANCH  27  28
ENDBRANCH  23  27
ENDBRANCH  22  24
ENDBRANCH  21  22
ENDBRANCH   1  21
TORSDOF 9
