REMARK  Name = ZINC32600610
REMARK  6 active torsions:
REMARK  status: ('A' for Active; 'I' for Inactive)
REMARK    1  A    between atoms: C_4  and  C_7
REMARK    2  A    between atoms: C_10  and  C_30
REMARK    3  A    between atoms: N_12  and  C_13
REMARK    4  A    between atoms: C_16  and  C_19
REMARK    5  A    between atoms: N_20  and  N_21
REMARK    6  A    between atoms: C_22  and  C_24
REMARK                            x       y       z     vdW  Elec       q    Type
REMARK                         _______ _______ _______ _____ _____    ______ ____
ROOT
ATOM      1  C   UNL     1       2.370  -3.192  -0.136  0.00  0.00    +0.052 A 
ATOM      2  C   UNL     1       3.553  -2.487   0.066  0.00  0.00    +0.025 A 
ATOM      3  C   UNL     1       3.543  -1.110   0.074  0.00  0.00    +0.011 A 
ATOM      4  C   UNL     1       2.342  -0.420  -0.121  0.00  0.00    -0.005 A 
ATOM      5  C   UNL     1       1.155  -1.132  -0.318  0.00  0.00    +0.011 A 
ATOM      6  C   UNL     1       1.174  -2.509  -0.331  0.00  0.00    +0.025 A 
ENDROOT
BRANCH   1  11
ATOM      7  C   UNL     1       1.212  -5.452  -0.340  0.00  0.00    +0.134 C 
ATOM      8  C   UNL     1       1.797  -6.876  -0.258  0.00  0.00    +0.087 C 
ATOM      9  C   UNL     1       3.271  -6.650  -0.011  0.00  0.00    +0.069 C 
ATOM     10  N   UNL     1       3.511  -5.385   0.038  0.00  0.00    -0.183 NA
ATOM     11  N   UNL     1       2.385  -4.585  -0.144  0.00  0.00    -0.216 N 
BRANCH   7  15
ATOM     12  C   UNL     1      -0.537  -4.771  -4.177  0.00  0.00    +0.000 A 
ATOM     13  C   UNL     1      -1.346  -4.999  -3.079  0.00  0.00    +0.000 A 
ATOM     14  C   UNL     1      -0.780  -5.220  -1.838  0.00  0.00    +0.005 A 
ATOM     15  C   UNL     1       0.595  -5.212  -1.694  0.00  0.00    -0.025 A 
ATOM     16  C   UNL     1       1.403  -4.978  -2.790  0.00  0.00    +0.005 A 
ATOM     17  C   UNL     1       0.838  -4.762  -4.033  0.00  0.00    +0.000 A 
ENDBRANCH   7  15
BRANCH   9  18
ATOM     18  C   UNL     1       4.279  -7.714   0.150  0.00  0.00    -0.002 A 
ATOM     19  C   UNL     1       3.899  -9.057   0.084  0.00  0.00    +0.010 A 
ATOM     20  C   UNL     1       4.849 -10.047   0.231  0.00  0.00    +0.001 A 
ATOM     21  C   UNL     1       6.173  -9.712   0.454  0.00  0.00    +0.000 A 
ATOM     22  C   UNL     1       6.556  -8.385   0.526  0.00  0.00    +0.001 A 
ATOM     23  C   UNL     1       5.618  -7.384   0.376  0.00  0.00    +0.010 A 
ENDBRANCH   9  18
ENDBRANCH   1  11
BRANCH   4  24
ATOM     24  C   UNL     1       2.327   1.053  -0.113  0.00  0.00    +0.138 C 
ATOM     25  N   UNL     1       3.441   1.714  -0.193  0.00  0.00    -0.187 NA
BRANCH  25  26
ATOM     26  N   UNL     1       4.583   1.101  -0.727  0.00  0.00    -0.203 N 
ATOM     27  C   UNL     1       5.768   1.742  -0.698  0.00  0.00    +0.265 C 
ATOM     28  O   UNL     1       5.846   2.855  -0.214  0.00  0.00    -0.268 OA
ATOM     29  H   UNL     1       4.511   0.096  -1.169  0.00  0.00    +0.178 HD
BRANCH  27  30
ATOM     30  C   UNL     1       6.973   1.093  -1.255  0.00  0.00    +0.056 A 
ATOM     31  C   UNL     1       8.209   1.751  -1.237  0.00  0.00    +0.016 A 
ATOM     32  C   UNL     1       9.307   1.097  -1.767  0.00  0.00    +0.020 A 
ATOM     33  C   UNL     1       9.149  -0.169  -2.303  0.00  0.00    +0.111 A 
ATOM     34  N   UNL     1       7.970  -0.762  -2.311  0.00  0.00    -0.263 NA
ATOM     35  C   UNL     1       6.897  -0.184  -1.814  0.00  0.00    +0.123 A 
ENDBRANCH  27  30
ENDBRANCH  25  26
ENDBRANCH   4  24
TORSDOF 6
