REMARK  Name = ZINC12636489
REMARK  6 active torsions:
REMARK  status: ('A' for Active; 'I' for Inactive)
REMARK    1  A    between atoms: C_1  and  O_2
REMARK    2  A    between atoms: O_2  and  C_3
REMARK    3  A    between atoms: C_6  and  C_9
REMARK    4  A    between atoms: C_14  and  N_18
REMARK    5  A    between atoms: N_21  and  C_24
REMARK    6  A    between atoms: C_29  and  O_30
REMARK                            x       y       z     vdW  Elec       q    Type
REMARK                         _______ _______ _______ _____ _____    ______ ____
ROOT
ATOM      1  C   UNL     1      -5.501  -2.906  -4.112  0.00  0.00    +0.002 A 
ATOM      2  C   UNL     1      -6.677  -2.588  -4.702  0.00  0.00    +0.056 A 
ATOM      3  S   UNL     1      -7.849  -3.665  -3.901  0.00  0.00    -0.076 S 
ATOM      4  C   UNL     1      -6.747  -4.512  -2.801  0.00  0.00    +0.114 A 
ATOM      5  C   UNL     1      -5.489  -3.942  -3.084  0.00  0.00    +0.055 A 
ATOM      6  C   UNL     1      -4.402  -4.455  -2.328  0.00  0.00    +0.133 A 
ATOM      7  N   UNL     1      -4.628  -5.408  -1.437  0.00  0.00    -0.220 NA
ATOM      8  C   UNL     1      -5.835  -5.900  -1.226  0.00  0.00    +0.224 A 
ATOM      9  N   UNL     1      -6.884  -5.457  -1.891  0.00  0.00    -0.228 NA
ENDROOT
BRANCH   1  13
ATOM     10  C   UNL     1      -1.907  -0.933  -5.244  0.00  0.00    +0.120 A 
ATOM     11  C   UNL     1      -2.557  -1.762  -6.148  0.00  0.00    +0.046 A 
ATOM     12  C   UNL     1      -3.723  -2.403  -5.785  0.00  0.00    +0.012 A 
ATOM     13  C   UNL     1      -4.248  -2.219  -4.506  0.00  0.00    -0.016 A 
ATOM     14  C   UNL     1      -3.593  -1.386  -3.600  0.00  0.00    +0.012 A 
ATOM     15  C   UNL     1      -2.425  -0.752  -3.968  0.00  0.00    +0.046 A 
BRANCH  10  17
ATOM     16  C   UNL     1      -0.282  -0.534  -6.932  0.00  0.00    +0.277 C 
ATOM     17  O   UNL     1      -0.758  -0.303  -5.605  0.00  0.00    -0.495 OA
ENDBRANCH  10  17
ENDBRANCH   1  13
BRANCH   6  18
ATOM     18  N   UNL     1      -3.122  -3.966  -2.520  0.00  0.00    -0.312 N 
ATOM     19  C   UNL     1      -2.538  -3.007  -1.573  0.00  0.00    +0.125 C 
ATOM     20  C   UNL     1      -1.205  -3.571  -1.064  0.00  0.00    +0.124 C 
ATOM     21  N   UNL     1      -0.406  -4.001  -2.220  0.00  0.00    -0.324 N 
ATOM     22  C   UNL     1      -0.990  -4.960  -3.168  0.00  0.00    +0.124 C 
ATOM     23  C   UNL     1      -2.321  -4.401  -3.673  0.00  0.00    +0.125 C 
BRANCH  21  24
ATOM     24  C   UNL     1       0.889  -3.506  -2.414  0.00  0.00    +0.072 A 
ATOM     25  C   UNL     1       1.987  -4.259  -2.027  0.00  0.00    +0.027 A 
ATOM     26  C   UNL     1       3.265  -3.768  -2.221  0.00  0.00    +0.002 A 
ATOM     27  C   UNL     1       3.451  -2.527  -2.800  0.00  0.00    +0.004 A 
ATOM     28  C   UNL     1       2.361  -1.770  -3.189  0.00  0.00    +0.047 A 
ATOM     29  C   UNL     1       1.078  -2.257  -3.003  0.00  0.00    +0.138 A 
BRANCH  29  30
ATOM     30  O   UNL     1       0.005  -1.516  -3.390  0.00  0.00    -0.505 OA
ATOM     31  H   UNL     1      -0.362  -0.961  -2.689  0.00  0.00    +0.292 HD
ENDBRANCH  29  30
ENDBRANCH  21  24
ENDBRANCH   6  18
TORSDOF 5
