REMARK  Name = ZINC01359162
REMARK  6 active torsions:
REMARK  status: ('A' for Active; 'I' for Inactive)
REMARK    1  A    between atoms: C_1  and  C_2
REMARK    2  A    between atoms: C_5  and  N_8
REMARK    3  A    between atoms: C_15  and  C_17
REMARK    4  A    between atoms: N_19  and  C_20
REMARK    5  A    between atoms: C_20  and  C_21
REMARK    6  A    between atoms: C_21  and  C_22
REMARK                            x       y       z     vdW  Elec       q    Type
REMARK                         _______ _______ _______ _____ _____    ______ ____
ROOT
ATOM      1  N   UNL     1       0.058  -4.170  -0.021  0.00  0.00    -0.269 N 
ATOM      2  C   UNL     1       0.174  -4.849   1.138  0.00  0.00    +0.307 C 
ATOM      3  O   UNL     1       0.172  -4.250   2.196  0.00  0.00    -0.252 OA
ATOM      4  N   UNL     1       0.294  -6.191   1.123  0.00  0.00    -0.274 N 
ATOM      5  C   UNL     1       0.318  -7.038  -0.083  0.00  0.00    +0.110 C 
ATOM      6  C   UNL     1       1.067  -8.323   0.350  0.00  0.00    +0.021 C 
ATOM      7  C   UNL     1       0.558  -8.505   1.804  0.00  0.00    +0.033 C 
ATOM      8  C   UNL     1       0.428  -7.052   2.307  0.00  0.00    +0.163 C 
ATOM      9  H   UNL     1      -0.018  -4.651  -0.860  0.00  0.00    +0.156 HD
ENDROOT
BRANCH   1  14
ATOM     10  C   UNL     1       0.012   1.503   0.007  0.00  0.00    +0.044 C 
ATOM     11  C   UNL     1       0.024  -0.004  -0.001  0.00  0.00    -0.050 A 
ATOM     12  C   UNL     1       0.779  -0.692   0.931  0.00  0.00    +0.005 A 
ATOM     13  C   UNL     1       0.792  -2.073   0.927  0.00  0.00    +0.023 A 
ATOM     14  C   UNL     1       0.046  -2.771  -0.014  0.00  0.00    +0.035 A 
ATOM     15  C   UNL     1      -0.711  -2.076  -0.948  0.00  0.00    +0.023 A 
ATOM     16  C   UNL     1      -0.724  -0.695  -0.935  0.00  0.00    +0.005 A 
ENDBRANCH   1  14
BRANCH   8  17
ATOM     17  C   UNL     1      -0.796  -6.922   3.177  0.00  0.00    +0.234 C 
ATOM     18  O   UNL     1      -1.822  -6.469   2.716  0.00  0.00    -0.274 OA
ATOM     19  N   UNL     1      -0.750  -7.309   4.467  0.00  0.00    -0.313 N 
ATOM     20  H   UNL     1       0.071  -7.671   4.836  0.00  0.00    +0.149 HD
BRANCH  19  21
ATOM     21  C   UNL     1      -1.940  -7.182   5.313  0.00  0.00    +0.108 C 
BRANCH  21  22
ATOM     22  C   UNL     1      -1.621  -7.688   6.721  0.00  0.00    +0.049 C 
BRANCH  22  23
ATOM     23  C   UNL     1      -2.845  -7.557   7.591  0.00  0.00    -0.072 C 
ATOM     24  C   UNL     1      -3.611  -8.592   7.720  0.00  0.00    -0.028 C 
ATOM     25  C   UNL     1      -4.866  -8.612   8.541  0.00  0.00    +0.027 C 
ATOM     26  C   UNL     1      -4.880  -7.429   9.512  0.00  0.00    +0.004 C 
ATOM     27  C   UNL     1      -4.552  -6.153   8.726  0.00  0.00    +0.005 C 
ATOM     28  C   UNL     1      -3.096  -6.237   8.258  0.00  0.00    +0.030 C 
ENDBRANCH  22  23
ENDBRANCH  21  22
ENDBRANCH  19  21
ENDBRANCH   8  17
TORSDOF 5
