REMARK  Name = ZINC09048147
REMARK  4 active torsions:
REMARK  status: ('A' for Active; 'I' for Inactive)
REMARK    1  A    between atoms: C_9  and  C_12
REMARK    2  A    between atoms: N_14  and  C_15
REMARK    3  A    between atoms: C_15  and  C_17
REMARK    4  A    between atoms: C_15  and  C_24
REMARK                            x       y       z     vdW  Elec       q    Type
REMARK                         _______ _______ _______ _____ _____    ______ ____
ROOT
ATOM      1  C   UNL     1      -0.739   1.933  -1.213  0.00  0.00    +0.258 C 
ATOM      2  O   UNL     1      -1.114   1.152  -2.062  0.00  0.00    -0.272 OA
ATOM      3  N   UNL     1      -0.966   3.252  -1.364  0.00  0.00    -0.301 N 
ATOM      4  H   UNL     1      -0.666   3.877  -0.685  0.00  0.00    +0.150 HD
ENDROOT
BRANCH   1  13
ATOM      5  C   UNL     1       2.593  -1.874   2.621  0.00  0.00    +0.004 A 
ATOM      6  C   UNL     1       1.551  -2.579   2.049  0.00  0.00    +0.004 A 
ATOM      7  C   UNL     1       0.686  -1.951   1.174  0.00  0.00    +0.049 A 
ATOM      8  C   UNL     1       0.861  -0.609   0.868  0.00  0.00    +0.163 A 
ATOM      9  C   UNL     1       1.906   0.101   1.445  0.00  0.00    +0.162 A 
ATOM     10  C   UNL     1       2.772  -0.536   2.322  0.00  0.00    +0.049 A 
ATOM     11  O   UNL     1       2.091   1.420   1.165  0.00  0.00    -0.484 OA
ATOM     12  C   UNL     1       1.433   1.928  -0.001  0.00  0.00    +0.283 C 
ATOM     13  C   UNL     1      -0.017   1.427   0.010  0.00  0.00    +0.296 C 
ATOM     14  O   UNL     1       0.002  -0.004   0.002  0.00  0.00    -0.473 OA
ENDBRANCH   1  13
BRANCH   3  15
ATOM     15  C   UNL     1      -1.668   3.744  -2.553  0.00  0.00    +0.140 C 
BRANCH  15  16
ATOM     16  C   UNL     1      -2.329   5.061  -2.238  0.00  0.00    -0.022 A 
ATOM     17  C   UNL     1      -1.674   5.992  -1.453  0.00  0.00    +0.008 A 
ATOM     18  C   UNL     1      -2.277   7.202  -1.167  0.00  0.00    +0.038 A 
ATOM     19  C   UNL     1      -3.542   7.478  -1.659  0.00  0.00    +0.123 A 
ATOM     20  C   UNL     1      -4.198   6.542  -2.441  0.00  0.00    +0.038 A 
ATOM     21  C   UNL     1      -3.591   5.335  -2.729  0.00  0.00    +0.008 A 
ATOM     22  F   UNL     1      -4.134   8.659  -1.377  0.00  0.00    -0.205 F 
ENDBRANCH  15  16
BRANCH  15  23
ATOM     23  C   UNL     1      -0.681   3.933  -3.676  0.00  0.00    +0.014 A 
ATOM     24  C   UNL     1      -0.822   3.648  -4.994  0.00  0.00    +0.013 A 
ATOM     25  C   UNL     1       0.228   3.912  -5.853  0.00  0.00    +0.008 A 
ATOM     26  C   UNL     1       1.372   4.437  -5.351  0.00  0.00    +0.045 A 
ATOM     27  S   UNL     1       0.981   4.582  -3.615  0.00  0.00    -0.099 S 
ENDBRANCH  15  23
ENDBRANCH   3  15
TORSDOF 4
