REMARK  Name = ZINC39534345
REMARK  8 active torsions:
REMARK  status: ('A' for Active; 'I' for Inactive)
REMARK    1  A    between atoms: C_4  and  O_7
REMARK    2  A    between atoms: O_7  and  S_8
REMARK    3  A    between atoms: S_8  and  C_11
REMARK    4  A    between atoms: C_14  and  C_17
REMARK    5  A    between atoms: C_17  and  C_19
REMARK    6  A    between atoms: C_17  and  N_22
REMARK    7  A    between atoms: C_19  and  N_20
REMARK    8  A    between atoms: N_20  and  O_21
REMARK                            x       y       z     vdW  Elec       q    Type
REMARK                         _______ _______ _______ _____ _____    ______ ____
ROOT
ATOM      1  C   UNL     1       3.158  -2.166   2.211  0.00  0.00    +0.128 A 
ATOM      2  C   UNL     1       1.831  -1.985   2.551  0.00  0.00    +0.031 A 
ATOM      3  C   UNL     1       1.081  -3.054   3.003  0.00  0.00    +0.007 A 
ATOM      4  C   UNL     1       1.658  -4.306   3.114  0.00  0.00    -0.029 A 
ATOM      5  C   UNL     1       2.985  -4.487   2.772  0.00  0.00    +0.007 A 
ATOM      6  C   UNL     1       3.734  -3.418   2.316  0.00  0.00    +0.031 A 
ENDROOT
BRANCH   1   7
ATOM      7  S   UNL     1       4.114  -0.802   1.635  0.00  0.00    +0.151 S 
ATOM      8  O   UNL     1       5.474  -1.121   1.895  0.00  0.00    -0.131 OA
ATOM      9  O   UNL     1       3.496   0.371   2.145  0.00  0.00    -0.131 OA
BRANCH   7  10
ATOM     10  O   UNL     1       3.961  -0.752   0.122  0.00  0.00    -0.342 OA
BRANCH  10  14
ATOM     11  C   UNL     1       0.316   0.704  -1.149  0.00  0.00    +0.000 A 
ATOM     12  C   UNL     1       1.373   1.572  -0.944  0.00  0.00    +0.004 A 
ATOM     13  C   UNL     1       2.594   1.087  -0.519  0.00  0.00    +0.048 A 
ATOM     14  C   UNL     1       2.760  -0.272  -0.296  0.00  0.00    +0.157 A 
ATOM     15  C   UNL     1       1.698  -1.141  -0.502  0.00  0.00    +0.048 A 
ATOM     16  C   UNL     1       0.479  -0.651  -0.928  0.00  0.00    +0.004 A 
ENDBRANCH  10  14
ENDBRANCH   7  10
ENDBRANCH   1   7
BRANCH   4  17
ATOM     17  C   UNL     1       0.841  -5.472   3.607  0.00  0.00    +0.103 C 
BRANCH  17  18
ATOM     18  N   UNL     1       1.739  -6.535   4.078  0.00  0.00    -0.290 NA
ATOM     19  C   UNL     1       2.180  -7.384   2.963  0.00  0.00    +0.100 C 
ATOM     20  C   UNL     1       3.173  -8.427   3.481  0.00  0.00    +0.097 C 
ATOM     21  N   UNL     1       2.532  -9.231   4.530  0.00  0.00    -0.299 NA
ATOM     22  C   UNL     1       2.091  -8.382   5.646  0.00  0.00    +0.161 C 
ATOM     23  C   UNL     1       1.097  -7.339   5.127  0.00  0.00    +0.120 C 
ATOM     24 CL   UNL     1       1.293  -9.402   6.900  0.00  0.00    -0.104 Cl
ATOM     25  H   UNL     1       1.762  -9.766   4.157  0.00  0.00    +0.123 HD
ENDBRANCH  17  18
BRANCH  17  26
ATOM     26  C   UNL     1      -0.027  -6.006   2.465  0.00  0.00    +0.134 C 
BRANCH  26  27
ATOM     27  N   UNL     1      -0.827  -7.139   2.947  0.00  0.00    -0.202 NA
ATOM     28  H   UNL     1      -0.235  -7.908   3.224  0.00  0.00    +0.154 HD
BRANCH  27  29
ATOM     29  O   UNL     1      -1.797  -7.563   1.938  0.00  0.00    -0.315 OA
ATOM     30  H   UNL     1      -2.349  -8.309   2.211  0.00  0.00    +0.236 HD
ENDBRANCH  27  29
ENDBRANCH  26  27
ENDBRANCH  17  26
ENDBRANCH   4  17
TORSDOF 8
