REMARK  Name = ZINC18173327
REMARK  5 active torsions:
REMARK  status: ('A' for Active; 'I' for Inactive)
REMARK    1  A    between atoms: C_1  and  C_2
REMARK    2  A    between atoms: C_2  and  C_3
REMARK    3  A    between atoms: C_3  and  N_4
REMARK    4  A    between atoms: N_12  and  N_13
REMARK    5  A    between atoms: C_14  and  C_16
REMARK                            x       y       z     vdW  Elec       q    Type
REMARK                         _______ _______ _______ _____ _____    ______ ____
ROOT
ATOM      1  N   UNL     1       0.700  -1.969  -1.181  0.00  0.00    -0.266 N 
ATOM      2  C   UNL     1       1.829  -2.723  -0.878  0.00  0.00    +0.046 A 
ATOM      3  C   UNL     1       3.080  -2.359  -0.391  0.00  0.00    +0.024 A 
ATOM      4  C   UNL     1       4.045  -3.321  -0.173  0.00  0.00    +0.002 A 
ATOM      5  C   UNL     1       3.782  -4.656  -0.433  0.00  0.00    +0.001 A 
ATOM      6  C   UNL     1       2.546  -5.036  -0.916  0.00  0.00    +0.012 A 
ATOM      7  C   UNL     1       1.567  -4.074  -1.140  0.00  0.00    +0.028 A 
ATOM      8  C   UNL     1       0.174  -4.141  -1.639  0.00  0.00    +0.153 C 
ATOM      9  N   UNL     1      -0.492  -5.208  -2.009  0.00  0.00    -0.174 NA
ATOM     10  C   UNL     1      -0.303  -2.743  -1.627  0.00  0.00    +0.271 C 
ATOM     11  O   UNL     1      -1.409  -2.361  -1.962  0.00  0.00    -0.268 OA
ENDROOT
BRANCH   9  12
ATOM     12  N   UNL     1       0.068  -6.480  -1.827  0.00  0.00    -0.202 N 
ATOM     13  C   UNL     1      -0.559  -7.568  -2.316  0.00  0.00    +0.263 C 
ATOM     14  O   UNL     1      -1.610  -7.446  -2.914  0.00  0.00    -0.268 OA
ATOM     15  H   UNL     1       0.907  -6.577  -1.350  0.00  0.00    +0.178 HD
BRANCH  13  16
ATOM     16  C   UNL     1       0.030  -8.908  -2.125  0.00  0.00    +0.038 A 
ATOM     17  C   UNL     1       1.235  -9.052  -1.433  0.00  0.00    +0.014 A 
ATOM     18  C   UNL     1       1.780 -10.306  -1.258  0.00  0.00    +0.021 A 
ATOM     19  C   UNL     1       1.136 -11.422  -1.766  0.00  0.00    +0.041 A 
ATOM     20  C   UNL     1      -0.059 -11.286  -2.454  0.00  0.00    +0.021 A 
ATOM     21  C   UNL     1      -0.617 -10.038  -2.631  0.00  0.00    +0.014 A 
ATOM     22 CL   UNL     1       1.830 -12.998  -1.542  0.00  0.00    -0.084 Cl
ENDBRANCH  13  16
ENDBRANCH   9  12
BRANCH   1  23
ATOM     23  C   UNL     1       0.615  -0.514  -1.028  0.00  0.00    +0.114 C 
BRANCH  23  25
ATOM     24  C   UNL     1       0.025   1.341   0.538  0.00  0.00    +0.005 C 
ATOM     25  C   UNL     1       0.115  -0.178   0.378  0.00  0.00    +0.016 C 
ENDBRANCH  23  25
ENDBRANCH   1  23
TORSDOF 4
