REMARK  Name = ZINC12497992
REMARK  6 active torsions:
REMARK  status: ('A' for Active; 'I' for Inactive)
REMARK    1  A    between atoms: C_1  and  O_2
REMARK    2  A    between atoms: O_2  and  C_3
REMARK    3  A    between atoms: C_3  and  C_5
REMARK    4  A    between atoms: C_5  and  C_32
REMARK    5  A    between atoms: C_10  and  C_12
REMARK    6  A    between atoms: N_19  and  C_22
REMARK                            x       y       z     vdW  Elec       q    Type
REMARK                         _______ _______ _______ _____ _____    ______ ____
ROOT
ATOM      1  C   UNL     1      -1.121  -7.526   0.692  0.00  0.00    +0.070 C 
ATOM      2  C   UNL     1      -0.795  -6.322  -0.193  0.00  0.00    +0.090 C 
ATOM      3  C   UNL     1       0.762  -6.284   0.072  0.00  0.00    +0.078 C 
ATOM      4  C   UNL     1       1.131  -7.689  -0.165  0.00  0.00    -0.019 C 
ATOM      5  C   UNL     1       1.100  -4.950  -0.358  0.00  0.00    +0.229 C 
ATOM      6  O   UNL     1       2.118  -4.585  -0.906  0.00  0.00    -0.275 OA
ATOM      7  N   UNL     1       0.014  -4.185  -0.010  0.00  0.00    -0.210 N 
ATOM      8  C   UNL     1      -1.073  -4.936   0.335  0.00  0.00    +0.229 C 
ATOM      9  O   UNL     1      -2.057  -4.565   0.939  0.00  0.00    -0.275 OA
ATOM     10  N   UNL     1       0.063  -8.416   0.582  0.00  0.00    +0.398 N 
ATOM     11  H   UNL     1      -0.193  -9.272   0.075  0.00  0.00    -0.083 HD
ATOM     12  H   UNL     1       0.401  -8.662   1.520  0.00  0.00    -0.083 HD
ENDROOT
BRANCH   7  13
ATOM     13  C   UNL     1       0.023  -2.782  -0.004  0.00  0.00    +0.048 A 
ATOM     14  C   UNL     1      -1.119  -2.082   0.362  0.00  0.00    +0.028 A 
ATOM     15  C   UNL     1      -1.112  -0.701   0.368  0.00  0.00    +0.051 A 
ATOM     16  C   UNL     1       0.035  -0.009   0.008  0.00  0.00    +0.162 A 
ATOM     17  C   UNL     1       1.181  -0.707  -0.357  0.00  0.00    +0.164 A 
ATOM     18  C   UNL     1       1.172  -2.093  -0.363  0.00  0.00    +0.073 A 
ATOM     19  O   UNL     1       2.317  -0.045  -0.709  0.00  0.00    -0.485 OA
ATOM     20  C   UNL     1       2.176   1.338  -1.053  0.00  0.00    +0.270 C 
ATOM     21  C   UNL     1       1.295   2.009   0.010  0.00  0.00    +0.270 C 
ATOM     22  O   UNL     1       0.023   1.353   0.016  0.00  0.00    -0.485 OA
ENDBRANCH   7  13
BRANCH   1  23
ATOM     23  C   UNL     1      -1.316  -7.087   2.120  0.00  0.00    -0.047 A 
ATOM     24  C   UNL     1      -2.550  -6.625   2.539  0.00  0.00    +0.003 A 
ATOM     25  C   UNL     1      -2.730  -6.226   3.850  0.00  0.00    +0.000 A 
ATOM     26  C   UNL     1      -1.674  -6.279   4.740  0.00  0.00    +0.000 A 
ATOM     27  C   UNL     1      -0.439  -6.737   4.321  0.00  0.00    +0.000 A 
ATOM     28  C   UNL     1      -0.260  -7.140   3.010  0.00  0.00    +0.003 A 
ENDBRANCH   1  23
BRANCH   4  29
ATOM     29  C   UNL     1       1.078  -8.018  -1.635  0.00  0.00    -0.023 A 
ATOM     30  C   UNL     1       2.093  -8.093  -2.530  0.00  0.00    +0.009 A 
ATOM     31  C   UNL     1       1.807  -8.420  -3.842  0.00  0.00    +0.008 A 
ATOM     32  C   UNL     1       0.518  -8.645  -4.197  0.00  0.00    +0.045 A 
ATOM     33  S   UNL     1      -0.339  -8.403  -2.650  0.00  0.00    -0.103 S 
ENDBRANCH   4  29
BRANCH   1  34
ATOM     34  C   UNL     1      -2.356  -8.226   0.187  0.00  0.00    +0.301 C 
ATOM     35  O   UNL     1      -3.174  -7.615  -0.459  0.00  0.00    -0.252 OA
BRANCH  34  37
ATOM     36  C   UNL     1      -3.760 -10.135  -0.062  0.00  0.00    +0.280 C 
ATOM     37  O   UNL     1      -2.548  -9.527   0.456  0.00  0.00    -0.469 OA
ENDBRANCH  34  37
ENDBRANCH   1  34
TORSDOF 5
