REMARK  Name = ZINC35638645
REMARK  9 active torsions:
REMARK  status: ('A' for Active; 'I' for Inactive)
REMARK    1  A    between atoms: C_1  and  C_2
REMARK    2  A    between atoms: C_2  and  O_3
REMARK    3  A    between atoms: O_3  and  C_4
REMARK    4  A    between atoms: C_4  and  C_6
REMARK    5  A    between atoms: C_12  and  C_14
REMARK    6  A    between atoms: C_20  and  C_22
REMARK    7  A    between atoms: C_22  and  C_23
REMARK    8  A    between atoms: C_22  and  C_24
REMARK    9  A    between atoms: C_28  and  C_31
REMARK                            x       y       z     vdW  Elec       q    Type
REMARK                         _______ _______ _______ _____ _____    ______ ____
ROOT
ATOM      1  C   UNL     1       0.618  -4.907  -5.971  0.00  0.00    +0.190 C 
ATOM      2  C   UNL     1       2.127  -4.617  -5.777  0.00  0.00    +0.194 C 
ATOM      3  O   UNL     1       2.656  -4.827  -7.107  0.00  0.00    -0.354 OA
ATOM      4  C   UNL     1       1.921  -5.940  -7.642  0.00  0.00    +0.139 C 
ATOM      5  N   UNL     1       0.617  -6.010  -6.957  0.00  0.00    -0.259 N 
ATOM      6  C   UNL     1      -0.374  -6.896  -7.182  0.00  0.00    +0.221 C 
ATOM      7  O   UNL     1      -0.285  -7.688  -8.096  0.00  0.00    -0.275 OA
ATOM      8  C   UNL     1       1.706  -5.737  -9.142  0.00  0.00    +0.055 C 
ATOM      9  C   UNL     1       3.063  -5.659  -9.846  0.00  0.00    +0.005 C 
ATOM     10  C   UNL     1       3.836  -6.957  -9.606  0.00  0.00    +0.003 C 
ATOM     11  C   UNL     1       4.055  -7.152  -8.104  0.00  0.00    -0.010 C 
ATOM     12  C   UNL     1       2.700  -7.232  -7.398  0.00  0.00    +0.058 C 
ATOM     13  C   UNL     1       4.832  -8.448  -7.867  0.00  0.00    +0.007 C 
ENDROOT
BRANCH   1  20
ATOM     14  C   UNL     1      -1.196  -0.700  -3.939  0.00  0.00    +0.101 C 
ATOM     15  C   UNL     1      -1.883  -0.916  -5.290  0.00  0.00    +0.033 C 
ATOM     16  C   UNL     1      -0.845  -1.377  -6.317  0.00  0.00    +0.108 C 
ATOM     17  N   UNL     1      -0.156  -2.564  -5.794  0.00  0.00    -0.300 N 
ATOM     18  C   UNL     1       0.461  -2.494  -4.463  0.00  0.00    +0.108 C 
ATOM     19  C   UNL     1      -0.591  -2.020  -3.456  0.00  0.00    +0.033 C 
ATOM     20  C   UNL     1      -0.092  -3.697  -6.521  0.00  0.00    +0.238 C 
ATOM     21  O   UNL     1      -0.606  -3.743  -7.619  0.00  0.00    -0.273 OA
BRANCH  14  22
ATOM     22  C   UNL     1      -2.208  -0.214  -2.933  0.00  0.00    +0.310 C 
ATOM     23  O   UNL     1      -2.423  -0.857  -1.933  0.00  0.00    -0.251 OA
BRANCH  22  24
ATOM     24  O   UNL     1      -2.870   0.934  -3.149  0.00  0.00    -0.465 OA
BRANCH  24  26
ATOM     25  C   UNL     1      -4.465   2.655  -2.571  0.00  0.00    +0.048 C 
ATOM     26  C   UNL     1      -3.815   1.334  -2.154  0.00  0.00    +0.229 C 
ENDBRANCH  24  26
ENDBRANCH  22  24
ENDBRANCH  14  22
ENDBRANCH   1  20
BRANCH   6  27
ATOM     27  C   UNL     1      -1.593  -6.903  -6.296  0.00  0.00    +0.069 C 
ATOM     28  C   UNL     1      -2.728  -7.654  -6.996  0.00  0.00    +0.017 C 
ATOM     29  C   UNL     1      -1.260  -7.600  -4.975  0.00  0.00    +0.017 C 
ENDBRANCH   6  27
TORSDOF 5
