REMARK  Name = ZINC60942121
REMARK  9 active torsions:
REMARK  status: ('A' for Active; 'I' for Inactive)
REMARK    1  A    between atoms: C_1  and  C_2
REMARK    2  A    between atoms: C_2  and  C_3
REMARK    3  A    between atoms: C_2  and  N_14
REMARK    4  A    between atoms: N_5  and  C_6
REMARK    5  A    between atoms: C_11  and  C_12
REMARK    6  A    between atoms: N_14  and  C_15
REMARK    7  A    between atoms: C_15  and  C_16
REMARK    8  A    between atoms: C_15  and  C_23
REMARK    9  A    between atoms: C_16  and  C_17
REMARK                            x       y       z     vdW  Elec       q    Type
REMARK                         _______ _______ _______ _____ _____    ______ ____
ROOT
ATOM      1  N   UNL     1       0.685  -0.464  -1.214  0.00  0.00    -0.299 NA
ATOM      2  H   UNL     1       0.338  -1.368  -1.497  0.00  0.00    +0.123 HD
ENDROOT
BRANCH   1   4
ATOM      3  C   UNL     1      -0.034   1.538  -0.001  0.00  0.00    +0.034 C 
ATOM      4  C   UNL     1      -0.002   0.009  -0.005  0.00  0.00    +0.138 C 
BRANCH   4   5
ATOM      5  C   UNL     1      -1.413  -0.523   0.011  0.00  0.00    +0.234 C 
ATOM      6  O   UNL     1      -1.806  -1.226  -0.895  0.00  0.00    -0.274 OA
ATOM      7  N   UNL     1      -2.236  -0.217   1.033  0.00  0.00    -0.283 N 
ATOM      8  H   UNL     1      -1.899   0.278   1.796  0.00  0.00    +0.155 HD
BRANCH   7   9
ATOM      9  C   UNL     1      -3.573  -0.611   0.993  0.00  0.00    +0.051 A 
ATOM     10  C   UNL     1      -4.197  -0.838  -0.226  0.00  0.00    +0.024 A 
ATOM     11  C   UNL     1      -5.520  -1.229  -0.263  0.00  0.00    +0.002 A 
ATOM     12  C   UNL     1      -6.236  -1.397   0.911  0.00  0.00    +0.001 A 
ATOM     13  C   UNL     1      -5.633  -1.175   2.131  0.00  0.00    +0.021 A 
ATOM     14  C   UNL     1      -4.292  -0.786   2.185  0.00  0.00    +0.073 A 
BRANCH  14  15
ATOM     15  C   UNL     1      -3.658  -0.560   3.449  0.00  0.00    +0.101 C 
ATOM     16  N   UNL     1      -3.155  -0.381   4.451  0.00  0.00    -0.191 NA
ENDBRANCH  14  15
ENDBRANCH   7   9
ENDBRANCH   4   5
ENDBRANCH   1   4
BRANCH   1  17
ATOM     17  C   UNL     1       2.140  -0.497  -1.014  0.00  0.00    +0.089 C 
BRANCH  17  18
ATOM     18  C   UNL     1       2.717   0.866  -1.296  0.00  0.00    -0.030 A 
ATOM     19  C   UNL     1       2.236   1.614  -2.354  0.00  0.00    +0.005 A 
ATOM     20  C   UNL     1       2.766   2.864  -2.614  0.00  0.00    +0.000 A 
ATOM     21  C   UNL     1       3.776   3.366  -1.815  0.00  0.00    +0.000 A 
ATOM     22  C   UNL     1       4.256   2.618  -0.756  0.00  0.00    +0.000 A 
ATOM     23  C   UNL     1       3.724   1.370  -0.494  0.00  0.00    +0.005 A 
ENDBRANCH  17  18
BRANCH  17  24
ATOM     24  C   UNL     1       2.763  -1.522  -1.964  0.00  0.00    +0.058 C 
BRANCH  24  25
ATOM     25  C   UNL     1       2.278  -2.902  -1.601  0.00  0.00    -0.046 A 
ATOM     26  C   UNL     1       2.980  -3.663  -0.684  0.00  0.00    +0.004 A 
ATOM     27  C   UNL     1       2.536  -4.929  -0.352  0.00  0.00    +0.000 A 
ATOM     28  C   UNL     1       1.390  -5.435  -0.936  0.00  0.00    +0.000 A 
ATOM     29  C   UNL     1       0.688  -4.674  -1.852  0.00  0.00    +0.000 A 
ATOM     30  C   UNL     1       1.129  -3.406  -2.182  0.00  0.00    +0.004 A 
ENDBRANCH  24  25
ENDBRANCH  17  24
ENDBRANCH   1  17
TORSDOF 8
