REMARK  Name = ZINC01327816
REMARK  8 active torsions:
REMARK  status: ('A' for Active; 'I' for Inactive)
REMARK    1  A    between atoms: C_1  and  C_2
REMARK    2  A    between atoms: C_4  and  C_33
REMARK    3  A    between atoms: C_12  and  S_16
REMARK    4  A    between atoms: S_16  and  C_17
REMARK    5  A    between atoms: C_17  and  C_18
REMARK    6  A    between atoms: N_20  and  C_21
REMARK    7  A    between atoms: C_24  and  C_27
REMARK    8  A    between atoms: C_27  and  C_29
REMARK                            x       y       z     vdW  Elec       q    Type
REMARK                         _______ _______ _______ _____ _____    ______ ____
ROOT
ATOM      1  C   UNL     1      -2.458   1.054   0.990  0.00  0.00    +0.044 C 
ATOM      2  C   UNL     1      -1.160   1.820   0.978  0.00  0.00    -0.050 A 
ATOM      3  C   UNL     1      -1.176   3.203   1.152  0.00  0.00    +0.008 A 
ATOM      4  C   UNL     1      -0.023   3.925   1.141  0.00  0.00    -0.024 A 
ATOM      5  C   UNL     1       1.208   3.271   0.956  0.00  0.00    +0.075 A 
ATOM      6  C   UNL     1       1.226   1.863   0.784  0.00  0.00    +0.002 A 
ATOM      7  C   UNL     1       0.012   1.151   0.802  0.00  0.00    +0.013 A 
ATOM      8  C   UNL     1       2.447   1.201   0.600  0.00  0.00    +0.022 A 
ATOM      9  C   UNL     1       3.630   1.952   0.592  0.00  0.00    +0.034 A 
ATOM     10  C   UNL     1       5.008   1.449   0.414  0.00  0.00    +0.092 A 
ATOM     11  C   UNL     1       6.021   2.412   0.445  0.00  0.00    +0.072 A 
ATOM     12  C   UNL     1       7.353   2.050   0.289  0.00  0.00    +0.115 A 
ATOM     13  N   UNL     1       7.641   0.761   0.109  0.00  0.00    -0.228 NA
ATOM     14  C   UNL     1       6.672  -0.135   0.083  0.00  0.00    +0.223 A 
ATOM     15  N   UNL     1       5.407   0.171   0.227  0.00  0.00    -0.234 NA
ATOM     16  S   UNL     1       5.179   3.949   0.702  0.00  0.00    -0.064 S 
ATOM     17  C   UNL     1       3.506   3.352   0.772  0.00  0.00    +0.112 A 
ATOM     18  N   UNL     1       2.356   3.955   0.942  0.00  0.00    -0.239 NA
ATOM     19  C   UNL     1      -0.064   5.420   1.326  0.00  0.00    +0.046 C 
ENDROOT
BRANCH  12  20
ATOM     20  S   UNL     1       8.629   3.265   0.328  0.00  0.00    -0.095 S 
BRANCH  20  21
ATOM     21  C   UNL     1      10.077   2.207   0.078  0.00  0.00    +0.172 C 
BRANCH  21  22
ATOM     22  C   UNL     1      11.323   3.055   0.075  0.00  0.00    +0.227 C 
ATOM     23  O   UNL     1      11.241   4.255   0.226  0.00  0.00    -0.275 OA
ATOM     24  N   UNL     1      12.529   2.478  -0.097  0.00  0.00    -0.285 N 
ATOM     25  H   UNL     1      12.603   1.512  -0.143  0.00  0.00    +0.155 HD
BRANCH  24  26
ATOM     26  C   UNL     1      13.670   3.270  -0.206  0.00  0.00    +0.033 A 
ATOM     27  C   UNL     1      14.884   2.813   0.299  0.00  0.00    +0.024 A 
ATOM     28  C   UNL     1      16.010   3.586   0.189  0.00  0.00    +0.013 A 
ATOM     29  C   UNL     1      15.937   4.843  -0.424  0.00  0.00    +0.017 A 
ATOM     30  C   UNL     1      14.712   5.301  -0.927  0.00  0.00    +0.013 A 
ATOM     31  C   UNL     1      13.592   4.519  -0.817  0.00  0.00    +0.024 A 
BRANCH  29  32
ATOM     32  C   UNL     1      17.139   5.678  -0.540  0.00  0.00    +0.160 C 
ATOM     33  O   UNL     1      17.055   6.805  -0.981  0.00  0.00    -0.292 OA
ATOM     34  C   UNL     1      18.478   5.134  -0.112  0.00  0.00    +0.091 C 
ENDBRANCH  29  32
ENDBRANCH  24  26
ENDBRANCH  21  22
ENDBRANCH  20  21
ENDBRANCH  12  20
TORSDOF 5
