REMARK  Name = ZINC09601652
REMARK  6 active torsions:
REMARK  status: ('A' for Active; 'I' for Inactive)
REMARK    1  A    between atoms: C_1  and  C_2
REMARK    2  A    between atoms: C_2  and  O_3
REMARK    3  A    between atoms: O_3  and  C_4
REMARK    4  A    between atoms: C_9  and  N_10
REMARK    5  A    between atoms: N_21  and  S_22
REMARK    6  A    between atoms: S_22  and  C_25
REMARK                            x       y       z     vdW  Elec       q    Type
REMARK                         _______ _______ _______ _____ _____    ______ ____
ROOT
ATOM      1  N   UNL     1       1.200  -3.740  -4.278  0.00  0.00    -0.294 N 
ATOM      2  C   UNL     1       2.353  -3.175  -3.752  0.00  0.00    +0.165 A 
ATOM      3  C   UNL     1       2.465  -2.978  -2.354  0.00  0.00    +0.179 A 
ATOM      4  N   UNL     1       3.551  -2.438  -1.843  0.00  0.00    -0.226 NA
ATOM      5  C   UNL     1       4.562  -2.082  -2.650  0.00  0.00    +0.091 A 
ATOM      6  C   UNL     1       5.733  -1.509  -2.127  0.00  0.00    +0.030 A 
ATOM      7  C   UNL     1       6.743  -1.150  -2.967  0.00  0.00    +0.002 A 
ATOM      8  C   UNL     1       6.633  -1.343  -4.342  0.00  0.00    +0.002 A 
ATOM      9  C   UNL     1       5.511  -1.896  -4.883  0.00  0.00    +0.030 A 
ATOM     10  C   UNL     1       4.450  -2.278  -4.047  0.00  0.00    +0.091 A 
ATOM     11  N   UNL     1       3.336  -2.825  -4.556  0.00  0.00    -0.227 NA
ATOM     12  N   UNL     1       1.422  -3.350  -1.520  0.00  0.00    -0.197 N 
ATOM     13  H   UNL     1       0.439  -3.913  -3.703  0.00  0.00    +0.154 HD
ATOM     14  H   UNL     1       0.619  -3.744  -1.894  0.00  0.00    +0.175 HD
ENDROOT
BRANCH   1  20
ATOM     15  C   UNL     1      -0.091  -4.064  -6.299  0.00  0.00    +0.142 A 
ATOM     16  C   UNL     1      -0.148  -4.382  -7.646  0.00  0.00    +0.047 A 
ATOM     17  C   UNL     1       1.010  -4.693  -8.333  0.00  0.00    +0.004 A 
ATOM     18  C   UNL     1       2.229  -4.689  -7.679  0.00  0.00    +0.002 A 
ATOM     19  C   UNL     1       2.296  -4.368  -6.337  0.00  0.00    +0.027 A 
ATOM     20  C   UNL     1       1.136  -4.060  -5.639  0.00  0.00    +0.075 A 
BRANCH  15  21
ATOM     21  O   UNL     1      -1.230  -3.758  -5.622  0.00  0.00    -0.490 OA
BRANCH  21  23
ATOM     22  C   UNL     1      -3.615  -3.413  -5.440  0.00  0.00    +0.048 C 
ATOM     23  C   UNL     1      -2.452  -3.783  -6.363  0.00  0.00    +0.226 C 
ENDBRANCH  21  23
ENDBRANCH  15  21
ENDBRANCH   1  20
BRANCH  12  24
ATOM     24  S   UNL     1       1.548  -3.122   0.115  0.00  0.00    +0.074 S 
ATOM     25  O   UNL     1       2.808  -3.651   0.503  0.00  0.00    -0.150 OA
ATOM     26  O   UNL     1       0.326  -3.572   0.683  0.00  0.00    -0.150 OA
BRANCH  24  27
ATOM     27  C   UNL     1       1.623  -1.384   0.394  0.00  0.00    +0.109 A 
ATOM     28  C   UNL     1       0.459  -0.664   0.591  0.00  0.00    +0.030 A 
ATOM     29  C   UNL     1       0.518   0.699   0.810  0.00  0.00    +0.017 A 
ATOM     30  C   UNL     1       1.741   1.344   0.833  0.00  0.00    +0.018 A 
ATOM     31  C   UNL     1       2.906   0.623   0.637  0.00  0.00    +0.017 A 
ATOM     32  C   UNL     1       2.846  -0.740   0.418  0.00  0.00    +0.030 A 
ATOM     33 BR   UNL     1       1.822   3.209   1.133  0.00  0.00    -0.050 Br
ENDBRANCH  24  27
ENDBRANCH  12  24
TORSDOF 5
