REMARK  Name = ZINC40814958
REMARK  9 active torsions:
REMARK  status: ('A' for Active; 'I' for Inactive)
REMARK    1  A    between atoms: C_1  and  C_2
REMARK    2  A    between atoms: C_6  and  C_7
REMARK    3  A    between atoms: N_9  and  C_10
REMARK    4  A    between atoms: C_10  and  C_11
REMARK    5  A    between atoms: C_11  and  C_12
REMARK    6  A    between atoms: N_21  and  N_22
REMARK    7  A    between atoms: N_22  and  C_23
REMARK    8  A    between atoms: C_26  and  N_32
REMARK    9  A    between atoms: C_28  and  N_29
REMARK                            x       y       z     vdW  Elec       q    Type
REMARK                         _______ _______ _______ _____ _____    ______ ____
ROOT
ATOM      1  C   UNL     1      -1.061   1.204  -0.078  0.00  0.00    +0.048 C 
ATOM      2  C   UNL     1      -1.241  -0.289  -0.175  0.00  0.00    +0.009 A 
ATOM      3  C   UNL     1      -1.186  -1.068  -1.337  0.00  0.00    +0.042 A 
ATOM      4  C   UNL     1      -1.406  -2.374  -0.970  0.00  0.00    +0.115 A 
ATOM      5  O   UNL     1      -1.585  -2.406   0.349  0.00  0.00    -0.454 OA
ATOM      6  C   UNL     1      -1.485  -1.155   0.854  0.00  0.00    +0.193 A 
ATOM      7  C   UNL     1      -1.427  -3.512  -1.958  0.00  0.00    +0.075 C 
ATOM      8  C   UNL     1      -1.689  -2.962  -3.363  0.00  0.00    +0.014 C 
ATOM      9  C   UNL     1      -0.696  -1.844  -3.699  0.00  0.00    +0.058 C 
ATOM     10  C   UNL     1      -0.944  -0.684  -2.746  0.00  0.00    +0.070 C 
ATOM     11  N   UNL     1      -0.944   0.553  -3.140  0.00  0.00    -0.186 NA
ENDROOT
BRANCH   6  12
ATOM     12  C   UNL     1      -1.619  -0.789   2.269  0.00  0.00    +0.280 C 
ATOM     13  O   UNL     1      -1.513   0.375   2.608  0.00  0.00    -0.267 OA
ATOM     14  N   UNL     1      -1.861  -1.741   3.192  0.00  0.00    -0.308 N 
ATOM     15  H   UNL     1      -1.946  -2.668   2.921  0.00  0.00    +0.149 HD
BRANCH  14  16
ATOM     16  C   UNL     1      -1.995  -1.375   4.604  0.00  0.00    +0.110 C 
BRANCH  16  17
ATOM     17  C   UNL     1      -2.264  -2.632   5.433  0.00  0.00    +0.061 C 
BRANCH  17  18
ATOM     18  C   UNL     1      -2.401  -2.256   6.886  0.00  0.00    -0.009 A 
ATOM     19  C   UNL     1      -3.516  -1.914   7.577  0.00  0.00    +0.011 A 
ATOM     20  C   UNL     1      -3.404  -1.605   8.919  0.00  0.00    +0.008 A 
ATOM     21  C   UNL     1      -2.182  -1.651   9.505  0.00  0.00    +0.045 A 
ATOM     22  S   UNL     1      -1.140  -2.152   8.145  0.00  0.00    -0.102 S 
ENDBRANCH  17  18
ENDBRANCH  16  17
ENDBRANCH  14  16
ENDBRANCH   6  12
BRANCH  11  23
ATOM     23  N   UNL     1      -0.709   0.859  -4.487  0.00  0.00    -0.235 N 
ATOM     24  H   UNL     1      -0.546   0.146  -5.125  0.00  0.00    +0.174 HD
BRANCH  23  25
ATOM     25  C   UNL     1      -0.709   2.188  -4.911  0.00  0.00    +0.079 A 
ATOM     26  C   UNL     1      -1.054   3.201  -4.025  0.00  0.00    +0.029 A 
ATOM     27  C   UNL     1      -1.053   4.516  -4.448  0.00  0.00    +0.035 A 
ATOM     28  C   UNL     1      -0.710   4.824  -5.752  0.00  0.00    +0.128 A 
ATOM     29  C   UNL     1      -0.367   3.818  -6.637  0.00  0.00    +0.067 A 
ATOM     30  C   UNL     1      -0.359   2.502  -6.219  0.00  0.00    +0.151 A 
BRANCH  30  31
ATOM     31  N   UNL     1       0.015   1.424  -7.167  0.00  0.00    +0.058 N 
ATOM     32  O   UNL     1       0.655   0.474  -6.780  0.00  0.00    -0.126 OA
ATOM     33  O   UNL     1      -0.319   1.496  -8.326  0.00  0.00    -0.126 OA
ENDBRANCH  30  31
BRANCH  28  34
ATOM     34  N   UNL     1      -0.711   6.238  -6.203  0.00  0.00    +0.056 N 
ATOM     35  O   UNL     1      -1.011   7.118  -5.431  0.00  0.00    -0.126 OA
ATOM     36  O   UNL     1      -0.412   6.509  -7.342  0.00  0.00    -0.126 OA
ENDBRANCH  28  34
ENDBRANCH  23  25
ENDBRANCH  11  23
TORSDOF 8
