REMARK  Name = ZINC35454598
REMARK  4 active torsions:
REMARK  status: ('A' for Active; 'I' for Inactive)
REMARK    1  A    between atoms: C_5  and  O_7
REMARK    2  A    between atoms: O_7  and  C_8
REMARK    3  A    between atoms: C_11  and  C_17
REMARK    4  A    between atoms: C_13  and  N_14
REMARK                            x       y       z     vdW  Elec       q    Type
REMARK                         _______ _______ _______ _____ _____    ______ ____
ROOT
ATOM      1  C   UNL     1       0.052  -2.695   0.091  0.00  0.00    +0.159 A 
ATOM      2  C   UNL     1      -1.139  -1.978   0.100  0.00  0.00    +0.049 A 
ATOM      3  C   UNL     1      -2.334  -2.630   0.212  0.00  0.00    +0.015 A 
ATOM      4  C   UNL     1      -2.362  -4.026   0.320  0.00  0.00    +0.017 A 
ATOM      5  C   UNL     1      -1.162  -4.749   0.312  0.00  0.00    +0.047 A 
ATOM      6  C   UNL     1       0.036  -4.082   0.193  0.00  0.00    +0.169 A 
ENDROOT
BRANCH   6   7
ATOM      7  N   UNL     1       1.307  -4.840   0.178  0.00  0.00    +0.060 N 
ATOM      8  O   UNL     1       1.292  -6.046   0.266  0.00  0.00    -0.126 OA
ATOM      9  O   UNL     1       2.360  -4.254   0.078  0.00  0.00    -0.126 OA
ENDBRANCH   6   7
BRANCH   4  10
ATOM     10  C   UNL     1      -3.645  -4.730   0.442  0.00  0.00    +0.258 C 
ATOM     11  O   UNL     1      -4.683  -4.103   0.449  0.00  0.00    -0.296 OA
ENDBRANCH   4  10
BRANCH   1  12
ATOM     12  O   UNL     1       1.235  -2.039  -0.021  0.00  0.00    -0.453 OA
BRANCH  12  17
ATOM     13  C   UNL     1       1.232   1.415  -1.165  0.00  0.00    +0.004 A 
ATOM     14  C   UNL     1       1.177   2.086   0.043  0.00  0.00    +0.001 A 
ATOM     15  C   UNL     1       1.142   1.377   1.229  0.00  0.00    +0.018 A 
ATOM     16  C   UNL     1       1.161  -0.005   1.211  0.00  0.00    +0.056 A 
ATOM     17  C   UNL     1       1.215  -0.680  -0.000  0.00  0.00    +0.142 A 
ATOM     18  C   UNL     1       1.251   0.034  -1.189  0.00  0.00    +0.047 A 
ATOM     19  I   UNL     1       1.108  -1.078   3.009  0.00  0.00    -0.040 I 
ENDBRANCH  12  17
ENDBRANCH   1  12
TORSDOF 4
