REMARK  Name = ZINC33534397
REMARK  5 active torsions:
REMARK  status: ('A' for Active; 'I' for Inactive)
REMARK    1  A    between atoms: C_1  and  C_2
REMARK    2  A    between atoms: C_7  and  N_8
REMARK    3  A    between atoms: C_9  and  C_11
REMARK    4  A    between atoms: C_11  and  S_12
REMARK    5  A    between atoms: S_12  and  C_13
REMARK                            x       y       z     vdW  Elec       q    Type
REMARK                         _______ _______ _______ _____ _____    ______ ____
ROOT
ATOM      1  N   UNL     1      -0.185  -0.024   2.415  0.00  0.00    -0.284 N 
ATOM      2  C   UNL     1      -0.367  -0.709   3.561  0.00  0.00    +0.228 C 
ATOM      3  O   UNL     1      -0.352  -1.921   3.553  0.00  0.00    -0.275 OA
ATOM      4  H   UNL     1      -0.121   0.943   2.432  0.00  0.00    +0.155 HD
ENDROOT
BRANCH   1  11
ATOM      5  C   UNL     1       2.087  -1.683   1.986  0.00  0.00    +0.046 C 
ATOM      6  C   UNL     1       1.005  -1.530   0.948  0.00  0.00    -0.027 A 
ATOM      7  C   UNL     1       1.096  -2.211  -0.251  0.00  0.00    +0.020 A 
ATOM      8  C   UNL     1       0.103  -2.071  -1.204  0.00  0.00    +0.019 A 
ATOM      9  C   UNL     1      -0.984  -1.250  -0.961  0.00  0.00    +0.032 A 
ATOM     10  C   UNL     1      -1.080  -0.566   0.236  0.00  0.00    +0.040 A 
ATOM     11  C   UNL     1      -0.087  -0.710   1.198  0.00  0.00    +0.050 A 
ATOM     12 BR   UNL     1      -2.564   0.557   0.569  0.00  0.00    -0.048 Br
ATOM     13 BR   UNL     1       0.232  -3.004  -2.844  0.00  0.00    -0.050 Br
ENDBRANCH   1  11
BRANCH   2  14
ATOM     14  C   UNL     1      -0.591   0.033   4.854  0.00  0.00    +0.173 C 
BRANCH  14  15
ATOM     15  S   UNL     1      -0.802  -1.159   6.206  0.00  0.00    -0.075 S 
BRANCH  15  16
ATOM     16  C   UNL     1      -1.050  -0.149   7.628  0.00  0.00    +0.210 A 
ATOM     17  N   UNL     1      -1.073   1.162   7.638  0.00  0.00    -0.144 NA
ATOM     18  H   UNL     1      -1.366   2.467   9.298  0.00  0.00    +0.192 HD
ATOM     19  N   UNL     1      -1.297   1.558   8.967  0.00  0.00    -0.246 N 
ATOM     20  C   UNL     1      -1.398   0.424   9.692  0.00  0.00    +0.209 A 
ATOM     21  N   UNL     1      -1.252  -0.596   8.873  0.00  0.00    -0.188 NA
ATOM     22  N   UNL     1      -1.620   0.348  11.055  0.00  0.00    -0.328 N 
ATOM     23  H   UNL     1      -1.718   1.160  11.576  0.00  0.00    +0.145 HD
ATOM     24  H   UNL     1      -1.677  -0.518  11.489  0.00  0.00    +0.145 HD
ENDBRANCH  15  16
ENDBRANCH  14  15
ENDBRANCH   2  14
TORSDOF 4
