REMARK  Name = ZINC33271557
REMARK  6 active torsions:
REMARK  status: ('A' for Active; 'I' for Inactive)
REMARK    1  A    between atoms: C_1  and  C_2
REMARK    2  A    between atoms: C_2  and  C_3
REMARK    3  A    between atoms: C_6  and  C_9
REMARK    4  A    between atoms: C_17  and  C_31
REMARK    5  A    between atoms: C_25  and  O_29
REMARK    6  A    between atoms: O_29  and  C_30
REMARK                            x       y       z     vdW  Elec       q    Type
REMARK                         _______ _______ _______ _____ _____    ______ ____
ROOT
ATOM      1  C   UNL     1      -2.718   2.950   4.762  0.00  0.00    +0.063 C 
ATOM      2  C   UNL     1      -1.700   3.155   5.889  0.00  0.00    +0.109 C 
ATOM      3  C   UNL     1      -2.271   4.001   6.992  0.00  0.00    +0.219 C 
ATOM      4  O   UNL     1      -2.005   3.724   8.142  0.00  0.00    -0.275 OA
ATOM      5  N   UNL     1      -3.071   5.059   6.742  0.00  0.00    -0.270 N 
ATOM      6  C   UNL     1      -3.543   5.233   5.442  0.00  0.00    +0.135 A 
ATOM      7  C   UNL     1      -3.387   4.271   4.481  0.00  0.00    +0.023 A 
ATOM      8  C   UNL     1      -3.937   4.751   3.301  0.00  0.00    +0.066 A 
ATOM      9  N   UNL     1      -4.416   5.952   3.528  0.00  0.00    -0.168 NA
ATOM     10  N   UNL     1      -4.183   6.278   4.874  0.00  0.00    -0.193 N 
ATOM     11  C   UNL     1      -4.545   7.462   5.507  0.00  0.00    +0.196 A 
ATOM     12  N   UNL     1      -4.360   7.817   6.755  0.00  0.00    -0.221 NA
ATOM     13  C   UNL     1      -4.763   9.012   7.239  0.00  0.00    +0.081 A 
ATOM     14  C   UNL     1      -4.621   9.515   8.553  0.00  0.00    +0.032 A 
ATOM     15  C   UNL     1      -5.092  10.747   8.884  0.00  0.00    +0.048 A 
ATOM     16  C   UNL     1      -5.729  11.560   7.951  0.00  0.00    +0.121 A 
ATOM     17  C   UNL     1      -5.888  11.102   6.651  0.00  0.00    +0.063 A 
ATOM     18  C   UNL     1      -5.414   9.858   6.312  0.00  0.00    +0.044 A 
ATOM     19  S   UNL     1      -5.389   8.883   4.828  0.00  0.00    -0.048 S 
ATOM     20  C   UNL     1      -3.978   4.020   1.984  0.00  0.00    +0.068 C 
ATOM     21  H   UNL     1      -3.333   5.754   7.554  0.00  0.00    +0.156 HD
ENDROOT
BRANCH   1  25
ATOM     22  C   UNL     1      -0.718   1.572   1.248  0.00  0.00    -0.048 A 
ATOM     23  C   UNL     1      -0.360   2.779   1.819  0.00  0.00    +0.004 A 
ATOM     24  C   UNL     1      -1.010   3.227   2.954  0.00  0.00    +0.004 A 
ATOM     25  C   UNL     1      -2.012   2.463   3.523  0.00  0.00    -0.039 A 
ATOM     26  C   UNL     1      -2.366   1.254   2.955  0.00  0.00    +0.004 A 
ATOM     27  C   UNL     1      -1.719   0.808   1.818  0.00  0.00    +0.004 A 
BRANCH  22  29
ATOM     28  C   UNL     1      -0.753   1.593  -1.232  0.00  0.00    +0.009 C 
ATOM     29  C   UNL     1      -0.013   1.086   0.008  0.00  0.00    +0.032 C 
ENDBRANCH  22  29
ENDBRANCH   1  25
BRANCH  16  30
ATOM     30  O   UNL     1      -6.191  12.787   8.309  0.00  0.00    -0.495 OA
ATOM     31  C   UNL     1      -5.988  13.186   9.666  0.00  0.00    +0.277 C 
ENDBRANCH  16  30
TORSDOF 3
