REMARK  Name = ZINC44279657
REMARK  11 active torsions:
REMARK  status: ('A' for Active; 'I' for Inactive)
REMARK    1  A    between atoms: C_1  and  C_2
REMARK    2  A    between atoms: C_2  and  C_3
REMARK    3  A    between atoms: C_2  and  C_4
REMARK    4  A    between atoms: C_2  and  C_5
REMARK    5  A    between atoms: C_8  and  O_11
REMARK    6  A    between atoms: O_11  and  C_12
REMARK    7  A    between atoms: C_15  and  N_22
REMARK    8  A    between atoms: C_17  and  C_18
REMARK    9  A    between atoms: C_18  and  C_19
REMARK   10  A    between atoms: C_19  and  C_20
REMARK   11  A    between atoms: C_20  and  N_21
REMARK                            x       y       z     vdW  Elec       q    Type
REMARK                         _______ _______ _______ _____ _____    ______ ____
ROOT
ATOM      1  C   UNL     1       3.899  -1.370  -4.867  0.00  0.00    +0.132 A 
ATOM      2  C   UNL     1       4.540  -0.577  -3.925  0.00  0.00    +0.049 A 
ATOM      3  C   UNL     1       5.821  -0.120  -4.166  0.00  0.00    +0.036 A 
ATOM      4  C   UNL     1       6.464  -0.452  -5.344  0.00  0.00    +0.127 A 
ATOM      5  C   UNL     1       5.828  -1.242  -6.284  0.00  0.00    +0.040 A 
ATOM      6  C   UNL     1       4.549  -1.706  -6.045  0.00  0.00    -0.003 A 
ENDROOT
BRANCH   4   7
ATOM      7  N   UNL     1       7.837   0.039  -5.600  0.00  0.00    +0.056 N 
ATOM      8  O   UNL     1       8.395   0.730  -4.779  0.00  0.00    -0.126 OA
ATOM      9  O   UNL     1       8.401  -0.251  -6.629  0.00  0.00    -0.126 OA
ENDBRANCH   4   7
BRANCH   1  10
ATOM     10  O   UNL     1       2.638  -1.821  -4.632  0.00  0.00    -0.456 OA
BRANCH  10  14
ATOM     11  C   UNL     1       0.682  -0.444  -1.271  0.00  0.00    -0.042 A 
ATOM     12  C   UNL     1       0.963   0.424  -2.310  0.00  0.00    +0.008 A 
ATOM     13  C   UNL     1       1.617  -0.035  -3.437  0.00  0.00    +0.046 A 
ATOM     14  C   UNL     1       1.994  -1.367  -3.525  0.00  0.00    +0.128 A 
ATOM     15  C   UNL     1       1.712  -2.236  -2.480  0.00  0.00    +0.046 A 
ATOM     16  C   UNL     1       1.062  -1.771  -1.354  0.00  0.00    +0.008 A 
BRANCH  11  18
ATOM     17  C   UNL     1       0.856  -0.150   1.185  0.00  0.00    +0.015 C 
ATOM     18  C   UNL     1      -0.032   0.059  -0.043  0.00  0.00    -0.013 C 
ATOM     19  C   UNL     1      -1.341  -0.713   0.137  0.00  0.00    +0.015 C 
ATOM     20  C   UNL     1      -0.337   1.550  -0.205  0.00  0.00    +0.015 C 
ENDBRANCH  11  18
ENDBRANCH  10  14
ENDBRANCH   1  10
BRANCH   6  21
ATOM     21  C   UNL     1       3.858  -2.573  -7.066  0.00  0.00    +0.037 C 
BRANCH  21  22
ATOM     22  C   UNL     1       2.986  -1.700  -7.970  0.00  0.00    -0.015 C 
BRANCH  22  23
ATOM     23  C   UNL     1       2.285  -2.580  -9.007  0.00  0.00    -0.086 C 
BRANCH  23  24
ATOM     24  N   UNL     1       1.447  -1.741  -9.874  0.00  0.00    +0.378 N 
ATOM     25  H   UNL     1       2.025  -1.062 -10.346  0.00  0.00    -0.090 HD
ATOM     26  H   UNL     1       0.984  -2.321 -10.558  0.00  0.00    -0.090 HD
ATOM     27  H   UNL     1       0.755  -1.264  -9.315  0.00  0.00    -0.090 HD
ENDBRANCH  23  24
ENDBRANCH  22  23
ENDBRANCH  21  22
ENDBRANCH   6  21
TORSDOF 8
