REMARK  Name = ZINC08944088
REMARK  5 active torsions:
REMARK  status: ('A' for Active; 'I' for Inactive)
REMARK    1  A    between atoms: C_3  and  C_6
REMARK    2  A    between atoms: C_16  and  C_18
REMARK    3  A    between atoms: C_23  and  C_25
REMARK    4  A    between atoms: C_25  and  N_57
REMARK    5  A    between atoms: C_29  and  C_31
REMARK                            x       y       z     vdW  Elec       q    Type
REMARK                         _______ _______ _______ _____ _____    ______ ____
ROOT
ATOM      1  C   UNL     1       2.821   2.939  -1.294  0.00  0.00    +0.020 C 
ATOM      2  C   UNL     1       2.107   4.069  -1.513  0.00  0.00    -0.023 C 
ATOM      3  C   UNL     1       0.650   3.968  -1.847  0.00  0.00    +0.037 C 
ATOM      4  C   UNL     1      -0.068   5.301  -1.912  0.00  0.00    +0.005 C 
ATOM      5  C   UNL     1       0.817   6.443  -2.408  0.00  0.00    +0.012 C 
ATOM      6  C   UNL     1       1.959   6.630  -1.408  0.00  0.00    +0.067 C 
ATOM      7  C   UNL     1       2.745   5.324  -1.417  0.00  0.00    +0.068 C 
ATOM      8  N   UNL     1       4.002   5.613  -1.366  0.00  0.00    -0.181 NA
ATOM      9  N   UNL     1       4.268   6.979  -1.526  0.00  0.00    -0.186 N 
ATOM     10  C   UNL     1       3.002   7.643  -1.911  0.00  0.00    +0.146 C 
ATOM     11  C   UNL     1       5.462   7.580  -1.358  0.00  0.00    +0.219 C 
ATOM     12  O   UNL     1       5.567   8.778  -1.526  0.00  0.00    -0.276 OA
ENDROOT
BRANCH   1  15
ATOM     13  C   UNL     1       1.887  -0.720  -1.340  0.00  0.00    +0.008 A 
ATOM     14  C   UNL     1       2.711   0.371  -1.199  0.00  0.00    +0.015 A 
ATOM     15  C   UNL     1       2.169   1.633  -1.384  0.00  0.00    +0.012 A 
ATOM     16  S   UNL     1       0.467   1.249  -1.762  0.00  0.00    -0.097 S 
ATOM     17  C   UNL     1       0.578  -0.530  -1.653  0.00  0.00    +0.046 A 
ENDBRANCH   1  15
BRANCH  10  18
ATOM     18  C   UNL     1       2.913   7.811  -3.406  0.00  0.00    +0.013 A 
ATOM     19  C   UNL     1       2.311   8.794  -4.120  0.00  0.00    +0.013 A 
ATOM     20  C   UNL     1       2.360   8.745  -5.501  0.00  0.00    +0.008 A 
ATOM     21  C   UNL     1       3.001   7.712  -6.100  0.00  0.00    +0.045 A 
ATOM     22  S   UNL     1       3.568   6.765  -4.697  0.00  0.00    -0.100 S 
ENDBRANCH  10  18
BRANCH  11  23
ATOM     23  C   UNL     1       6.667   6.767  -0.962  0.00  0.00    +0.022 C 
BRANCH  23  28
ATOM     24  C   UNL     1       8.337   8.045  -2.178  0.00  0.00    -0.077 C 
ATOM     25  C   UNL     1       9.872   8.162  -2.006  0.00  0.00    -0.020 C 
ATOM     26  C   UNL     1      10.168   6.992  -1.032  0.00  0.00    -0.008 C 
ATOM     27  C   UNL     1       8.929   6.982  -0.112  0.00  0.00    +0.020 C 
ATOM     28  N   UNL     1       7.845   7.665  -0.841  0.00  0.00    +0.393 N 
ATOM     29  H   UNL     1       7.570   8.511  -0.328  0.00  0.00    -0.080 HD
BRANCH  27  30
ATOM     30  C   UNL     1       8.540   5.562   0.209  0.00  0.00    +0.197 C 
ATOM     31  O   UNL     1       8.110   4.839  -0.664  0.00  0.00    -0.278 OA
ATOM     32  N   UNL     1       8.670   5.096   1.467  0.00  0.00    -0.331 N 
ATOM     33  H   UNL     1       9.014   5.675   2.166  0.00  0.00    +0.145 HD
ATOM     34  H   UNL     1       8.419   4.182   1.674  0.00  0.00    +0.145 HD
ENDBRANCH  27  30
ENDBRANCH  23  28
ENDBRANCH  11  23
TORSDOF 5
