REMARK  Name = ZINC21233451
REMARK  7 active torsions:
REMARK  status: ('A' for Active; 'I' for Inactive)
REMARK    1  A    between atoms: C_1  and  O_2
REMARK    2  A    between atoms: O_2  and  C_3
REMARK    3  A    between atoms: C_6  and  O_37
REMARK    4  A    between atoms: C_7  and  C_9
REMARK    5  A    between atoms: C_14  and  C_24
REMARK    6  A    between atoms: C_29  and  C_30
REMARK    7  A    between atoms: O_37  and  C_38
REMARK                            x       y       z     vdW  Elec       q    Type
REMARK                         _______ _______ _______ _____ _____    ______ ____
ROOT
ATOM      1  C   UNL     1       2.424   1.272  -0.632  0.00  0.00    +0.036 C 
ATOM      2  C   UNL     1       2.508  -0.062   0.106  0.00  0.00    +0.060 C 
ATOM      3  C   UNL     1       1.169  -0.779   0.032  0.00  0.00    +0.017 C 
ATOM      4  C   UNL     1       0.025  -0.076   0.022  0.00  0.00    +0.036 C 
ATOM      5  C   UNL     1      -1.371  -0.655  -0.003  0.00  0.00    +0.136 C 
ATOM      6  N   UNL     1      -1.422  -2.074  -0.282  0.00  0.00    -0.331 N 
ATOM      7  C   UNL     1      -0.865  -3.000   0.596  0.00  0.00    +0.049 A 
ATOM      8  C   UNL     1      -1.657  -3.906   1.286  0.00  0.00    +0.025 A 
ATOM      9  C   UNL     1      -1.068  -4.778   2.185  0.00  0.00    +0.002 A 
ATOM     10  C   UNL     1       0.298  -4.748   2.399  0.00  0.00    +0.002 A 
ATOM     11  C   UNL     1       1.094  -3.857   1.699  0.00  0.00    +0.025 A 
ATOM     12  C   UNL     1       0.509  -3.000   0.784  0.00  0.00    +0.052 A 
ATOM     13  N   UNL     1       1.257  -2.134  -0.008  0.00  0.00    -0.316 N 
ATOM     14  C   UNL     1       0.055   1.338   0.040  0.00  0.00    +0.163 C 
ATOM     15  O   UNL     1      -0.997   1.946   0.045  0.00  0.00    -0.292 OA
ATOM     16  C   UNL     1       1.338   2.114   0.048  0.00  0.00    +0.088 C 
ATOM     17  H   UNL     1      -1.906  -2.437  -1.201  0.00  0.00    +0.147 HD
ATOM     18  H   UNL     1       1.957  -2.620  -0.704  0.00  0.00    +0.152 HD
ENDROOT
BRANCH   1  23
ATOM     19  C   UNL     1       5.498   2.979   0.752  0.00  0.00    +0.121 A 
ATOM     20  C   UNL     1       6.186   3.296  -0.410  0.00  0.00    +0.049 A 
ATOM     21  C   UNL     1       5.658   2.957  -1.640  0.00  0.00    +0.049 A 
ATOM     22  C   UNL     1       4.438   2.301  -1.714  0.00  0.00    +0.124 A 
ATOM     23  C   UNL     1       3.749   1.985  -0.552  0.00  0.00    +0.002 A 
ATOM     24  C   UNL     1       4.276   2.328   0.678  0.00  0.00    +0.053 A 
BRANCH  19  26
ATOM     25  C   UNL     1       7.278   3.987   1.964  0.00  0.00    +0.277 C 
ATOM     26  O   UNL     1       6.019   3.313   1.963  0.00  0.00    -0.495 OA
ENDBRANCH  19  26
BRANCH  22  27
ATOM     27  O   UNL     1       3.917   1.967  -2.925  0.00  0.00    -0.495 OA
ATOM     28  C   UNL     1       4.680   2.324  -4.080  0.00  0.00    +0.277 C 
ENDBRANCH  22  27
ENDBRANCH   1  23
BRANCH   5  29
ATOM     29  C   UNL     1      -2.015  -0.407   1.337  0.00  0.00    -0.011 A 
ATOM     30  C   UNL     1      -1.232  -0.099   2.434  0.00  0.00    +0.006 A 
ATOM     31  C   UNL     1      -1.824   0.133   3.662  0.00  0.00    +0.000 A 
ATOM     32  C   UNL     1      -3.197   0.046   3.795  0.00  0.00    +0.001 A 
ATOM     33  C   UNL     1      -3.979  -0.266   2.699  0.00  0.00    +0.013 A 
ATOM     34  C   UNL     1      -3.388  -0.493   1.470  0.00  0.00    +0.060 A 
BRANCH  34  35
ATOM     35  C   UNL     1      -4.241  -0.835   0.275  0.00  0.00    +0.418 C 
ATOM     36  F   UNL     1      -5.592  -0.763   0.631  0.00  0.00    -0.166 F 
ATOM     37  F   UNL     1      -3.982   0.073  -0.757  0.00  0.00    -0.166 F 
ATOM     38  F   UNL     1      -3.940  -2.131  -0.157  0.00  0.00    -0.166 F 
ENDBRANCH  34  35
ENDBRANCH   5  29
TORSDOF 5
