REMARK  Name = ZINC09184916
REMARK  17 active torsions:
REMARK  status: ('A' for Active; 'I' for Inactive)
REMARK    1  A    between atoms: C_1  and  C_2
REMARK    2  A    between atoms: C_2  and  N_69
REMARK    3  A    between atoms: C_3  and  C_4
REMARK    4  A    between atoms: C_3  and  N_69
REMARK    5  A    between atoms: C_5  and  C_6
REMARK    6  A    between atoms: C_5  and  N_69
REMARK    7  A    between atoms: C_6  and  C_7
REMARK    8  A    between atoms: C_7  and  N_8
REMARK    9  A    between atoms: C_9  and  C_30
REMARK   10  A    between atoms: C_12  and  C_13
REMARK   11  A    between atoms: C_12  and  O_25
REMARK   12  A    between atoms: C_14  and  C_24
REMARK   13  A    between atoms: C_15  and  C_20
REMARK   14  A    between atoms: C_18  and  C_19
REMARK   15  A    between atoms: C_20  and  O_22
REMARK   16  A    between atoms: O_22  and  C_23
REMARK   17  A    between atoms: C_34  and  N_36
REMARK                            x       y       z     vdW  Elec       q    Type
REMARK                         _______ _______ _______ _____ _____    ______ ____
ROOT
ATOM      1  N   UNL     1      -0.668   0.940   0.321  0.00  0.00    -0.284 N 
ATOM      2  C   UNL     1      -0.131   0.100  -0.753  0.00  0.00    +0.145 C 
ATOM      3  C   UNL     1       1.303   0.529  -0.961  0.00  0.00    +0.071 C 
ATOM      4  C   UNL     1       2.202   0.009  -1.876  0.00  0.00    +0.135 C 
ATOM      5  C   UNL     1       1.540   1.559  -0.042  0.00  0.00    +0.249 C 
ATOM      6  O   UNL     1       2.587   2.165   0.098  0.00  0.00    -0.282 OA
ATOM      7  C   UNL     1       0.292   1.784   0.736  0.00  0.00    +0.288 C 
ATOM      8  O   UNL     1       0.159   2.610   1.615  0.00  0.00    -0.266 OA
ENDROOT
BRANCH   4   9
ATOM      9  C   UNL     1       3.568   0.544  -1.949  0.00  0.00    +0.041 A 
ATOM     10  C   UNL     1       4.753  -0.118  -1.554  0.00  0.00    -0.008 A 
ATOM     11  C   UNL     1       5.788   0.738  -1.794  0.00  0.00    +0.128 A 
ATOM     12  N   UNL     1       5.274   1.903  -2.323  0.00  0.00    -0.352 N 
ATOM     13  H   UNL     1       5.795   2.678  -2.584  0.00  0.00    +0.166 HD
ATOM     14  C   UNL     1       3.941   1.792  -2.424  0.00  0.00    +0.024 A 
ATOM     15  C   UNL     1       3.007   2.847  -2.960  0.00  0.00    +0.064 C 
ATOM     16  C   UNL     1       4.854  -1.507  -0.977  0.00  0.00    +0.047 C 
BRANCH  11  17
ATOM     17  C   UNL     1       7.205   0.465  -1.534  0.00  0.00    +0.356 C 
ATOM     18  O   UNL     1       7.542  -0.605  -1.063  0.00  0.00    -0.243 OA
BRANCH  17  19
ATOM     19  O   UNL     1       8.135   1.400  -1.817  0.00  0.00    -0.463 OA
ATOM     20  C   UNL     1       9.518   1.061  -1.533  0.00  0.00    +0.280 C 
ENDBRANCH  17  19
ENDBRANCH  11  17
ENDBRANCH   4   9
BRANCH   2  21
ATOM     21  C   UNL     1      -0.181  -1.351  -0.348  0.00  0.00    -0.020 A 
ATOM     22  C   UNL     1       0.108  -1.716   0.954  0.00  0.00    +0.006 A 
ATOM     23  C   UNL     1       0.057  -3.046   1.327  0.00  0.00    +0.003 A 
ATOM     24  C   UNL     1      -0.274  -4.012   0.395  0.00  0.00    +0.033 A 
ATOM     25  C   UNL     1      -0.558  -3.648  -0.908  0.00  0.00    +0.127 A 
ATOM     26  C   UNL     1      -0.512  -2.317  -1.279  0.00  0.00    +0.038 A 
BRANCH  25  27
ATOM     27  N   UNL     1      -0.912  -4.683  -1.905  0.00  0.00    +0.056 N 
ATOM     28  O   UNL     1      -1.163  -4.362  -3.053  0.00  0.00    -0.126 OA
ATOM     29  O   UNL     1      -0.953  -5.856  -1.578  0.00  0.00    -0.126 OA
ENDBRANCH  25  27
ENDBRANCH   2  21
BRANCH   4  30
ATOM     30  O   UNL     1       1.823  -0.990  -2.701  0.00  0.00    -0.506 OA
ATOM     31  H   UNL     1       2.589  -1.242  -3.292  0.00  0.00    +0.292 HD
ENDBRANCH   4  30
BRANCH   1  32
ATOM     32  C   UNL     1      -2.030   0.871   0.856  0.00  0.00    +0.107 C 
BRANCH  32  33
ATOM     33  C   UNL     1      -2.073  -0.124   2.017  0.00  0.00    +0.000 C 
BRANCH  33  34
ATOM     34  C   UNL     1      -3.495  -0.196   2.575  0.00  0.00    -0.077 C 
BRANCH  34  35
ATOM     35  N   UNL     1      -3.525  -1.176   3.682  0.00  0.00    +0.379 N 
ATOM     36  H   UNL     1      -3.110  -2.057   3.357  0.00  0.00    -0.082 HD
BRANCH  35  38
ATOM     37  C   UNL     1      -3.312   0.660   5.324  0.00  0.00    -0.017 C 
ATOM     38  C   UNL     1      -2.739  -0.669   4.826  0.00  0.00    -0.082 C 
ENDBRANCH  35  38
BRANCH  35  39
ATOM     39  C   UNL     1      -4.920  -1.426   4.098  0.00  0.00    -0.082 C 
ATOM     40  C   UNL     1      -4.956  -2.685   4.967  0.00  0.00    -0.017 C 
ENDBRANCH  35  39
ENDBRANCH  34  35
ENDBRANCH  33  34
ENDBRANCH  32  33
ENDBRANCH   1  32
TORSDOF 12
