REMARK  Name = ZINC20332384
REMARK  3 active torsions:
REMARK  status: ('A' for Active; 'I' for Inactive)
REMARK    1  A    between atoms: C_3  and  O_18
REMARK    2  A    between atoms: C_4  and  C_8
REMARK    3  A    between atoms: C_8  and  N_9
REMARK                            x       y       z     vdW  Elec       q    Type
REMARK                         _______ _______ _______ _____ _____    ______ ____
ROOT
ATOM      1  C   UNL     1      -0.267   4.086   0.026  0.00  0.00    +0.142 C 
ENDROOT
BRANCH   1   2
ATOM      2  N   UNL     1       1.036   3.415   0.010  0.00  0.00    -0.324 N 
ATOM      3  C   UNL     1       1.101   2.025   0.002  0.00  0.00    +0.133 A 
ATOM      4  C   UNL     1       2.342   1.394  -0.013  0.00  0.00    +0.059 A 
ATOM      5  C   UNL     1       2.393   0.011  -0.020  0.00  0.00    +0.035 A 
ATOM      6  C   UNL     1       1.197  -0.696  -0.013  0.00  0.00    +0.037 A 
ATOM      7  C   UNL     1       0.002  -0.004   0.002  0.00  0.00    +0.128 A 
ATOM      8  N   UNL     1      -0.016   1.316   0.009  0.00  0.00    -0.238 NA
ATOM      9 BR   UNL     1       1.205  -2.587  -0.023  0.00  0.00    -0.049 Br
ATOM     10 BR   UNL     1       3.936   2.412  -0.022  0.00  0.00    -0.047 Br
ATOM     11  H   UNL     1       1.961   4.009   0.004  0.00  0.00    +0.148 HD
ENDBRANCH   1   2
BRANCH   1  15
ATOM     12  C   UNL     1       0.315   8.322   0.042  0.00  0.00    +0.019 A 
ATOM     13  C   UNL     1       0.416   7.619  -1.143  0.00  0.00    +0.047 A 
ATOM     14  C   UNL     1       0.228   6.245  -1.151  0.00  0.00    +0.122 A 
ATOM     15  C   UNL     1      -0.062   5.579   0.031  0.00  0.00    +0.012 A 
ATOM     16  C   UNL     1      -0.168   6.287   1.213  0.00  0.00    +0.024 A 
ATOM     17  C   UNL     1       0.025   7.657   1.219  0.00  0.00    +0.018 A 
ATOM     18 BR   UNL     1      -0.113   8.622   2.839  0.00  0.00    -0.050 Br
BRANCH  14  19
ATOM     19  O   UNL     1       0.327   5.551  -2.316  0.00  0.00    -0.506 OA
ATOM     20  H   UNL     1       0.178   4.461  -2.321  0.00  0.00    +0.292 HD
ENDBRANCH  14  19
ENDBRANCH   1  15
TORSDOF 3
