REMARK  Name = ZINC12983186
REMARK  4 active torsions:
REMARK  status: ('A' for Active; 'I' for Inactive)
REMARK    1  A    between atoms: C_3  and  C_6
REMARK    2  A    between atoms: N_16  and  C_17
REMARK    3  A    between atoms: C_17  and  C_18
REMARK    4  A    between atoms: C_18  and  C_19
REMARK                            x       y       z     vdW  Elec       q    Type
REMARK                         _______ _______ _______ _____ _____    ______ ____
ROOT
ATOM      1  C   UNL     1      -1.011   0.561   2.193  0.00  0.00    +0.282 C 
ATOM      2  O   UNL     1      -0.775  -0.627   2.071  0.00  0.00    -0.267 OA
ATOM      3  N   UNL     1      -0.561   1.435   1.270  0.00  0.00    -0.292 N 
ATOM      4  C   UNL     1       0.091   0.957   0.043  0.00  0.00    +0.127 C 
ATOM      5  C   UNL     1      -0.643   1.546  -1.168  0.00  0.00    +0.128 C 
ATOM      6  N   UNL     1      -0.797   2.994  -0.965  0.00  0.00    -0.283 N 
ATOM      7  C   UNL     1      -1.453   3.471   0.260  0.00  0.00    +0.128 C 
ATOM      8  C   UNL     1      -0.719   2.882   1.471  0.00  0.00    +0.127 C 
ATOM      9  C   UNL     1      -0.345   3.867  -1.886  0.00  0.00    +0.302 C 
ATOM     10  O   UNL     1       0.283   3.466  -2.848  0.00  0.00    -0.253 OA
ATOM     11  N   UNL     1      -0.588   5.185  -1.742  0.00  0.00    -0.299 N 
ATOM     12  H   UNL     1      -1.151   5.498  -1.017  0.00  0.00    +0.150 HD
ENDROOT
BRANCH   1  15
ATOM     13  C   UNL     1      -2.886   1.152   5.268  0.00  0.00    +0.042 A 
ATOM     14  C   UNL     1      -2.175   0.293   4.415  0.00  0.00    +0.054 A 
ATOM     15  C   UNL     1      -1.784   1.042   3.343  0.00  0.00    +0.189 A 
ATOM     16  O   UNL     1      -2.228   2.302   3.528  0.00  0.00    -0.458 OA
ATOM     17  C   UNL     1      -2.898   2.371   4.686  0.00  0.00    +0.196 A 
ENDBRANCH   1  15
BRANCH  11  18
ATOM     18  C   UNL     1      -0.000   6.145  -2.679  0.00  0.00    +0.110 C 
BRANCH  18  19
ATOM     19  C   UNL     1      -0.430   7.562  -2.294  0.00  0.00    +0.054 C 
BRANCH  19  20
ATOM     20  C   UNL     1       0.175   8.550  -3.259  0.00  0.00    -0.046 A 
ATOM     21  C   UNL     1       1.411   9.107  -2.993  0.00  0.00    +0.005 A 
ATOM     22  C   UNL     1       1.969  10.009  -3.880  0.00  0.00    +0.020 A 
ATOM     23  C   UNL     1       1.284  10.362  -5.028  0.00  0.00    +0.041 A 
ATOM     24  C   UNL     1       0.043   9.809  -5.291  0.00  0.00    +0.020 A 
ATOM     25  C   UNL     1      -0.511   8.903  -4.406  0.00  0.00    +0.005 A 
ATOM     26 CL   UNL     1       1.980  11.500  -6.139  0.00  0.00    -0.084 Cl
ENDBRANCH  19  20
ENDBRANCH  18  19
ENDBRANCH  11  18
TORSDOF 4
