REMARK  Name = ZINC21135899
REMARK  13 active torsions:
REMARK  status: ('A' for Active; 'I' for Inactive)
REMARK    1  A    between atoms: C_1  and  C_2
REMARK    2  A    between atoms: C_2  and  C_4
REMARK    3  A    between atoms: C_2  and  S_14
REMARK    4  A    between atoms: N_6  and  C_7
REMARK    5  A    between atoms: C_7  and  C_8
REMARK    6  A    between atoms: C_7  and  C_9
REMARK    7  A    between atoms: C_7  and  C_11
REMARK    8  A    between atoms: C_11  and  C_12
REMARK    9  A    between atoms: C_11  and  C_13
REMARK   10  A    between atoms: S_14  and  C_15
REMARK   11  A    between atoms: N_25  and  C_26
REMARK   12  A    between atoms: C_31  and  O_32
REMARK   13  A    between atoms: O_32  and  C_33
REMARK                            x       y       z     vdW  Elec       q    Type
REMARK                         _______ _______ _______ _____ _____    ______ ____
ROOT
ATOM      1  C   UNL     1      -0.136  -0.087   2.816  0.00  0.00    +0.178 A 
ATOM      2  N   UNL     1      -1.238   0.570   2.549  0.00  0.00    -0.223 NA
ATOM      3  C   UNL     1      -2.063   0.996   3.534  0.00  0.00    +0.080 A 
ATOM      4  C   UNL     1      -3.239   1.696   3.252  0.00  0.00    +0.048 A 
ATOM      5  C   UNL     1      -4.048   2.110   4.287  0.00  0.00    +0.043 A 
ATOM      6  C   UNL     1      -3.708   1.840   5.608  0.00  0.00    +0.021 A 
ATOM      7  C   UNL     1      -2.563   1.158   5.909  0.00  0.00    +0.017 A 
ATOM      8  C   UNL     1      -1.726   0.726   4.881  0.00  0.00    +0.065 A 
ATOM      9  C   UNL     1      -0.485  -0.012   5.150  0.00  0.00    +0.267 A 
ATOM     10  O   UNL     1      -0.142  -0.274   6.289  0.00  0.00    -0.267 OA
ATOM     11  N   UNL     1       0.260  -0.394   4.088  0.00  0.00    -0.252 N 
ATOM     12 CL   UNL     1      -5.510   2.980   3.938  0.00  0.00    -0.083 Cl
ENDROOT
BRANCH  11  13
ATOM     13  C   UNL     1       1.451  -1.105   4.293  0.00  0.00    +0.093 A 
ATOM     14  C   UNL     1       2.648  -0.424   4.461  0.00  0.00    +0.030 A 
ATOM     15  C   UNL     1       3.820  -1.127   4.664  0.00  0.00    +0.002 A 
ATOM     16  C   UNL     1       3.804  -2.510   4.700  0.00  0.00    +0.004 A 
ATOM     17  C   UNL     1       2.615  -3.195   4.533  0.00  0.00    +0.048 A 
ATOM     18  C   UNL     1       1.434  -2.497   4.335  0.00  0.00    +0.144 A 
BRANCH  18  19
ATOM     19  O   UNL     1       0.264  -3.170   4.177  0.00  0.00    -0.493 OA
ATOM     20  C   UNL     1       0.323  -4.596   4.232  0.00  0.00    +0.277 C 
ENDBRANCH  18  19
ENDBRANCH  11  13
BRANCH   1  21
ATOM     21  S   UNL     1       0.879  -0.605   1.472  0.00  0.00    -0.075 S 
BRANCH  21  23
ATOM     22  C   UNL     1      -0.019   1.526   0.010  0.00  0.00    +0.029 C 
ATOM     23  C   UNL     1       0.002  -0.004   0.002  0.00  0.00    +0.137 C 
BRANCH  23  24
ATOM     24  C   UNL     1       0.707  -0.490  -1.238  0.00  0.00    +0.227 C 
ATOM     25  O   UNL     1       1.864  -0.849  -1.176  0.00  0.00    -0.275 OA
ATOM     26  N   UNL     1       0.053  -0.526  -2.415  0.00  0.00    -0.296 N 
ATOM     27  H   UNL     1      -0.873  -0.239  -2.465  0.00  0.00    +0.150 HD
BRANCH  26  28
ATOM     28  C   UNL     1       0.738  -0.999  -3.621  0.00  0.00    +0.121 C 
ATOM     29  C   UNL     1       1.951  -0.109  -3.899  0.00  0.00    +0.048 C 
BRANCH  28  30
ATOM     30  C   UNL     1      -0.222  -0.939  -4.810  0.00  0.00    +0.020 C 
ATOM     31  C   UNL     1      -0.588   0.519  -5.098  0.00  0.00    +0.010 C 
ATOM     32  C   UNL     1       0.453  -1.548  -6.041  0.00  0.00    +0.010 C 
ENDBRANCH  28  30
BRANCH  28  33
ATOM     33  C   UNL     1       1.184  -2.387  -3.419  0.00  0.00    +0.088 C 
ATOM     34  N   UNL     1       1.528  -3.458  -3.264  0.00  0.00    -0.194 NA
ENDBRANCH  28  33
ENDBRANCH  26  28
ENDBRANCH  23  24
ENDBRANCH  21  23
ENDBRANCH   1  21
TORSDOF 8
