REMARK  Name = ZINC36567455
REMARK  18 active torsions:
REMARK  status: ('A' for Active; 'I' for Inactive)
REMARK    1  A    between atoms: C_1  and  C_2
REMARK    2  A    between atoms: C_2  and  C_3
REMARK    3  A    between atoms: C_3  and  N_4
REMARK    4  A    between atoms: N_4  and  C_5
REMARK    5  A    between atoms: C_5  and  C_7
REMARK    6  A    between atoms: C_5  and  C_15
REMARK    7  A    between atoms: C_10  and  O_13
REMARK    8  A    between atoms: O_13  and  C_14
REMARK    9  A    between atoms: N_17  and  C_18
REMARK   10  A    between atoms: C_18  and  C_19
REMARK   11  A    between atoms: C_18  and  C_20
REMARK   12  A    between atoms: C_18  and  C_21
REMARK   13  A    between atoms: C_21  and  C_22
REMARK   14  A    between atoms: C_22  and  C_23
REMARK   15  A    between atoms: C_22  and  C_24
REMARK   16  A    between atoms: C_22  and  C_25
REMARK   17  A    between atoms: C_26  and  C_28
REMARK   18  A    between atoms: C_28  and  C_29
REMARK                            x       y       z     vdW  Elec       q    Type
REMARK                         _______ _______ _______ _____ _____    ______ ____
ROOT
ATOM      1  C   UNL     1      -0.075  -2.166   1.738  0.00  0.00    +0.192 C 
ENDROOT
BRANCH   1   2
ATOM      2  C   UNL     1      -1.227  -1.397   2.332  0.00  0.00    -0.018 A 
ATOM      3  C   UNL     1      -1.081  -0.054   2.628  0.00  0.00    +0.009 A 
ATOM      4  C   UNL     1      -2.136   0.652   3.174  0.00  0.00    +0.046 A 
ATOM      5  C   UNL     1      -3.342   0.013   3.424  0.00  0.00    +0.120 A 
ATOM      6  C   UNL     1      -3.485  -1.334   3.125  0.00  0.00    +0.046 A 
ATOM      7  C   UNL     1      -2.430  -2.035   2.575  0.00  0.00    +0.009 A 
BRANCH   5   8
ATOM      8  O   UNL     1      -4.380   0.706   3.961  0.00  0.00    -0.495 OA
ATOM      9  C   UNL     1      -5.592  -0.016   4.191  0.00  0.00    +0.277 C 
ENDBRANCH   5   8
ENDBRANCH   1   2
BRANCH   1  10
ATOM     10  C   UNL     1       0.949  -2.443   2.808  0.00  0.00    +0.238 C 
ATOM     11  O   UNL     1       2.063  -1.971   2.719  0.00  0.00    -0.273 OA
ATOM     12  N   UNL     1       0.628  -3.216   3.864  0.00  0.00    -0.308 N 
ATOM     13  H   UNL     1      -0.263  -3.594   3.935  0.00  0.00    +0.149 HD
BRANCH  12  14
ATOM     14  C   UNL     1       1.623  -3.486   4.904  0.00  0.00    +0.030 C 
ATOM     15  C   UNL     1       2.759  -4.327   4.317  0.00  0.00    +0.031 C 
ATOM     16  C   UNL     1       2.186  -2.163   5.427  0.00  0.00    +0.031 C 
BRANCH  14  17
ATOM     17  C   UNL     1       0.964  -4.250   6.055  0.00  0.00    +0.031 C 
BRANCH  17  18
ATOM     18  C   UNL     1      -0.456  -3.723   6.270  0.00  0.00    -0.036 C 
ATOM     19  C   UNL     1      -1.417  -4.447   5.325  0.00  0.00    +0.010 C 
ATOM     20  C   UNL     1      -0.879  -3.973   7.719  0.00  0.00    +0.010 C 
ATOM     21  C   UNL     1      -0.491  -2.221   5.980  0.00  0.00    +0.010 C 
ENDBRANCH  17  18
ENDBRANCH  14  17
ENDBRANCH  12  14
ENDBRANCH   1  10
BRANCH   1  22
ATOM     22  N   UNL     1       0.539  -1.375   0.667  0.00  0.00    -0.286 N 
ATOM     23  C   UNL     1      -0.115  -1.195  -0.497  0.00  0.00    +0.221 C 
ATOM     24  O   UNL     1      -1.212  -1.687  -0.659  0.00  0.00    -0.275 OA
BRANCH  22  25
ATOM     25  C   UNL     1       1.864  -0.781   0.863  0.00  0.00    +0.108 C 
BRANCH  25  27
ATOM     26  C   UNL     1       4.320  -1.146   0.592  0.00  0.00    +0.005 C 
ATOM     27  C   UNL     1       2.940  -1.794   0.468  0.00  0.00    +0.016 C 
ENDBRANCH  25  27
ENDBRANCH  22  25
BRANCH  23  28
ATOM     28  C   UNL     1       0.516  -0.382  -1.598  0.00  0.00    +0.131 C 
BRANCH  28  29
ATOM     29  C   UNL     1      -0.413  -0.334  -2.783  0.00  0.00    -0.039 A 
ATOM     30  C   UNL     1      -0.334  -1.306  -3.763  0.00  0.00    +0.005 A 
ATOM     31  C   UNL     1      -1.187  -1.262  -4.850  0.00  0.00    +0.015 A 
ATOM     32  C   UNL     1      -2.119  -0.246  -4.957  0.00  0.00    +0.018 A 
ATOM     33  C   UNL     1      -2.198   0.726  -3.976  0.00  0.00    +0.015 A 
ATOM     34  C   UNL     1      -1.349   0.679  -2.887  0.00  0.00    +0.005 A 
ATOM     35 BR   UNL     1      -3.286  -0.186  -6.445  0.00  0.00    -0.050 Br
ENDBRANCH  28  29
ENDBRANCH  23  28
ENDBRANCH   1  22
TORSDOF 11
