REMARK  Name = ZINC63044602
REMARK  6 active torsions:
REMARK  status: ('A' for Active; 'I' for Inactive)
REMARK    1  A    between atoms: C_1  and  C_2
REMARK    2  A    between atoms: C_2  and  C_3
REMARK    3  A    between atoms: C_3  and  C_5
REMARK    4  A    between atoms: C_3  and  C_15
REMARK    5  A    between atoms: C_10  and  N_11
REMARK    6  A    between atoms: C_15  and  C_17
REMARK                            x       y       z     vdW  Elec       q    Type
REMARK                         _______ _______ _______ _____ _____    ______ ____
ROOT
ATOM      1  C   UNL     1       2.173  -0.216  -1.013  0.00  0.00    -0.013 A 
ATOM      2  C   UNL     1       2.518  -0.092   0.321  0.00  0.00    +0.007 A 
ATOM      3  C   UNL     1       3.442   0.859   0.710  0.00  0.00    +0.020 A 
ATOM      4  C   UNL     1       4.021   1.688  -0.235  0.00  0.00    +0.043 A 
ATOM      5  C   UNL     1       3.676   1.563  -1.568  0.00  0.00    +0.053 A 
ATOM      6  C   UNL     1       2.756   0.607  -1.957  0.00  0.00    +0.131 A 
ATOM      7 CL   UNL     1       5.181   2.883   0.254  0.00  0.00    -0.083 Cl
ENDROOT
BRANCH   6   8
ATOM      8  N   UNL     1       2.391   0.469  -3.385  0.00  0.00    +0.057 N 
ATOM      9  O   UNL     1       3.176   0.797  -4.244  0.00  0.00    -0.126 OA
ATOM     10  O   UNL     1       1.308   0.029  -3.692  0.00  0.00    -0.126 OA
ENDBRANCH   6   8
BRANCH   1  11
ATOM     11  C   UNL     1       1.166  -1.254  -1.437  0.00  0.00    +0.034 C 
BRANCH  11  12
ATOM     12  C   UNL     1       1.832  -2.632  -1.458  0.00  0.00    +0.061 C 
ATOM     13  C   UNL     1       2.883  -2.673  -2.569  0.00  0.00    +0.020 C 
ATOM     14 BR   UNL     1       2.697  -2.969   0.275  0.00  0.00    -0.088 Br
ENDBRANCH  11  12
BRANCH  11  16
ATOM     15  C   UNL     1      -0.743   0.069  -0.516  0.00  0.00    +0.004 C 
ATOM     16  C   UNL     1      -0.000  -1.268  -0.447  0.00  0.00    +0.006 C 
ENDBRANCH  11  16
ENDBRANCH   1  11
TORSDOF 4
