REMARK  Name = ZINC22786085
REMARK  6 active torsions:
REMARK  status: ('A' for Active; 'I' for Inactive)
REMARK    1  A    between atoms: C_8  and  C_10
REMARK    2  A    between atoms: C_10  and  N_11
REMARK    3  A    between atoms: N_14  and  C_17
REMARK    4  A    between atoms: C_17  and  C_18
REMARK    5  A    between atoms: N_20  and  C_21
REMARK    6  A    between atoms: C_21  and  C_22
REMARK                            x       y       z     vdW  Elec       q    Type
REMARK                         _______ _______ _______ _____ _____    ______ ____
ROOT
ATOM      1  N   UNL     1      -1.138  -9.031  -1.573  0.00  0.00    -0.300 NA
ATOM      2  C   UNL     1      -2.375  -8.354  -1.158  0.00  0.00    +0.066 C 
ATOM      3  C   UNL     1      -2.337  -6.897  -1.624  0.00  0.00    -0.063 C 
ATOM      4  N   UNL     1      -1.159  -6.232  -1.050  0.00  0.00    +0.387 N 
ATOM      5  C   UNL     1       0.078  -6.909  -1.466  0.00  0.00    -0.063 C 
ATOM      6  C   UNL     1       0.040  -8.366  -1.000  0.00  0.00    +0.066 C 
ATOM      7  H   UNL     1      -1.231  -6.299   0.045  0.00  0.00    -0.081 HD
ENDROOT
BRANCH   1   8
ATOM      8  C   UNL     1      -1.169 -10.454  -1.210  0.00  0.00    +0.147 C 
BRANCH   8  16
ATOM      9  C   UNL     1       4.628 -12.482  -0.602  0.00  0.00    +0.002 A 
ATOM     10  C   UNL     1       4.672 -12.958  -1.905  0.00  0.00    +0.001 A 
ATOM     11  C   UNL     1       3.563 -12.816  -2.717  0.00  0.00    +0.017 A 
ATOM     12  C   UNL     1       2.437 -12.206  -2.220  0.00  0.00    +0.039 A 
ATOM     13  C   UNL     1       2.364 -11.710  -0.899  0.00  0.00    +0.079 A 
ATOM     14  C   UNL     1       3.518 -11.875  -0.101  0.00  0.00    +0.029 A 
ATOM     15  N   UNL     1       1.184 -11.140  -0.579  0.00  0.00    -0.243 NA
ATOM     16  C   UNL     1       0.195 -11.057  -1.424  0.00  0.00    +0.093 A 
ATOM     17  S   UNL     1       0.826 -11.813  -2.854  0.00  0.00    -0.071 S 
ENDBRANCH   8  16
ENDBRANCH   1   8
BRANCH   4  18
ATOM     18  C   UNL     1      -1.128  -4.809  -1.414  0.00  0.00    +0.019 C 
BRANCH  18  19
ATOM     19  C   UNL     1      -0.056  -4.111  -0.617  0.00  0.00    +0.197 C 
ATOM     20  O   UNL     1       0.616  -4.737   0.175  0.00  0.00    -0.278 OA
ATOM     21  N   UNL     1       0.155  -2.790  -0.785  0.00  0.00    -0.313 N 
ATOM     22  H   UNL     1      -0.454  -2.223  -1.504  0.00  0.00    +0.149 HD
BRANCH  21  23
ATOM     23  C   UNL     1       1.197  -2.111  -0.011  0.00  0.00    +0.152 C 
BRANCH  23  24
ATOM     24  C   UNL     1       1.229  -0.629  -0.390  0.00  0.00    +0.228 C 
ATOM     25  C   UNL     1       2.381   0.069   0.348  0.00  0.00    +0.275 C 
ATOM     26  O   UNL     1       2.373   1.453  -0.018  0.00  0.00    -0.485 OA
ATOM     27  C   UNL     1       1.168   2.084   0.002  0.00  0.00    +0.162 A 
ATOM     28  C   UNL     1       1.126   3.471   0.014  0.00  0.00    +0.049 A 
ATOM     29  C   UNL     1      -0.091   4.126   0.030  0.00  0.00    +0.004 A 
ATOM     30  C   UNL     1      -1.269   3.403   0.034  0.00  0.00    +0.004 A 
ATOM     31  C   UNL     1      -1.234   2.021   0.030  0.00  0.00    +0.049 A 
ATOM     32  C   UNL     1      -0.016   1.357   0.009  0.00  0.00    +0.163 A 
ATOM     33  O   UNL     1       0.002  -0.004   0.002  0.00  0.00    -0.480 OA
ENDBRANCH  23  24
ENDBRANCH  21  23
ENDBRANCH  18  19
ENDBRANCH   4  18
TORSDOF 6
