REMARK  Name = ZINC15002785
REMARK  10 active torsions:
REMARK  status: ('A' for Active; 'I' for Inactive)
REMARK    1  A    between atoms: C_1  and  C_2
REMARK    2  A    between atoms: C_6  and  C_8
REMARK    3  A    between atoms: C_13  and  C_14
REMARK    4  A    between atoms: C_14  and  O_16
REMARK    5  A    between atoms: O_16  and  C_17
REMARK    6  A    between atoms: C_19  and  C_22
REMARK    7  A    between atoms: C_22  and  N_23
REMARK    8  A    between atoms: C_24  and  C_26
REMARK    9  A    between atoms: C_26  and  C_28
REMARK   10  A    between atoms: C_26  and  C_29
REMARK                            x       y       z     vdW  Elec       q    Type
REMARK                         _______ _______ _______ _____ _____    ______ ____
ROOT
ATOM      1  C   UNL     1       5.718  15.783  -1.631  0.00  0.00    +0.044 C 
ATOM      2  C   UNL     1       5.186  14.379  -1.503  0.00  0.00    -0.049 A 
ATOM      3  C   UNL     1       4.175  14.101  -0.598  0.00  0.00    +0.010 A 
ATOM      4  C   UNL     1       3.684  12.819  -0.477  0.00  0.00    -0.001 A 
ATOM      5  C   UNL     1       4.184  11.789  -1.260  0.00  0.00    +0.132 A 
ATOM      6  C   UNL     1       5.212  12.072  -2.174  0.00  0.00    +0.025 A 
ATOM      7  C   UNL     1       5.704  13.370  -2.287  0.00  0.00    +0.015 A 
ATOM      8  O   UNL     1       3.554  10.614  -0.992  0.00  0.00    -0.486 OA
ATOM      9  C   UNL     1       2.908  10.704   0.290  0.00  0.00    +0.195 C 
ATOM     10  C   UNL     1       2.619  12.219   0.420  0.00  0.00    +0.085 C 
ENDROOT
BRANCH   6  11
ATOM     11  C   UNL     1       5.773  10.991  -3.016  0.00  0.00    -0.000 A 
ATOM     12  C   UNL     1       7.100  10.598  -2.861  0.00  0.00    +0.009 A 
ATOM     13  C   UNL     1       7.618   9.591  -3.648  0.00  0.00    +0.001 A 
ATOM     14  C   UNL     1       6.827   8.963  -4.597  0.00  0.00    +0.001 A 
ATOM     15  C   UNL     1       5.511   9.337  -4.766  0.00  0.00    +0.015 A 
ATOM     16  C   UNL     1       4.967  10.351  -3.975  0.00  0.00    +0.067 A 
BRANCH  16  17
ATOM     17  C   UNL     1       3.558  10.751  -4.147  0.00  0.00    +0.340 C 
ATOM     18  O   UNL     1       3.090  11.636  -3.460  0.00  0.00    -0.245 OA
BRANCH  17  19
ATOM     19  O   UNL     1       2.790  10.134  -5.067  0.00  0.00    -0.464 OA
ATOM     20  C   UNL     1       1.413  10.579  -5.181  0.00  0.00    +0.280 C 
ENDBRANCH  17  19
ENDBRANCH  16  17
ENDBRANCH   6  11
BRANCH   9  21
ATOM     21  C   UNL     1       1.606   9.901   0.298  0.00  0.00    +0.149 C 
BRANCH  21  22
ATOM     22  N   UNL     1       1.912   8.474   0.169  0.00  0.00    -0.311 N 
ATOM     23  C   UNL     1       0.914   7.569   0.153  0.00  0.00    +0.222 C 
ATOM     24  O   UNL     1      -0.239   7.936   0.246  0.00  0.00    -0.275 OA
ATOM     25  H   UNL     1       2.834   8.180   0.095  0.00  0.00    +0.149 HD
BRANCH  23  26
ATOM     26  C   UNL     1       1.228   6.101   0.020  0.00  0.00    +0.123 C 
ATOM     27  C   UNL     1       1.970   5.856  -1.296  0.00  0.00    +0.024 C 
BRANCH  26  28
ATOM     28  C   UNL     1      -0.054   5.310   0.028  0.00  0.00    +0.081 A 
ATOM     29  C   UNL     1      -0.011   3.847   0.021  0.00  0.00    +0.011 A 
ATOM     30  C   UNL     1       1.197   3.146   0.007  0.00  0.00    +0.010 A 
ATOM     31  C   UNL     1       1.185   1.779   0.000  0.00  0.00    +0.001 A 
ATOM     32  C   UNL     1      -0.013   1.076   0.008  0.00  0.00    +0.001 A 
ATOM     33  C   UNL     1      -1.219   1.741   0.017  0.00  0.00    +0.014 A 
ATOM     34  C   UNL     1      -1.232   3.135   0.030  0.00  0.00    +0.050 A 
ATOM     35  C   UNL     1      -2.483   3.902   0.045  0.00  0.00    +0.272 A 
ATOM     36  O   UNL     1      -3.560   3.333   0.052  0.00  0.00    -0.266 OA
ATOM     37  N   UNL     1      -2.418   5.250   0.051  0.00  0.00    -0.242 N 
ATOM     38  H   UNL     1      -3.242   5.762   0.061  0.00  0.00    +0.192 HD
ATOM     39  N   UNL     1      -1.198   5.926   0.042  0.00  0.00    -0.175 NA
ENDBRANCH  26  28
ENDBRANCH  23  26
ENDBRANCH  21  22
ENDBRANCH   9  21
TORSDOF 7
