REMARK  Name = ZINC45548395
REMARK  5 active torsions:
REMARK  status: ('A' for Active; 'I' for Inactive)
REMARK    1  A    between atoms: C_1  and  C_2
REMARK    2  A    between atoms: C_15  and  C_17
REMARK    3  A    between atoms: C_17  and  C_19
REMARK    4  A    between atoms: C_17  and  N_20
REMARK    5  A    between atoms: C_23  and  C_26
REMARK                            x       y       z     vdW  Elec       q    Type
REMARK                         _______ _______ _______ _____ _____    ______ ____
ROOT
ATOM      1  C   UNL     1      -0.986   1.735   1.595  0.00  0.00    +0.008 C 
ATOM      2  C   UNL     1      -0.826   0.235   1.340  0.00  0.00    -0.009 C 
ATOM      3  C   UNL     1      -2.205  -0.430   1.304  0.00  0.00    +0.008 C 
ATOM      4  C   UNL     1      -2.075  -1.869   0.807  0.00  0.00    +0.037 C 
ATOM      5  C   UNL     1      -1.024  -2.589   1.648  0.00  0.00    -0.023 A 
ATOM      6  C   UNL     1      -0.124  -1.885   2.374  0.00  0.00    -0.004 A 
ATOM      7  S   UNL     1       0.883  -3.107   3.177  0.00  0.00    -0.073 S 
ATOM      8  C   UNL     1       0.098  -4.553   2.541  0.00  0.00    +0.116 A 
ATOM      9  C   UNL     1      -0.928  -4.036   1.719  0.00  0.00    +0.075 A 
ATOM     10  C   UNL     1      -1.765  -4.988   1.045  0.00  0.00    +0.260 A 
ATOM     11  O   UNL     1      -2.677  -4.645   0.313  0.00  0.00    -0.267 OA
ATOM     12  N   UNL     1      -1.475  -6.291   1.273  0.00  0.00    -0.312 N 
ATOM     13  H   UNL     1      -2.015  -6.968   0.837  0.00  0.00    +0.170 HD
ATOM     14  C   UNL     1      -0.465  -6.692   2.082  0.00  0.00    +0.097 A 
ATOM     15  N   UNL     1       0.322  -5.852   2.717  0.00  0.00    -0.228 NA
ATOM     16  C   UNL     1      -0.003  -0.395   2.472  0.00  0.00    +0.046 C 
ENDROOT
BRANCH  14  17
ATOM     17  C   UNL     1      -0.234  -8.170   2.263  0.00  0.00    -0.004 C 
ATOM     18  C   UNL     1      -0.088  -8.835   0.893  0.00  0.00    -0.005 C 
BRANCH  17  19
ATOM     19  N   UNL     1       0.993  -8.382   3.043  0.00  0.00    +0.386 N 
ATOM     20  C   UNL     1       2.150  -7.922   2.267  0.00  0.00    -0.077 C 
ATOM     21  C   UNL     1       3.422  -8.065   3.106  0.00  0.00    -0.011 C 
ATOM     22  C   UNL     1       3.613  -9.536   3.487  0.00  0.00    +0.016 C 
ATOM     23  C   UNL     1       2.368 -10.026   4.231  0.00  0.00    -0.011 C 
ATOM     24  C   UNL     1       1.135  -9.810   3.350  0.00  0.00    -0.077 C 
ATOM     25  H   UNL     1       0.938  -7.858   3.904  0.00  0.00    -0.081 HD
BRANCH  22  26
ATOM     26  C   UNL     1       4.820  -9.673   4.378  0.00  0.00    -0.044 A 
ATOM     27  C   UNL     1       4.862  -9.012   5.592  0.00  0.00    +0.004 A 
ATOM     28  C   UNL     1       5.969  -9.138   6.410  0.00  0.00    +0.000 A 
ATOM     29  C   UNL     1       7.034  -9.925   6.014  0.00  0.00    +0.000 A 
ATOM     30  C   UNL     1       6.992 -10.587   4.801  0.00  0.00    +0.000 A 
ATOM     31  C   UNL     1       5.883 -10.464   3.985  0.00  0.00    +0.004 A 
ENDBRANCH  22  26
ENDBRANCH  17  19
ENDBRANCH  14  17
TORSDOF 3
