REMARK  Name = ZINC67335812
REMARK  6 active torsions:
REMARK  status: ('A' for Active; 'I' for Inactive)
REMARK    1  A    between atoms: C_3  and  C_8
REMARK    2  A    between atoms: C_11  and  N_13
REMARK    3  A    between atoms: C_14  and  C_16
REMARK    4  A    between atoms: C_16  and  C_17
REMARK    5  A    between atoms: C_17  and  C_19
REMARK    6  A    between atoms: C_17  and  N_24
REMARK                            x       y       z     vdW  Elec       q    Type
REMARK                         _______ _______ _______ _____ _____    ______ ____
ROOT
ATOM      1  N   UNL     1       5.387   3.124  -1.674  0.00  0.00    -0.312 N 
ATOM      2  C   UNL     1       5.824   3.171  -2.948  0.00  0.00    +0.215 C 
ATOM      3  O   UNL     1       5.578   2.257  -3.707  0.00  0.00    -0.276 OA
ATOM      4  H   UNL     1       5.584   3.855  -1.067  0.00  0.00    +0.149 HD
ENDROOT
BRANCH   1   7
ATOM      5  C   UNL     1       3.672   2.186  -0.021  0.00  0.00    +0.041 C 
ATOM      6  C   UNL     1       4.968   1.396   0.169  0.00  0.00    +0.033 C 
ATOM      7  C   UNL     1       4.616   1.970  -1.206  0.00  0.00    +0.081 C 
BRANCH   5  10
ATOM      8  C   UNL     1      -0.017   1.377   0.010  0.00  0.00    +0.003 A 
ATOM      9  C   UNL     1       1.171   2.086   0.002  0.00  0.00    +0.004 A 
ATOM     10  C   UNL     1       2.378   1.413  -0.013  0.00  0.00    -0.040 A 
ATOM     11  C   UNL     1       2.399   0.030  -0.021  0.00  0.00    +0.042 A 
ATOM     12  C   UNL     1       1.211  -0.679  -0.013  0.00  0.00    +0.124 A 
ATOM     13  C   UNL     1       0.002  -0.004   0.002  0.00  0.00    +0.038 A 
ATOM     14  F   UNL     1       1.230  -2.030  -0.022  0.00  0.00    -0.205 F 
ENDBRANCH   5  10
ENDBRANCH   1   7
BRANCH   2  15
ATOM     15  C   UNL     1       6.617   4.358  -3.430  0.00  0.00    +0.123 C 
BRANCH  15  16
ATOM     16  C   UNL     1       6.987   4.161  -4.902  0.00  0.00    +0.120 C 
BRANCH  16  17
ATOM     17  N   UNL     1       7.890   3.014  -5.029  0.00  0.00    -0.292 N 
ATOM     18  C   UNL     1       7.957   2.335  -6.192  0.00  0.00    +0.298 C 
ATOM     19  O   UNL     1       7.270   2.675  -7.135  0.00  0.00    -0.253 OA
ATOM     20  N   UNL     1       8.788   1.280  -6.309  0.00  0.00    -0.313 N 
ATOM     21  H   UNL     1       8.438   2.742  -4.277  0.00  0.00    +0.151 HD
ATOM     22  H   UNL     1       9.336   1.009  -5.556  0.00  0.00    +0.146 HD
ATOM     23  H   UNL     1       8.836   0.792  -7.146  0.00  0.00    +0.146 HD
ENDBRANCH  16  17
BRANCH  16  24
ATOM     24  C   UNL     1       7.673   5.399  -5.418  0.00  0.00    +0.010 A 
ATOM     25  C   UNL     1       7.160   6.416  -6.152  0.00  0.00    +0.013 A 
ATOM     26  C   UNL     1       7.986   7.463  -6.517  0.00  0.00    +0.008 A 
ATOM     27  C   UNL     1       9.284   7.442  -6.128  0.00  0.00    +0.045 A 
ATOM     28  S   UNL     1       9.371   5.912  -5.213  0.00  0.00    -0.100 S 
ENDBRANCH  16  24
ENDBRANCH  15  16
ENDBRANCH   2  15
TORSDOF 6
