REMARK  Name = ZINC63808650
REMARK  6 active torsions:
REMARK  status: ('A' for Active; 'I' for Inactive)
REMARK    1  A    between atoms: C_1  and  O_2
REMARK    2  A    between atoms: O_2  and  C_3
REMARK    3  A    between atoms: C_7  and  C_9
REMARK    4  A    between atoms: N_15  and  C_17
REMARK    5  A    between atoms: C_17  and  C_18
REMARK    6  A    between atoms: C_18  and  N_20
REMARK                            x       y       z     vdW  Elec       q    Type
REMARK                         _______ _______ _______ _____ _____    ______ ____
ROOT
ATOM      1  C   UNL     1       1.389  -4.130   2.211  0.00  0.00    +0.126 C 
ATOM      2  C   UNL     1       2.741  -4.589   1.730  0.00  0.00    +0.003 C 
ATOM      3  C   UNL     1       3.749  -4.647   2.606  0.00  0.00    +0.066 C 
ATOM      4  C   UNL     1       3.469  -4.255   4.001  0.00  0.00    +0.253 C 
ATOM      5  O   UNL     1       4.378  -3.973   4.758  0.00  0.00    -0.269 OA
ATOM      6  N   UNL     1       2.188  -4.216   4.421  0.00  0.00    -0.224 N 
ATOM      7  N   UNL     1       1.173  -4.573   3.591  0.00  0.00    -0.226 NA
ATOM      8  H   UNL     1       1.006  -5.567   3.630  0.00  0.00    +0.146 HD
ENDROOT
BRANCH   1  13
ATOM      9  C   UNL     1       0.626  -0.618   1.042  0.00  0.00    +0.120 A 
ATOM     10  C   UNL     1       1.202   0.139   2.051  0.00  0.00    +0.045 A 
ATOM     11  C   UNL     1       1.835  -0.488   3.107  0.00  0.00    +0.004 A 
ATOM     12  C   UNL     1       1.895  -1.869   3.158  0.00  0.00    +0.006 A 
ATOM     13  C   UNL     1       1.321  -2.625   2.153  0.00  0.00    -0.022 A 
ATOM     14  C   UNL     1       0.682  -2.003   1.097  0.00  0.00    +0.051 A 
BRANCH   9  16
ATOM     15  C   UNL     1      -0.017   1.425   0.010  0.00  0.00    +0.277 C 
ATOM     16  O   UNL     1       0.002  -0.004   0.002  0.00  0.00    -0.495 OA
ENDBRANCH   9  16
ENDBRANCH   1  13
BRANCH   6  17
ATOM     17  C   UNL     1       1.889  -3.785   5.789  0.00  0.00    +0.225 C 
BRANCH  17  18
ATOM     18  C   UNL     1       2.013  -4.960   6.725  0.00  0.00    +0.257 C 
ATOM     19  O   UNL     1       2.321  -6.053   6.291  0.00  0.00    -0.272 OA
BRANCH  18  20
ATOM     20  N   UNL     1       1.784  -4.802   8.024  0.00  0.00    -0.155 NA
ATOM     21  C   UNL     1       1.893  -5.840   8.851  0.00  0.00    +0.164 A 
ATOM     22  N   UNL     1       1.693  -5.859  10.193  0.00  0.00    -0.335 N 
ATOM     23  H   UNL     1       1.437  -5.048  10.658  0.00  0.00    +0.168 HD
ATOM     24  C   UNL     1       1.853  -7.039  10.894  0.00  0.00    +0.055 A 
ATOM     25  C   UNL     1       1.698  -7.282  12.266  0.00  0.00    +0.027 A 
ATOM     26  C   UNL     1       1.904  -8.539  12.783  0.00  0.00    +0.002 A 
ATOM     27  C   UNL     1       2.269  -9.598  11.968  0.00  0.00    +0.001 A 
ATOM     28  C   UNL     1       2.428  -9.386  10.610  0.00  0.00    +0.017 A 
ATOM     29  C   UNL     1       2.222  -8.129  10.093  0.00  0.00    +0.039 A 
ATOM     30  S   UNL     1       2.304  -7.424   8.467  0.00  0.00    -0.052 S 
ENDBRANCH  18  20
ENDBRANCH  17  18
ENDBRANCH   6  17
TORSDOF 5
