REMARK  Name = ZINC12510706
REMARK  7 active torsions:
REMARK  status: ('A' for Active; 'I' for Inactive)
REMARK    1  A    between atoms: C_1  and  C_2
REMARK    2  A    between atoms: C_2  and  N_3
REMARK    3  A    between atoms: C_14  and  C_16
REMARK    4  A    between atoms: C_16  and  N_73
REMARK    5  A    between atoms: N_19  and  C_22
REMARK    6  A    between atoms: N_30  and  C_33
REMARK    7  A    between atoms: C_33  and  C_34
REMARK                            x       y       z     vdW  Elec       q    Type
REMARK                         _______ _______ _______ _____ _____    ______ ____
ROOT
ATOM      1  C   UNL     1       0.170   9.753  -2.023  0.00  0.00    -0.059 C 
ATOM      2  C   UNL     1      -0.159  10.097  -3.478  0.00  0.00    +0.086 C 
ATOM      3  N   UNL     1      -1.169  11.164  -3.510  0.00  0.00    -0.333 N 
ATOM      4  C   UNL     1      -2.396  10.745  -2.819  0.00  0.00    +0.086 C 
ATOM      5  C   UNL     1      -2.067  10.401  -1.364  0.00  0.00    -0.059 C 
ATOM      6  N   UNL     1      -1.068   9.312  -1.346  0.00  0.00    +0.384 N 
ATOM      7  H   UNL     1      -1.450   8.500  -1.845  0.00  0.00    -0.081 HD
ENDROOT
BRANCH   3   8
ATOM      8  C   UNL     1      -1.440  11.552  -4.813  0.00  0.00    +0.043 A 
ATOM      9  C   UNL     1      -2.005  10.646  -5.714  0.00  0.00    +0.024 A 
ATOM     10  C   UNL     1      -2.279  11.030  -7.009  0.00  0.00    +0.003 A 
ATOM     11  C   UNL     1      -1.990  12.319  -7.441  0.00  0.00    +0.014 A 
ATOM     12  C   UNL     1      -1.427  13.230  -6.565  0.00  0.00    +0.051 A 
ATOM     13  C   UNL     1      -1.146  12.847  -5.236  0.00  0.00    +0.070 A 
ATOM     14  C   UNL     1      -0.562  14.034  -4.588  0.00  0.00    +0.256 C 
ATOM     15  O   UNL     1      -0.189  14.099  -3.434  0.00  0.00    -0.269 OA
ATOM     16  N   UNL     1      -0.510  15.033  -5.487  0.00  0.00    -0.232 N 
ATOM     17  C   UNL     1      -1.001  14.641  -6.676  0.00  0.00    +0.254 C 
ATOM     18  O   UNL     1      -1.081  15.330  -7.674  0.00  0.00    -0.270 OA
BRANCH  16  19
ATOM     19  C   UNL     1       0.012  16.373  -5.207  0.00  0.00    +0.148 C 
BRANCH  19  20
ATOM     20  C   UNL     1       1.511  16.410  -5.512  0.00  0.00    +0.136 C 
ATOM     21  C   UNL     1       2.098  17.799  -5.155  0.00  0.00    +0.035 C 
ATOM     22  C   UNL     1       3.588  17.435  -4.910  0.00  0.00    +0.031 C 
ATOM     23  C   UNL     1       3.484  16.023  -4.296  0.00  0.00    +0.160 C 
ATOM     24  O   UNL     1       2.213  15.479  -4.673  0.00  0.00    -0.375 OA
ENDBRANCH  19  20
ENDBRANCH  16  19
ENDBRANCH   3   8
BRANCH   6  25
ATOM     25  C   UNL     1      -0.770   8.923   0.049  0.00  0.00    -0.043 C 
BRANCH  25  37
ATOM     26  N   UNL     1       2.180   4.106   0.001  0.00  0.00    -0.340 N 
ATOM     27  C   UNL     1       1.164   3.167   0.007  0.00  0.00    +0.050 A 
ATOM     28  C   UNL     1       1.175   1.775   0.000  0.00  0.00    +0.026 A 
ATOM     29  C   UNL     1      -0.013   1.076   0.008  0.00  0.00    +0.002 A 
ATOM     30  C   UNL     1      -1.226   1.747   0.017  0.00  0.00    +0.001 A 
ATOM     31  C   UNL     1      -1.257   3.124   0.030  0.00  0.00    +0.010 A 
ATOM     32  C   UNL     1      -0.064   3.844   0.022  0.00  0.00    +0.008 A 
ATOM     33  C   UNL     1       0.251   5.284   0.025  0.00  0.00    +0.008 A 
ATOM     34  C   UNL     1       1.651   5.384   0.012  0.00  0.00    +0.050 A 
ATOM     35  C   UNL     1       2.243   6.643   0.011  0.00  0.00    +0.026 A 
ATOM     36  C   UNL     1       1.457   7.776   0.023  0.00  0.00    +0.004 A 
ATOM     37  C   UNL     1       0.074   7.674   0.036  0.00  0.00    -0.063 A 
ATOM     38  C   UNL     1      -0.531   6.436   0.037  0.00  0.00    +0.012 A 
BRANCH  26  40
ATOM     39  C   UNL     1       4.095   3.690  -1.462  0.00  0.00    +0.027 C 
ATOM     40  C   UNL     1       3.611   3.792  -0.014  0.00  0.00    +0.119 C 
ENDBRANCH  26  40
ENDBRANCH  25  37
ENDBRANCH   6  25
TORSDOF 6
