REMARK  Name = ZINC65592891
REMARK  8 active torsions:
REMARK  status: ('A' for Active; 'I' for Inactive)
REMARK    1  A    between atoms: C_1  and  C_2
REMARK    2  A    between atoms: C_2  and  C_3
REMARK    3  A    between atoms: C_3  and  C_4
REMARK    4  A    between atoms: C_4  and  C_5
REMARK    5  A    between atoms: C_5  and  C_6
REMARK    6  A    between atoms: C_5  and  N_22
REMARK    7  A    between atoms: C_12  and  C_14
REMARK    8  A    between atoms: C_14  and  C_15
REMARK                            x       y       z     vdW  Elec       q    Type
REMARK                         _______ _______ _______ _____ _____    ______ ____
ROOT
ATOM      1  C   UNL     1       1.369  -4.024  -2.595  0.00  0.00    +0.239 C 
ATOM      2  O   UNL     1       2.312  -4.702  -2.247  0.00  0.00    -0.273 OA
ATOM      3  N   UNL     1       0.243  -4.613  -3.045  0.00  0.00    -0.263 N 
ATOM      4  C   UNL     1       0.163  -6.000  -3.110  0.00  0.00    +0.165 A 
ATOM      5  N   UNL     1       1.074  -6.888  -2.773  0.00  0.00    -0.233 NA
ATOM      6  C   UNL     1       0.843  -8.181  -2.896  0.00  0.00    +0.124 A 
ATOM      7  C   UNL     1      -0.369  -8.548  -3.381  0.00  0.00    +0.015 A 
ATOM      8  S   UNL     1      -1.124  -6.949  -3.631  0.00  0.00    -0.057 S 
ATOM      9  H   UNL     1      -0.511  -4.071  -3.323  0.00  0.00    +0.157 HD
ENDROOT
BRANCH   1  10
ATOM     10  C   UNL     1       1.455  -2.521  -2.524  0.00  0.00    +0.161 C 
BRANCH  10  11
ATOM     11  N   UNL     1       2.862  -2.114  -2.477  0.00  0.00    -0.288 N 
ATOM     12  C   UNL     1       3.651  -2.534  -1.468  0.00  0.00    +0.298 C 
ATOM     13  O   UNL     1       3.195  -3.249  -0.597  0.00  0.00    -0.253 OA
ATOM     14  N   UNL     1       4.945  -2.160  -1.424  0.00  0.00    -0.313 N 
ATOM     15  H   UNL     1       3.225  -1.543  -3.171  0.00  0.00    +0.151 HD
ATOM     16  H   UNL     1       5.309  -1.589  -2.119  0.00  0.00    +0.146 HD
ATOM     17  H   UNL     1       5.513  -2.462  -0.698  0.00  0.00    +0.146 HD
ENDBRANCH  10  11
BRANCH  10  18
ATOM     18  C   UNL     1       0.739  -2.027  -1.265  0.00  0.00    +0.032 C 
BRANCH  18  19
ATOM     19  C   UNL     1       0.718  -0.497  -1.257  0.00  0.00    +0.002 C 
BRANCH  19  21
ATOM     20  C   UNL     1      -0.019   1.526   0.010  0.00  0.00    +0.004 C 
ATOM     21  C   UNL     1       0.002  -0.004   0.002  0.00  0.00    -0.003 C 
ENDBRANCH  19  21
ENDBRANCH  18  19
ENDBRANCH  10  18
ENDBRANCH   1  10
BRANCH   7  22
ATOM     22  C   UNL     1      -0.926  -9.925  -3.635  0.00  0.00    +0.079 C 
BRANCH  22  23
ATOM     23  C   UNL     1      -1.632 -10.417  -2.397  0.00  0.00    -0.040 A 
ATOM     24  C   UNL     1      -0.931 -11.124  -1.438  0.00  0.00    +0.004 A 
ATOM     25  C   UNL     1      -1.577 -11.576  -0.302  0.00  0.00    +0.003 A 
ATOM     26  C   UNL     1      -2.924 -11.322  -0.125  0.00  0.00    +0.038 A 
ATOM     27  C   UNL     1      -3.626 -10.614  -1.085  0.00  0.00    +0.124 A 
ATOM     28  C   UNL     1      -2.977 -10.157  -2.220  0.00  0.00    +0.042 A 
ATOM     29  F   UNL     1      -4.943 -10.366  -0.914  0.00  0.00    -0.205 F 
ENDBRANCH  22  23
ENDBRANCH   7  22
TORSDOF 7
