REMARK  Name = ZINC10042576
REMARK  14 active torsions:
REMARK  status: ('A' for Active; 'I' for Inactive)
REMARK    1  A    between atoms: C_1  and  C_2
REMARK    2  A    between atoms: C_2  and  C_3
REMARK    3  A    between atoms: C_2  and  C_4
REMARK    4  A    between atoms: C_4  and  C_6
REMARK    5  A    between atoms: C_4  and  N_28
REMARK    6  A    between atoms: N_8  and  N_9
REMARK    7  A    between atoms: C_10  and  C_11
REMARK    8  A    between atoms: C_14  and  C_16
REMARK    9  A    between atoms: C_21  and  C_22
REMARK   10  A    between atoms: C_22  and  O_24
REMARK   11  A    between atoms: O_24  and  C_25
REMARK   12  A    between atoms: C_25  and  C_26
REMARK   13  A    between atoms: C_25  and  C_27
REMARK   14  A    between atoms: C_29  and  C_31
REMARK                            x       y       z     vdW  Elec       q    Type
REMARK                         _______ _______ _______ _____ _____    ______ ____
ROOT
ATOM      1  C   UNL     1       3.986  -5.069  -0.070  0.00  0.00    +0.253 C 
ATOM      2  O   UNL     1       5.048  -4.493   0.043  0.00  0.00    -0.272 OA
ATOM      3  N   UNL     1       3.897  -6.383   0.215  0.00  0.00    -0.205 N 
ATOM      4  H   UNL     1       3.068  -6.860   0.053  0.00  0.00    +0.177 HD
ENDROOT
BRANCH   3   5
ATOM      5  N   UNL     1       5.003  -7.061   0.744  0.00  0.00    -0.185 NA
ATOM      6  C   UNL     1       4.955  -8.350   0.916  0.00  0.00    +0.176 C 
BRANCH   6   7
ATOM      7  C   UNL     1       3.793  -9.108   0.448  0.00  0.00    +0.148 A 
ATOM      8  C   UNL     1       3.632 -10.475   0.530  0.00  0.00    +0.051 A 
ATOM      9  C   UNL     1       2.384 -10.770  -0.029  0.00  0.00    +0.050 A 
ATOM     10  C   UNL     1       1.838  -9.587  -0.437  0.00  0.00    +0.137 A 
ATOM     11  O   UNL     1       2.698  -8.592  -0.143  0.00  0.00    -0.454 OA
BRANCH  10  12
ATOM     12  C   UNL     1       0.528  -9.425  -1.090  0.00  0.00    +0.031 A 
ATOM     13  C   UNL     1       0.188 -10.215  -2.190  0.00  0.00    +0.012 A 
ATOM     14  C   UNL     1      -1.040 -10.059  -2.797  0.00  0.00    +0.001 A 
ATOM     15  C   UNL     1      -1.945  -9.122  -2.323  0.00  0.00    +0.001 A 
ATOM     16  C   UNL     1      -1.631  -8.331  -1.238  0.00  0.00    +0.016 A 
ATOM     17  C   UNL     1      -0.395  -8.475  -0.604  0.00  0.00    +0.070 A 
BRANCH  17  18
ATOM     18  C   UNL     1      -0.056  -7.637   0.559  0.00  0.00    +0.340 C 
ATOM     19  O   UNL     1       1.023  -7.763   1.104  0.00  0.00    -0.245 OA
BRANCH  18  20
ATOM     20  O   UNL     1      -0.942  -6.732   1.018  0.00  0.00    -0.458 OA
BRANCH  20  21
ATOM     21  C   UNL     1      -0.540  -5.941   2.168  0.00  0.00    +0.171 C 
ATOM     22  C   UNL     1      -1.216  -4.570   2.106  0.00  0.00    +0.052 C 
ATOM     23  C   UNL     1      -0.960  -6.659   3.453  0.00  0.00    +0.052 C 
ENDBRANCH  20  21
ENDBRANCH  18  20
ENDBRANCH  17  18
ENDBRANCH  10  12
ENDBRANCH   6   7
ENDBRANCH   3   5
BRANCH   1  24
ATOM     24  C   UNL     1       2.765  -4.314  -0.529  0.00  0.00    +0.163 C 
BRANCH  24  25
ATOM     25  N   UNL     1       2.843  -2.928  -0.060  0.00  0.00    -0.300 N 
ATOM     26  C   UNL     1       1.715  -2.209   0.108  0.00  0.00    +0.245 C 
ATOM     27  O   UNL     1       0.634  -2.711  -0.128  0.00  0.00    -0.270 OA
ATOM     28  H   UNL     1       3.706  -2.527   0.129  0.00  0.00    +0.150 HD
BRANCH  26  29
ATOM     29  C   UNL     1       1.794  -0.811   0.582  0.00  0.00    +0.037 A 
ATOM     30  C   UNL     1       0.627  -0.064   0.757  0.00  0.00    +0.014 A 
ATOM     31  C   UNL     1       0.707   1.240   1.199  0.00  0.00    +0.021 A 
ATOM     32  C   UNL     1       1.941   1.809   1.467  0.00  0.00    +0.041 A 
ATOM     33  C   UNL     1       3.102   1.073   1.295  0.00  0.00    +0.021 A 
ATOM     34  C   UNL     1       3.034  -0.232   0.854  0.00  0.00    +0.014 A 
ATOM     35 CL   UNL     1       2.033   3.451   2.022  0.00  0.00    -0.084 Cl
ENDBRANCH  26  29
ENDBRANCH  24  25
BRANCH  24  37
ATOM     36  C   UNL     1       2.603  -5.778  -2.547  0.00  0.00    +0.009 C 
ATOM     37  C   UNL     1       2.699  -4.332  -2.058  0.00  0.00    +0.012 C 
ATOM     38  C   UNL     1       1.468  -3.552  -2.525  0.00  0.00    +0.009 C 
ENDBRANCH  24  37
ENDBRANCH   1  24
TORSDOF 10
