REMARK  Name = ZINC49234492
REMARK  6 active torsions:
REMARK  status: ('A' for Active; 'I' for Inactive)
REMARK    1  A    between atoms: C_1  and  C_2
REMARK    2  A    between atoms: C_2  and  C_3
REMARK    3  A    between atoms: C_2  and  C_4
REMARK    4  A    between atoms: N_9  and  S_10
REMARK    5  A    between atoms: S_10  and  C_13
REMARK    6  A    between atoms: C_14  and  N_21
REMARK                            x       y       z     vdW  Elec       q    Type
REMARK                         _______ _______ _______ _____ _____    ______ ____
ROOT
ATOM      1  S   UNL     1      -6.294  -1.429   1.487  0.00  0.00    +0.104 S 
ATOM      2  O   UNL     1      -6.816  -0.682   0.397  0.00  0.00    -0.146 OA
ATOM      3  O   UNL     1      -6.317  -2.849   1.518  0.00  0.00    -0.146 OA
ENDROOT
BRANCH   1   4
ATOM      4  C   UNL     1      -7.149  -0.881   2.927  0.00  0.00    +0.151 A 
ATOM      5  C   UNL     1      -7.126  -1.649   4.084  0.00  0.00    +0.055 A 
ATOM      6  C   UNL     1      -7.800  -1.214   5.218  0.00  0.00    +0.044 A 
ATOM      7  C   UNL     1      -8.492  -0.018   5.192  0.00  0.00    +0.044 A 
ATOM      8  C   UNL     1      -8.514   0.746   4.038  0.00  0.00    +0.042 A 
ATOM      9  C   UNL     1      -7.838   0.317   2.909  0.00  0.00    +0.071 A 
ATOM     10 CL   UNL     1      -7.862   1.281   1.466  0.00  0.00    -0.081 Cl
ATOM     11 CL   UNL     1      -9.336   0.526   6.608  0.00  0.00    -0.083 Cl
BRANCH   5  12
ATOM     12  N   UNL     1      -6.426  -2.858   4.107  0.00  0.00    -0.356 N 
ATOM     13  H   UNL     1      -5.801  -3.071   3.396  0.00  0.00    +0.142 HD
ATOM     14  H   UNL     1      -6.564  -3.484   4.835  0.00  0.00    +0.142 HD
ENDBRANCH   5  12
ENDBRANCH   1   4
BRANCH   1  20
ATOM     15  C   UNL     1      -1.794  -1.391  -0.441  0.00  0.00    +0.027 A 
ATOM     16  C   UNL     1      -2.411  -2.042  -1.427  0.00  0.00    +0.070 A 
ATOM     17  S   UNL     1      -4.093  -2.120  -0.831  0.00  0.00    -0.057 S 
ATOM     18  C   UNL     1      -3.843  -1.263   0.716  0.00  0.00    +0.192 A 
ATOM     19  N   UNL     1      -2.494  -0.989   0.659  0.00  0.00    -0.336 N 
ATOM     20  N   UNL     1      -4.710  -0.977   1.656  0.00  0.00    -0.103 NA
ATOM     21  H   UNL     1      -2.053  -0.518   1.383  0.00  0.00    +0.168 HD
BRANCH  15  23
ATOM     22  C   UNL     1      -0.089   0.409  -0.485  0.00  0.00    +0.013 C 
ATOM     23  C   UNL     1      -0.318  -1.103  -0.539  0.00  0.00    +0.030 C 
ATOM     24  C   UNL     1       0.410  -1.771   0.629  0.00  0.00    +0.013 C 
ENDBRANCH  15  23
ENDBRANCH   1  20
TORSDOF 4
