REMARK  Name = ZINC00349146
REMARK  12 active torsions:
REMARK  status: ('A' for Active; 'I' for Inactive)
REMARK    1  A    between atoms: C_1  and  C_2
REMARK    2  A    between atoms: C_3  and  C_18
REMARK    3  A    between atoms: C_4  and  C_10
REMARK    4  A    between atoms: C_13  and  O_16
REMARK    5  A    between atoms: O_16  and  C_17
REMARK    6  A    between atoms: C_18  and  O_20
REMARK    7  A    between atoms: O_20  and  C_21
REMARK    8  A    between atoms: C_21  and  C_23
REMARK    9  A    between atoms: C_21  and  C_24
REMARK   10  A    between atoms: C_24  and  C_25
REMARK   11  A    between atoms: C_24  and  C_26
REMARK   12  A    between atoms: C_24  and  C_27
REMARK                            x       y       z     vdW  Elec       q    Type
REMARK                         _______ _______ _______ _____ _____    ______ ____
ROOT
ATOM      1  C   UNL     1      -4.534   2.652   2.912  0.00  0.00    +0.061 C 
ATOM      2  C   UNL     1      -4.011   3.011   1.545  0.00  0.00    +0.021 C 
ATOM      3  C   UNL     1      -2.938   3.824   1.437  0.00  0.00    +0.078 C 
ATOM      4  C   UNL     1      -2.445   4.160   0.044  0.00  0.00    +0.143 C 
ATOM      5  N   UNL     1      -3.181   3.568  -1.085  0.00  0.00    -0.288 N 
ATOM      6  C   UNL     1      -4.236   2.774  -0.817  0.00  0.00    +0.304 C 
ATOM      7  O   UNL     1      -4.851   2.280  -1.742  0.00  0.00    -0.252 OA
ATOM      8  N   UNL     1      -4.629   2.510   0.435  0.00  0.00    -0.273 N 
ATOM      9  H   UNL     1      -2.914   3.747  -2.000  0.00  0.00    +0.151 HD
ATOM     10  H   UNL     1      -5.397   1.930   0.562  0.00  0.00    +0.156 HD
ENDROOT
BRANCH   4  11
ATOM     11  C   UNL     1      -1.007   3.721  -0.058  0.00  0.00    -0.022 A 
ATOM     12  C   UNL     1      -0.701   2.377  -0.164  0.00  0.00    +0.009 A 
ATOM     13  C   UNL     1       0.617   1.972  -0.252  0.00  0.00    +0.046 A 
ATOM     14  C   UNL     1       1.633   2.916  -0.246  0.00  0.00    +0.120 A 
ATOM     15  C   UNL     1       1.324   4.264  -0.145  0.00  0.00    +0.046 A 
ATOM     16  C   UNL     1       0.005   4.664  -0.051  0.00  0.00    +0.009 A 
BRANCH  14  17
ATOM     17  O   UNL     1       2.930   2.520  -0.339  0.00  0.00    -0.495 OA
ATOM     18  C   UNL     1       3.924   3.547  -0.326  0.00  0.00    +0.277 C 
ENDBRANCH  14  17
ENDBRANCH   4  11
BRANCH   3  19
ATOM     19  C   UNL     1      -2.296   4.344   2.586  0.00  0.00    +0.339 C 
ATOM     20  O   UNL     1      -2.518   5.486   2.942  0.00  0.00    -0.245 OA
BRANCH  19  21
ATOM     21  O   UNL     1      -1.437   3.573   3.285  0.00  0.00    -0.458 OA
BRANCH  21  22
ATOM     22  C   UNL     1      -0.734   4.198   4.361  0.00  0.00    +0.179 C 
ATOM     23  C   UNL     1       0.522   4.884   3.820  0.00  0.00    +0.052 C 
BRANCH  22  24
ATOM     24  C   UNL     1      -0.333   3.139   5.391  0.00  0.00    -0.001 C 
ATOM     25  C   UNL     1       0.601   2.119   4.737  0.00  0.00    +0.014 C 
ATOM     26  C   UNL     1       0.387   3.813   6.561  0.00  0.00    +0.014 C 
ATOM     27  C   UNL     1      -1.586   2.428   5.905  0.00  0.00    +0.014 C 
ENDBRANCH  22  24
ENDBRANCH  21  22
ENDBRANCH  19  21
ENDBRANCH   3  19
TORSDOF 6
