REMARK  Name = ZINC19770428
REMARK  9 active torsions:
REMARK  status: ('A' for Active; 'I' for Inactive)
REMARK    1  A    between atoms: C_1  and  C_2
REMARK    2  A    between atoms: C_3  and  C_23
REMARK    3  A    between atoms: C_4  and  C_16
REMARK    4  A    between atoms: C_10  and  C_14
REMARK    5  A    between atoms: C_10  and  C_15
REMARK    6  A    between atoms: C_19  and  O_22
REMARK    7  A    between atoms: C_23  and  O_25
REMARK    8  A    between atoms: O_25  and  C_26
REMARK    9  A    between atoms: C_26  and  C_27
REMARK                            x       y       z     vdW  Elec       q    Type
REMARK                         _______ _______ _______ _____ _____    ______ ____
ROOT
ATOM      1  C   UNL     1      -6.191   3.216  -0.915  0.00  0.00    +0.061 C 
ATOM      2  C   UNL     1      -4.799   2.659  -1.067  0.00  0.00    +0.016 C 
ATOM      3  C   UNL     1      -4.126   2.846  -2.215  0.00  0.00    +0.065 C 
ATOM      4  C   UNL     1      -2.741   2.300  -2.404  0.00  0.00    +0.092 C 
ATOM      5  C   UNL     1      -2.111   1.953  -1.079  0.00  0.00    +0.024 C 
ATOM      6  C   UNL     1      -2.872   1.795   0.025  0.00  0.00    +0.016 C 
ATOM      7  N   UNL     1      -4.229   1.967  -0.035  0.00  0.00    -0.321 N 
ATOM      8  C   UNL     1      -2.251   1.424   1.350  0.00  0.00    +0.058 C 
ATOM      9  C   UNL     1      -0.836   2.005   1.435  0.00  0.00    -0.023 C 
ATOM     10  C   UNL     1      -0.017   1.457   0.262  0.00  0.00    +0.086 C 
ATOM     11  C   UNL     1      -0.716   1.795  -1.026  0.00  0.00    +0.162 C 
ATOM     12  O   UNL     1      -0.061   1.935  -2.041  0.00  0.00    -0.292 OA
ATOM     13  C   UNL     1      -0.185   1.587   2.756  0.00  0.00    +0.011 C 
ATOM     14  C   UNL     1      -0.900   3.531   1.349  0.00  0.00    +0.011 C 
ATOM     15  H   UNL     1      -4.861   1.541   0.758  0.00  0.00    +0.152 HD
ENDROOT
BRANCH   4  16
ATOM     16  C   UNL     1      -2.810   1.060  -3.259  0.00  0.00    -0.035 A 
ATOM     17  C   UNL     1      -3.519  -0.043  -2.819  0.00  0.00    +0.008 A 
ATOM     18  C   UNL     1      -3.589  -1.178  -3.603  0.00  0.00    +0.046 A 
ATOM     19  C   UNL     1      -2.937  -1.215  -4.827  0.00  0.00    +0.117 A 
ATOM     20  C   UNL     1      -2.222  -0.109  -5.263  0.00  0.00    +0.046 A 
ATOM     21  C   UNL     1      -2.160   1.025  -4.478  0.00  0.00    +0.008 A 
BRANCH  19  22
ATOM     22  O   UNL     1      -2.999  -2.333  -5.598  0.00  0.00    -0.507 OA
ATOM     23  H   UNL     1      -2.483  -2.361  -6.568  0.00  0.00    +0.292 HD
ENDBRANCH  19  22
ENDBRANCH   4  16
BRANCH   3  24
ATOM     24  C   UNL     1      -4.735   3.571  -3.266  0.00  0.00    +0.338 C 
ATOM     25  O   UNL     1      -4.375   4.707  -3.510  0.00  0.00    -0.245 OA
BRANCH  24  26
ATOM     26  O   UNL     1      -5.716   3.003  -3.998  0.00  0.00    -0.459 OA
BRANCH  26  27
ATOM     27  C   UNL     1      -6.287   3.793  -5.043  0.00  0.00    +0.264 C 
BRANCH  27  28
ATOM     28  C   UNL     1      -7.374   2.988  -5.756  0.00  0.00    +0.156 C 
ATOM     29  C   UNL     1      -8.043   3.846  -6.859  0.00  0.00    +0.037 C 
ATOM     30  C   UNL     1      -8.570   2.741  -7.814  0.00  0.00    +0.031 C 
ATOM     31  C   UNL     1      -7.483   1.652  -7.686  0.00  0.00    +0.160 C 
ATOM     32  O   UNL     1      -6.793   1.872  -6.450  0.00  0.00    -0.373 OA
ENDBRANCH  27  28
ENDBRANCH  26  27
ENDBRANCH  24  26
ENDBRANCH   3  24
TORSDOF 6
