REMARK  Name = ZINC38779501
REMARK  9 active torsions:
REMARK  status: ('A' for Active; 'I' for Inactive)
REMARK    1  A    between atoms: C_1  and  C_2
REMARK    2  A    between atoms: C_7  and  C_8
REMARK    3  A    between atoms: C_10  and  C_25
REMARK    4  A    between atoms: N_14  and  N_15
REMARK    5  A    between atoms: N_15  and  C_16
REMARK    6  A    between atoms: C_28  and  O_33
REMARK    7  A    between atoms: C_29  and  O_31
REMARK    8  A    between atoms: O_31  and  C_32
REMARK    9  A    between atoms: O_33  and  C_34
REMARK                            x       y       z     vdW  Elec       q    Type
REMARK                         _______ _______ _______ _____ _____    ______ ____
ROOT
ATOM      1  C   UNL     1      -0.018   1.503   0.010  0.00  0.00    +0.044 C 
ATOM      2  C   UNL     1       0.002  -0.004   0.002  0.00  0.00    -0.047 A 
ATOM      3  C   UNL     1       0.006  -0.687  -1.199  0.00  0.00    +0.017 A 
ATOM      4  C   UNL     1       0.026  -2.079  -1.198  0.00  0.00    +0.040 A 
ATOM      5  C   UNL     1       0.045  -2.786   0.011  0.00  0.00    +0.131 A 
ATOM      6  C   UNL     1       0.038  -2.084   1.206  0.00  0.00    +0.050 A 
ATOM      7  C   UNL     1       0.023  -0.701   1.197  0.00  0.00    -0.044 A 
ATOM      8  C   UNL     1       0.023   0.054   2.502  0.00  0.00    +0.044 C 
ATOM      9  O   UNL     1       0.077  -4.141   0.022  0.00  0.00    -0.483 OA
ATOM     10  C   UNL     1      -0.390  -4.849  -1.126  0.00  0.00    +0.210 C 
ATOM     11  C   UNL     1       0.328  -4.320  -2.377  0.00  0.00    +0.107 C 
ATOM     12  C   UNL     1       0.025  -2.835  -2.471  0.00  0.00    +0.073 C 
ATOM     13  N   UNL     1      -0.222  -2.259  -3.607  0.00  0.00    -0.188 NA
ENDROOT
BRANCH  10  14
ATOM     14  C   UNL     1      -0.099  -6.319  -0.963  0.00  0.00    -0.003 A 
ATOM     15  C   UNL     1       1.049  -6.727  -0.311  0.00  0.00    +0.011 A 
ATOM     16  C   UNL     1       1.321  -8.074  -0.159  0.00  0.00    +0.050 A 
ATOM     17  C   UNL     1       0.440  -9.018  -0.661  0.00  0.00    +0.162 A 
ATOM     18  C   UNL     1      -0.716  -8.608  -1.317  0.00  0.00    +0.162 A 
ATOM     19  C   UNL     1      -0.984  -7.256  -1.462  0.00  0.00    +0.056 A 
BRANCH  18  20
ATOM     20  O   UNL     1      -1.583  -9.532  -1.812  0.00  0.00    -0.491 OA
ATOM     21  C   UNL     1      -2.749  -9.037  -2.474  0.00  0.00    +0.277 C 
ENDBRANCH  18  20
BRANCH  17  22
ATOM     22  O   UNL     1       0.706 -10.344  -0.513  0.00  0.00    -0.491 OA
ATOM     23  C   UNL     1       1.911 -10.692   0.172  0.00  0.00    +0.277 C 
ENDBRANCH  17  22
ENDBRANCH  10  14
BRANCH  13  24
ATOM     24  N   UNL     1      -0.213  -3.010  -4.790  0.00  0.00    -0.229 N 
ATOM     25  H   UNL     1      -0.023  -3.961  -4.759  0.00  0.00    +0.172 HD
BRANCH  24  26
ATOM     26  C   UNL     1      -0.492  -2.360  -6.073  0.00  0.00    +0.283 C 
ATOM     27  N   UNL     1      -1.921  -2.465  -6.391  0.00  0.00    -0.347 N 
ATOM     28  C   UNL     1      -2.026  -3.127  -7.507  0.00  0.00    +0.061 A 
ATOM     29  C   UNL     1      -3.179  -3.543  -8.317  0.00  0.00    +0.027 A 
ATOM     30  C   UNL     1      -2.976  -4.236  -9.455  0.00  0.00    +0.002 A 
ATOM     31  C   UNL     1      -1.693  -4.587  -9.911  0.00  0.00    +0.002 A 
ATOM     32  C   UNL     1      -0.569  -4.255  -9.244  0.00  0.00    +0.027 A 
ATOM     33  C   UNL     1      -0.668  -3.497  -7.990  0.00  0.00    +0.061 A 
ATOM     34  N   UNL     1       0.224  -3.050  -7.153  0.00  0.00    -0.347 N 
ATOM     35  H   UNL     1      -2.654  -2.107  -5.865  0.00  0.00    +0.163 HD
ATOM     36  H   UNL     1       1.185  -3.154  -7.230  0.00  0.00    +0.163 HD
ENDBRANCH  24  26
ENDBRANCH  13  24
TORSDOF 5
