REMARK  Name = ZINC06408540
REMARK  12 active torsions:
REMARK  status: ('A' for Active; 'I' for Inactive)
REMARK    1  A    between atoms: C_1  and  C_2
REMARK    2  A    between atoms: C_9  and  C_14
REMARK    3  A    between atoms: C_14  and  C_16
REMARK    4  A    between atoms: C_14  and  N_69
REMARK    5  A    between atoms: N_20  and  C_21
REMARK    6  A    between atoms: C_21  and  C_22
REMARK    7  A    between atoms: C_21  and  C_23
REMARK    8  A    between atoms: C_21  and  C_24
REMARK    9  A    between atoms: C_25  and  C_26
REMARK   10  A    between atoms: C_25  and  N_69
REMARK   11  A    between atoms: C_32  and  C_33
REMARK   12  A    between atoms: C_32  and  N_69
REMARK                            x       y       z     vdW  Elec       q    Type
REMARK                         _______ _______ _______ _____ _____    ______ ____
ROOT
ATOM      1  C   UNL     1      -2.778  -0.018  -0.723  0.00  0.00    +0.040 C 
ENDROOT
BRANCH   1  10
ATOM      2  C   UNL     1       2.554   2.357   3.919  0.00  0.00    +0.044 C 
ATOM      3  C   UNL     1       2.063   2.055   2.527  0.00  0.00    -0.050 A 
ATOM      4  C   UNL     1       2.900   2.268   1.440  0.00  0.00    +0.005 A 
ATOM      5  C   UNL     1       2.471   1.999   0.158  0.00  0.00    +0.026 A 
ATOM      6  C   UNL     1       1.186   1.509  -0.051  0.00  0.00    +0.049 A 
ATOM      7  C   UNL     1       0.340   1.294   1.053  0.00  0.00    -0.001 A 
ATOM      8  C   UNL     1       0.797   1.574   2.345  0.00  0.00    +0.013 A 
ATOM      9  C   UNL     1      -1.010   0.778   0.823  0.00  0.00    +0.017 A 
ATOM     10  C   UNL     1      -1.396   0.519  -0.451  0.00  0.00    +0.011 A 
ATOM     11  C   UNL     1      -0.511   0.757  -1.524  0.00  0.00    +0.251 A 
ATOM     12  O   UNL     1      -0.879   0.522  -2.662  0.00  0.00    -0.268 OA
ATOM     13  N   UNL     1       0.731   1.231  -1.323  0.00  0.00    -0.322 N 
ATOM     14  H   UNL     1       1.315   1.380  -2.082  0.00  0.00    +0.169 HD
ENDBRANCH   1  10
BRANCH   1  15
ATOM     15  C   UNL     1      -3.514  -0.194   0.581  0.00  0.00    +0.143 A 
ATOM     16  N   UNL     1      -4.014   0.757   1.331  0.00  0.00    -0.115 NA
ATOM     17  N   UNL     1      -4.564   0.207   2.357  0.00  0.00    -0.023 NA
ATOM     18  N   UNL     1      -4.428  -1.071   2.281  0.00  0.00    -0.043 NA
ATOM     19  N   UNL     1      -3.790  -1.358   1.197  0.00  0.00    -0.225 N 
BRANCH  19  20
ATOM     20  C   UNL     1      -3.431  -2.698   0.727  0.00  0.00    +0.059 C 
ATOM     21  C   UNL     1      -1.921  -2.768   0.488  0.00  0.00    +0.036 C 
ATOM     22  C   UNL     1      -3.829  -3.732   1.782  0.00  0.00    +0.036 C 
ATOM     23  C   UNL     1      -4.168  -2.994  -0.581  0.00  0.00    +0.036 C 
ENDBRANCH  19  20
ENDBRANCH   1  15
BRANCH   1  24
ATOM     24  N   UNL     1      -3.497   0.928  -1.601  0.00  0.00    +0.395 N 
ATOM     25  H   UNL     1      -2.986   1.016  -2.487  0.00  0.00    -0.079 HD
BRANCH  24  26
ATOM     26  C   UNL     1      -3.574   2.256  -0.957  0.00  0.00    -0.041 C 
BRANCH  26  27
ATOM     27  C   UNL     1      -2.364   3.057  -1.364  0.00  0.00    -0.064 A 
ATOM     28  C   UNL     1      -1.357   3.301  -0.448  0.00  0.00    +0.002 A 
ATOM     29  C   UNL     1      -0.244   4.031  -0.823  0.00  0.00    +0.000 A 
ATOM     30  C   UNL     1      -0.143   4.526  -2.110  0.00  0.00    +0.000 A 
ATOM     31  C   UNL     1      -1.152   4.286  -3.023  0.00  0.00    +0.000 A 
ATOM     32  C   UNL     1      -2.263   3.552  -2.651  0.00  0.00    +0.002 A 
ENDBRANCH  26  27
ENDBRANCH  24  26
BRANCH  24  33
ATOM     33  C   UNL     1      -4.858   0.423  -1.881  0.00  0.00    -0.041 C 
BRANCH  33  34
ATOM     34  C   UNL     1      -5.433   1.196  -3.040  0.00  0.00    -0.064 A 
ATOM     35  C   UNL     1      -6.174   2.339  -2.807  0.00  0.00    +0.004 A 
ATOM     36  C   UNL     1      -6.698   3.052  -3.869  0.00  0.00    +0.038 A 
ATOM     37  C   UNL     1      -6.488   2.614  -5.166  0.00  0.00    +0.123 A 
ATOM     38  C   UNL     1      -5.749   1.466  -5.398  0.00  0.00    +0.038 A 
ATOM     39  C   UNL     1      -5.222   0.758  -4.334  0.00  0.00    +0.004 A 
ATOM     40  F   UNL     1      -7.003   3.308  -6.205  0.00  0.00    -0.205 F 
ENDBRANCH  33  34
ENDBRANCH  24  33
ENDBRANCH   1  24
TORSDOF 8
