REMARK  Name = ZINC39856905
REMARK  6 active torsions:
REMARK  status: ('A' for Active; 'I' for Inactive)
REMARK    1  A    between atoms: C_4  and  S_7
REMARK    2  A    between atoms: S_7  and  N_10
REMARK    3  A    between atoms: N_10  and  C_11
REMARK    4  A    between atoms: C_23  and  N_25
REMARK    5  A    between atoms: N_25  and  C_26
REMARK    6  A    between atoms: C_31  and  C_32
REMARK                            x       y       z     vdW  Elec       q    Type
REMARK                         _______ _______ _______ _____ _____    ______ ____
ROOT
ATOM      1  C   UNL     1       3.530  -1.927   2.503  0.00  0.00    +0.131 C 
ATOM      2  C   UNL     1       2.586  -1.126   3.366  0.00  0.00    -0.019 A 
ATOM      3  C   UNL     1       1.563  -0.261   3.119  0.00  0.00    +0.006 A 
ATOM      4  C   UNL     1       0.868   0.330   4.176  0.00  0.00    +0.001 A 
ATOM      5  C   UNL     1       1.172   0.076   5.482  0.00  0.00    +0.008 A 
ATOM      6  C   UNL     1       2.222  -0.810   5.773  0.00  0.00    -0.017 A 
ATOM      7  C   UNL     1       2.908  -1.393   4.693  0.00  0.00    -0.008 A 
ATOM      8  C   UNL     1       3.963  -2.283   4.865  0.00  0.00    -0.017 A 
ATOM      9  C   UNL     1       4.336  -2.594   6.136  0.00  0.00    +0.006 A 
ATOM     10  C   UNL     1       3.668  -2.028   7.226  0.00  0.00    +0.001 A 
ATOM     11  C   UNL     1       2.633  -1.152   7.072  0.00  0.00    +0.008 A 
ATOM     12  C   UNL     1       4.438  -2.692   3.489  0.00  0.00    +0.124 C 
ENDROOT
BRANCH   1  13
ATOM     13  N   UNL     1       4.332  -1.033   1.663  0.00  0.00    -0.180 NA
ATOM     14  H   UNL     1       5.124  -0.608   2.026  0.00  0.00    +0.149 HD
BRANCH  13  15
ATOM     15  S   UNL     1       3.885  -0.749   0.094  0.00  0.00    +0.059 S 
ATOM     16  O   UNL     1       3.637  -2.019  -0.494  0.00  0.00    -0.153 OA
ATOM     17  O   UNL     1       4.832   0.166  -0.439  0.00  0.00    -0.153 OA
BRANCH  15  21
ATOM     18  C   UNL     1      -0.086   1.422   0.203  0.00  0.00    +0.000 A 
ATOM     19  C   UNL     1       1.095   2.140   0.214  0.00  0.00    +0.002 A 
ATOM     20  C   UNL     1       2.307   1.477   0.181  0.00  0.00    +0.028 A 
ATOM     21  C   UNL     1       2.339   0.096   0.138  0.00  0.00    +0.105 A 
ATOM     22  C   UNL     1       1.158  -0.623   0.128  0.00  0.00    +0.028 A 
ATOM     23  C   UNL     1      -0.055   0.040   0.160  0.00  0.00    +0.002 A 
ENDBRANCH  15  21
ENDBRANCH  13  15
ENDBRANCH   1  13
BRANCH  12  24
ATOM     24  N   UNL     1       4.284  -4.137   3.305  0.00  0.00    -0.334 N 
ATOM     25  H   UNL     1       3.463  -4.493   2.930  0.00  0.00    +0.147 HD
BRANCH  24  26
ATOM     26  C   UNL     1       5.310  -4.996   3.668  0.00  0.00    +0.042 A 
ATOM     27  C   UNL     1       6.529  -4.486   4.101  0.00  0.00    +0.024 A 
ATOM     28  C   UNL     1       7.548  -5.343   4.461  0.00  0.00    +0.002 A 
ATOM     29  C   UNL     1       7.369  -6.716   4.394  0.00  0.00    +0.001 A 
ATOM     30  C   UNL     1       6.170  -7.242   3.969  0.00  0.00    +0.017 A 
ATOM     31  C   UNL     1       5.123  -6.388   3.605  0.00  0.00    +0.084 A 
BRANCH  31  32
ATOM     32  C   UNL     1       3.838  -6.942   3.154  0.00  0.00    +0.388 C 
ATOM     33  O   UNL     1       3.641  -8.149   3.203  0.00  0.00    -0.241 OA
ATOM     34  O   UNL     1       2.965  -6.196   2.731  0.00  0.00    -0.241 OA
ENDBRANCH  31  32
ENDBRANCH  24  26
ENDBRANCH  12  24
TORSDOF 6
