REMARK  Name = ZINC64793880
REMARK  7 active torsions:
REMARK  status: ('A' for Active; 'I' for Inactive)
REMARK    1  A    between atoms: C_4  and  N_7
REMARK    2  A    between atoms: C_8  and  C_10
REMARK    3  A    between atoms: C_10  and  S_11
REMARK    4  A    between atoms: S_11  and  C_12
REMARK    5  A    between atoms: C_15  and  C_23
REMARK    6  A    between atoms: N_16  and  C_17
REMARK    7  A    between atoms: C_24  and  N_32
REMARK                            x       y       z     vdW  Elec       q    Type
REMARK                         _______ _______ _______ _____ _____    ______ ____
ROOT
ATOM      1  C   UNL     1       6.276  -5.205   0.371  0.00  0.00    +0.197 A 
ATOM      2  N   UNL     1       7.411  -4.545   0.370  0.00  0.00    -0.122 NA
ATOM      3  N   UNL     1       8.399  -5.361   0.460  0.00  0.00    -0.127 NA
ATOM      4  C   UNL     1       7.957  -6.599   0.524  0.00  0.00    +0.178 A 
ATOM      5  N   UNL     1       6.580  -6.537   0.474  0.00  0.00    -0.270 N 
ENDROOT
BRANCH   4   6
ATOM      6  C   UNL     1       8.775  -7.814   0.633  0.00  0.00    +0.080 A 
ATOM      7  C   UNL     1      10.131  -7.916   0.695  0.00  0.00    +0.052 A 
ATOM      8  C   UNL     1      10.729  -9.237   0.802  0.00  0.00    +0.029 A 
ATOM      9  C   UNL     1      12.100  -9.587   0.879  0.00  0.00    +0.014 A 
ATOM     10  C   UNL     1      12.444 -10.915   0.976  0.00  0.00    +0.020 A 
ATOM     11  C   UNL     1      11.462 -11.895   0.997  0.00  0.00    +0.112 A 
ATOM     12  N   UNL     1      10.187 -11.565   0.923  0.00  0.00    -0.248 NA
ATOM     13  C   UNL     1       9.808 -10.309   0.831  0.00  0.00    +0.111 A 
ATOM     14  S   UNL     1       8.227  -9.508   0.723  0.00  0.00    -0.064 S 
BRANCH   7  15
ATOM     15  N   UNL     1      10.935  -6.769   0.656  0.00  0.00    -0.356 N 
ATOM     16  H   UNL     1      10.527  -5.892   0.584  0.00  0.00    +0.142 HD
ATOM     17  H   UNL     1      11.901  -6.852   0.701  0.00  0.00    +0.142 HD
ENDBRANCH   7  15
ENDBRANCH   4   6
BRANCH   5  18
ATOM     18  C   UNL     1       5.681  -7.611   0.517  0.00  0.00    +0.051 A 
ATOM     19  C   UNL     1       5.581  -8.389   1.663  0.00  0.00    +0.026 A 
ATOM     20  C   UNL     1       4.694  -9.447   1.702  0.00  0.00    +0.002 A 
ATOM     21  C   UNL     1       3.906  -9.732   0.602  0.00  0.00    +0.000 A 
ATOM     22  C   UNL     1       4.003  -8.959  -0.540  0.00  0.00    +0.002 A 
ATOM     23  C   UNL     1       4.884  -7.896  -0.584  0.00  0.00    +0.026 A 
ENDBRANCH   5  18
BRANCH   1  24
ATOM     24  S   UNL     1       4.661  -4.506   0.267  0.00  0.00    -0.076 S 
BRANCH  24  25
ATOM     25  C   UNL     1       4.962  -2.721   0.153  0.00  0.00    +0.173 C 
BRANCH  25  27
ATOM     26  N   UNL     1       3.622  -0.651  -0.037  0.00  0.00    -0.285 N 
ATOM     27  C   UNL     1       3.645  -1.995   0.057  0.00  0.00    +0.227 C 
ATOM     28  O   UNL     1       2.606  -2.620   0.064  0.00  0.00    -0.275 OA
ATOM     29  H   UNL     1       4.452  -0.156  -0.121  0.00  0.00    +0.155 HD
BRANCH  26  33
ATOM     30  C   UNL     1      -0.015   1.381   0.029  0.00  0.00    +0.000 A 
ATOM     31  C   UNL     1       0.140   0.218   0.763  0.00  0.00    +0.002 A 
ATOM     32  C   UNL     1       1.344  -0.457   0.743  0.00  0.00    +0.023 A 
ATOM     33  C   UNL     1       2.400   0.031  -0.015  0.00  0.00    +0.033 A 
ATOM     34  C   UNL     1       2.241   1.198  -0.751  0.00  0.00    +0.023 A 
ATOM     35  C   UNL     1       1.034   1.870  -0.727  0.00  0.00    +0.002 A 
ENDBRANCH  26  33
ENDBRANCH  25  27
ENDBRANCH  24  25
ENDBRANCH   1  24
TORSDOF 7
