REMARK  Name = ZINC45921960
REMARK  8 active torsions:
REMARK  status: ('A' for Active; 'I' for Inactive)
REMARK    1  A    between atoms: C_1  and  C_2
REMARK    2  A    between atoms: C_2  and  C_3
REMARK    3  A    between atoms: C_2  and  C_4
REMARK    4  A    between atoms: C_7  and  C_10
REMARK    5  A    between atoms: C_10  and  N_11
REMARK    6  A    between atoms: C_24  and  S_25
REMARK    7  A    between atoms: S_25  and  C_26
REMARK    8  A    between atoms: C_26  and  C_27
REMARK                            x       y       z     vdW  Elec       q    Type
REMARK                         _______ _______ _______ _____ _____    ______ ____
ROOT
ATOM      1  N   UNL     1      -6.298  -1.051  -0.638  0.00  0.00    -0.282 N 
ATOM      2  C   UNL     1      -6.898  -0.056   0.055  0.00  0.00    +0.269 A 
ATOM      3  O   UNL     1      -6.720   0.067   1.256  0.00  0.00    -0.266 OA
ATOM      4  C   UNL     1      -7.727   0.829  -0.640  0.00  0.00    +0.105 A 
ATOM      5  C   UNL     1      -7.938   0.700  -2.012  0.00  0.00    +0.095 A 
ATOM      6  C   UNL     1      -8.834   1.696  -2.625  0.00  0.00    +0.034 A 
ATOM      7  C   UNL     1      -9.215   1.795  -3.983  0.00  0.00    +0.014 A 
ATOM      8  C   UNL     1     -10.069   2.805  -4.364  0.00  0.00    +0.020 A 
ATOM      9  C   UNL     1     -10.545   3.709  -3.428  0.00  0.00    +0.112 A 
ATOM     10  N   UNL     1     -10.185   3.612  -2.163  0.00  0.00    -0.248 NA
ATOM     11  C   UNL     1      -9.371   2.662  -1.753  0.00  0.00    +0.111 A 
ATOM     12  S   UNL     1      -8.692   2.239  -0.167  0.00  0.00    -0.062 S 
ATOM     13  N   UNL     1      -7.296  -0.329  -2.633  0.00  0.00    -0.222 NA
ATOM     14  C   UNL     1      -6.516  -1.152  -1.982  0.00  0.00    +0.173 A 
ENDROOT
BRANCH   1  15
ATOM     15  C   UNL     1      -5.419  -2.005   0.043  0.00  0.00    +0.162 C 
BRANCH  15  19
ATOM     16  C   UNL     1      -1.412  -0.526   0.013  0.00  0.00    -0.045 A 
ATOM     17  C   UNL     1      -2.259  -0.204   1.056  0.00  0.00    +0.004 A 
ATOM     18  C   UNL     1      -3.556  -0.683   1.066  0.00  0.00    +0.005 A 
ATOM     19  C   UNL     1      -4.006  -1.482   0.032  0.00  0.00    -0.028 A 
ATOM     20  C   UNL     1      -3.159  -1.803  -1.012  0.00  0.00    +0.005 A 
ATOM     21  C   UNL     1      -1.863  -1.321  -1.024  0.00  0.00    +0.004 A 
BRANCH  16  23
ATOM     22  C   UNL     1      -0.019   1.526   0.010  0.00  0.00    +0.012 C 
ATOM     23  C   UNL     1       0.002  -0.004   0.002  0.00  0.00    +0.013 C 
ATOM     24  C   UNL     1       0.742  -0.511   1.242  0.00  0.00    +0.012 C 
ENDBRANCH  16  23
ENDBRANCH  15  19
ENDBRANCH   1  15
BRANCH  14  25
ATOM     25  S   UNL     1      -5.723  -2.448  -2.873  0.00  0.00    -0.078 S 
BRANCH  25  26
ATOM     26  C   UNL     1      -6.280  -2.211  -4.582  0.00  0.00    +0.173 C 
BRANCH  26  27
ATOM     27  C   UNL     1      -5.666  -3.269  -5.462  0.00  0.00    +0.226 C 
ATOM     28  O   UNL     1      -4.925  -4.101  -4.984  0.00  0.00    -0.275 OA
ATOM     29  N   UNL     1      -5.940  -3.290  -6.782  0.00  0.00    -0.301 N 
ATOM     30  C   UNL     1      -6.831  -2.285  -7.378  0.00  0.00    +0.108 C 
ATOM     31  C   UNL     1      -6.108  -1.619  -8.552  0.00  0.00    +0.019 C 
ATOM     32  C   UNL     1      -5.631  -2.696  -9.530  0.00  0.00    +0.003 C 
ATOM     33  C   UNL     1      -4.647  -3.630  -8.823  0.00  0.00    +0.019 C 
ATOM     34  C   UNL     1      -5.349  -4.315  -7.653  0.00  0.00    +0.108 C 
ENDBRANCH  26  27
ENDBRANCH  25  26
ENDBRANCH  14  25
TORSDOF 6
