REMARK  Name = ZINC09636140
REMARK  6 active torsions:
REMARK  status: ('A' for Active; 'I' for Inactive)
REMARK    1  A    between atoms: C_1  and  N_51
REMARK    2  A    between atoms: C_7  and  N_18
REMARK    3  A    between atoms: C_8  and  C_9
REMARK    4  A    between atoms: C_19  and  C_21
REMARK    5  A    between atoms: C_24  and  S_27
REMARK    6  A    between atoms: S_27  and  C_28
REMARK                            x       y       z     vdW  Elec       q    Type
REMARK                         _______ _______ _______ _____ _____    ______ ____
ROOT
ATOM      1  C   UNL     1      -8.263   6.934   0.288  0.00  0.00    -0.096 C 
ATOM      2  C   UNL     1      -6.011   7.526  -0.378  0.00  0.00    -0.074 C 
ATOM      3  C   UNL     1      -4.547   7.436   0.060  0.00  0.00    +0.018 C 
ATOM      4  C   UNL     1      -4.137   5.966   0.053  0.00  0.00    -0.029 A 
ATOM      5  C   UNL     1      -5.088   5.001   0.053  0.00  0.00    -0.021 A 
ATOM      6  S   UNL     1      -4.187   3.478   0.033  0.00  0.00    -0.079 S 
ATOM      7  C   UNL     1      -2.531   4.143   0.036  0.00  0.00    +0.082 A 
ATOM      8  C   UNL     1      -2.761   5.510   0.045  0.00  0.00    +0.039 A 
ATOM      9  C   UNL     1      -6.570   5.211   0.062  0.00  0.00    -0.036 C 
ATOM     10  N   UNL     1      -6.828   6.617   0.453  0.00  0.00    +0.381 N 
ATOM     11  H   UNL     1      -6.569   6.743   1.439  0.00  0.00    -0.082 HD
ENDROOT
BRANCH   8  12
ATOM     12  C   UNL     1      -1.643   6.469   0.045  0.00  0.00    +0.112 A 
ATOM     13  N   UNL     1      -1.683   7.786   0.046  0.00  0.00    -0.239 NA
ATOM     14  C   UNL     1      -0.568   8.543   0.051  0.00  0.00    +0.079 A 
ATOM     15  C   UNL     1      -0.471   9.955   0.058  0.00  0.00    +0.029 A 
ATOM     16  C   UNL     1       0.752  10.573   0.056  0.00  0.00    +0.002 A 
ATOM     17  C   UNL     1       1.933   9.844   0.048  0.00  0.00    +0.001 A 
ATOM     18  C   UNL     1       1.876   8.463   0.041  0.00  0.00    +0.017 A 
ATOM     19  C   UNL     1       0.656   7.834   0.043  0.00  0.00    +0.040 A 
ATOM     20  S   UNL     1       0.114   6.142   0.036  0.00  0.00    -0.067 S 
ENDBRANCH   8  12
BRANCH   7  21
ATOM     21  N   UNL     1      -1.319   3.463   0.027  0.00  0.00    -0.275 N 
ATOM     22  C   UNL     1      -1.303   2.115   0.020  0.00  0.00    +0.249 C 
ATOM     23  O   UNL     1      -2.348   1.494   0.021  0.00  0.00    -0.270 OA
ATOM     24  H   UNL     1      -0.485   3.959   0.026  0.00  0.00    +0.156 HD
BRANCH  22  25
ATOM     25  C   UNL     1      -0.017   1.394   0.010  0.00  0.00    +0.037 A 
ATOM     26  C   UNL     1       1.186   2.107   0.002  0.00  0.00    +0.014 A 
ATOM     27  C   UNL     1       2.380   1.434  -0.013  0.00  0.00    +0.015 A 
ATOM     28  C   UNL     1       2.396   0.041  -0.021  0.00  0.00    +0.008 A 
ATOM     29  C   UNL     1       1.199  -0.672  -0.013  0.00  0.00    +0.015 A 
ATOM     30  C   UNL     1       0.002  -0.004   0.002  0.00  0.00    +0.014 A 
BRANCH  28  31
ATOM     31  S   UNL     1       3.933  -0.821  -0.039  0.00  0.00    -0.129 S 
ATOM     32  C   UNL     1       5.176   0.500  -0.044  0.00  0.00    +0.090 C 
ENDBRANCH  28  31
ENDBRANCH  22  25
ENDBRANCH   7  21
TORSDOF 4
