REMARK  Name = ZINC41069941
REMARK  7 active torsions:
REMARK  status: ('A' for Active; 'I' for Inactive)
REMARK    1  A    between atoms: C_1  and  C_2
REMARK    2  A    between atoms: C_5  and  C_21
REMARK    3  A    between atoms: C_6  and  N_8
REMARK    4  A    between atoms: N_8  and  S_9
REMARK    5  A    between atoms: S_9  and  C_12
REMARK    6  A    between atoms: C_17  and  N_18
REMARK    7  A    between atoms: N_18  and  N_19
REMARK                            x       y       z     vdW  Elec       q    Type
REMARK                         _______ _______ _______ _____ _____    ______ ____
ROOT
ATOM      1  S   UNL     1      -0.678  -2.151   3.815  0.00  0.00    +0.076 S 
ATOM      2  O   UNL     1      -0.450  -2.965   4.957  0.00  0.00    -0.150 OA
ATOM      3  O   UNL     1      -0.282  -0.788   3.758  0.00  0.00    -0.150 OA
ENDROOT
BRANCH   1   4
ATOM      4  C   UNL     1      -2.414  -2.184   3.513  0.00  0.00    +0.150 A 
ATOM      5  C   UNL     1      -3.115  -1.006   3.325  0.00  0.00    +0.049 A 
ATOM      6  C   UNL     1      -4.482  -1.079   3.089  0.00  0.00    +0.038 A 
ATOM      7  C   UNL     1      -5.097  -2.316   3.050  0.00  0.00    +0.128 A 
ATOM      8  N   UNL     1      -4.402  -3.422   3.233  0.00  0.00    -0.236 NA
ATOM      9  C   UNL     1      -3.097  -3.394   3.454  0.00  0.00    +0.159 A 
ATOM     10 BR   UNL     1      -5.492   0.498   2.826  0.00  0.00    -0.049 Br
BRANCH   9  11
ATOM     11  N   UNL     1      -2.403  -4.586   3.635  0.00  0.00    -0.266 N 
ATOM     12  H   UNL     1      -1.435  -4.578   3.704  0.00  0.00    +0.167 HD
BRANCH  11  13
ATOM     13  N   UNL     1      -3.084  -5.767   3.716  0.00  0.00    -0.255 NA
ATOM     14  H   UNL     1      -3.591  -5.951   2.864  0.00  0.00    +0.140 HD
ATOM     15  H   UNL     1      -2.461  -6.529   3.938  0.00  0.00    +0.140 HD
ENDBRANCH  11  13
ENDBRANCH   9  11
ENDBRANCH   1   4
BRANCH   1  16
ATOM     16  N   UNL     1       0.055  -2.911   2.539  0.00  0.00    -0.216 N 
ATOM     17  H   UNL     1       0.595  -3.702   2.691  0.00  0.00    +0.174 HD
BRANCH  16  23
ATOM     18  C   UNL     1      -0.438   0.935  -0.481  0.00  0.00    +0.044 C 
ATOM     19  C   UNL     1      -0.346  -0.551  -0.250  0.00  0.00    -0.049 A 
ATOM     20  C   UNL     1      -0.419  -1.423  -1.321  0.00  0.00    +0.004 A 
ATOM     21  C   UNL     1      -0.335  -2.787  -1.113  0.00  0.00    +0.005 A 
ATOM     22  C   UNL     1      -0.178  -3.284   0.166  0.00  0.00    -0.028 A 
ATOM     23  C   UNL     1      -0.104  -2.412   1.244  0.00  0.00    +0.051 A 
ATOM     24  C   UNL     1      -0.183  -1.041   1.031  0.00  0.00    +0.028 A 
ATOM     25  C   UNL     1      -0.087  -4.771   0.392  0.00  0.00    +0.046 C 
ENDBRANCH  16  23
ENDBRANCH   1  16
TORSDOF 5
