REMARK  Name = ZINC39536614
REMARK  7 active torsions:
REMARK  status: ('A' for Active; 'I' for Inactive)
REMARK    1  A    between atoms: C_3  and  C_7
REMARK    2  A    between atoms: N_11  and  C_15
REMARK    3  A    between atoms: C_15  and  C_16
REMARK    4  A    between atoms: C_16  and  N_17
REMARK    5  A    between atoms: C_18  and  C_20
REMARK    6  A    between atoms: C_20  and  S_21
REMARK    7  A    between atoms: S_21  and  C_22
REMARK                            x       y       z     vdW  Elec       q    Type
REMARK                         _______ _______ _______ _____ _____    ______ ____
ROOT
ATOM      1  N   UNL     1       6.988  -3.969  -1.241  0.00  0.00    -0.313 N 
ATOM      2  C   UNL     1       7.200  -4.625  -2.399  0.00  0.00    +0.223 C 
ATOM      3  O   UNL     1       7.176  -4.022  -3.451  0.00  0.00    -0.275 OA
ATOM      4  H   UNL     1       7.007  -4.451  -0.400  0.00  0.00    +0.149 HD
ENDROOT
BRANCH   1   5
ATOM      5  C   UNL     1       6.728  -2.527  -1.254  0.00  0.00    +0.123 C 
BRANCH   5   6
ATOM      6  C   UNL     1       6.522  -2.034   0.180  0.00  0.00    +0.136 C 
BRANCH   6  11
ATOM      7  C   UNL     1       3.675   2.023  -0.023  0.00  0.00    +0.029 C 
ATOM      8  C   UNL     1       4.821   1.304   0.065  0.00  0.00    +0.080 C 
ATOM      9  C   UNL     1       5.016  -0.161   0.071  0.00  0.00    +0.260 C 
ATOM     10  O   UNL     1       4.077  -0.932  -0.009  0.00  0.00    -0.269 OA
ATOM     11  N   UNL     1       6.262  -0.592   0.168  0.00  0.00    -0.227 N 
ATOM     12  C   UNL     1       7.299   0.266   0.256  0.00  0.00    +0.286 C 
ATOM     13  O   UNL     1       8.485   0.010   0.348  0.00  0.00    -0.262 OA
ATOM     14  S   UNL     1       6.512   1.867   0.197  0.00  0.00    -0.026 S 
BRANCH   7  17
ATOM     15  C   UNL     1       0.939  -0.331   0.986  0.00  0.00    +0.020 A 
ATOM     16  C   UNL     1       2.184   0.272   0.945  0.00  0.00    +0.011 A 
ATOM     17  C   UNL     1       2.373   1.345   0.062  0.00  0.00    -0.006 A 
ATOM     18  C   UNL     1       1.301   1.760  -0.736  0.00  0.00    +0.118 A 
ATOM     19  N   UNL     1       0.136   1.152  -0.658  0.00  0.00    -0.263 NA
ATOM     20  C   UNL     1      -0.069   0.140   0.164  0.00  0.00    +0.111 A 
ENDBRANCH   7  17
ENDBRANCH   6  11
ENDBRANCH   5   6
ENDBRANCH   1   5
BRANCH   2  21
ATOM     21  C   UNL     1       7.468  -6.108  -2.387  0.00  0.00    +0.170 C 
BRANCH  21  22
ATOM     22  S   UNL     1       7.711  -6.693  -4.087  0.00  0.00    -0.116 S 
BRANCH  22  23
ATOM     23  C   UNL     1       8.009  -8.420  -3.904  0.00  0.00    +0.012 A 
ATOM     24  C   UNL     1       8.006  -8.995  -2.640  0.00  0.00    +0.018 A 
ATOM     25  C   UNL     1       8.239 -10.350  -2.493  0.00  0.00    +0.050 A 
ATOM     26  C   UNL     1       8.477 -11.133  -3.611  0.00  0.00    +0.162 A 
ATOM     27  C   UNL     1       8.481 -10.561  -4.875  0.00  0.00    +0.163 A 
ATOM     28  C   UNL     1       8.242  -9.206  -5.026  0.00  0.00    +0.064 A 
ATOM     29  O   UNL     1       8.714 -11.344  -5.968  0.00  0.00    -0.488 OA
ATOM     30  C   UNL     1      10.037 -11.871  -6.088  0.00  0.00    +0.232 C 
ATOM     31  C   UNL     1      10.183 -13.152  -5.280  0.00  0.00    +0.082 C 
ATOM     32  C   UNL     1      10.031 -12.913  -3.786  0.00  0.00    +0.232 C 
ATOM     33  O   UNL     1       8.707 -12.472  -3.476  0.00  0.00    -0.488 OA
ENDBRANCH  22  23
ENDBRANCH  21  22
ENDBRANCH   2  21
TORSDOF 7
