REMARK  Name = ZINC39770425
REMARK  8 active torsions:
REMARK  status: ('A' for Active; 'I' for Inactive)
REMARK    1  A    between atoms: C_1  and  N_2
REMARK    2  A    between atoms: C_8  and  O_9
REMARK    3  A    between atoms: O_9  and  C_10
REMARK    4  A    between atoms: C_14  and  C_16
REMARK    5  A    between atoms: C_17  and  C_18
REMARK    6  A    between atoms: C_17  and  C_20
REMARK    7  A    between atoms: N_29  and  C_36
REMARK    8  A    between atoms: N_32  and  C_35
REMARK                            x       y       z     vdW  Elec       q    Type
REMARK                         _______ _______ _______ _____ _____    ______ ____
ROOT
ATOM      1  C   UNL     1       3.247  -1.271  -1.304  0.00  0.00    +0.132 A 
ATOM      2  C   UNL     1       2.956  -2.497  -0.719  0.00  0.00    +0.046 A 
ATOM      3  C   UNL     1       3.976  -3.368  -0.381  0.00  0.00    +0.004 A 
ATOM      4  C   UNL     1       5.290  -3.026  -0.623  0.00  0.00    +0.008 A 
ATOM      5  C   UNL     1       5.594  -1.794  -1.212  0.00  0.00    -0.021 A 
ATOM      6  C   UNL     1       4.561  -0.918  -1.557  0.00  0.00    +0.054 A 
ENDROOT
BRANCH   5   7
ATOM      7  C   UNL     1       6.995  -1.425  -1.472  0.00  0.00    +0.026 C 
ATOM      8  C   UNL     1       7.393  -0.145  -1.323  0.00  0.00    +0.072 C 
BRANCH   8   9
ATOM      9  C   UNL     1       8.779   0.266  -1.748  0.00  0.00    +0.216 C 
ATOM     10  N   UNL     1       9.497   0.863  -0.614  0.00  0.00    -0.359 N 
ATOM     11  C   UNL     1       9.798   2.086  -0.943  0.00  0.00    +0.060 A 
ATOM     12  C   UNL     1      10.503   3.166  -0.238  0.00  0.00    +0.027 A 
ATOM     13  C   UNL     1      10.670   4.358  -0.845  0.00  0.00    +0.002 A 
ATOM     14  C   UNL     1      10.194   4.622  -2.141  0.00  0.00    +0.002 A 
ATOM     15  C   UNL     1       9.535   3.704  -2.875  0.00  0.00    +0.027 A 
ATOM     16  C   UNL     1       9.295   2.366  -2.316  0.00  0.00    +0.060 A 
ATOM     17  N   UNL     1       8.702   1.305  -2.782  0.00  0.00    -0.359 N 
ATOM     18  H   UNL     1       9.708   0.427   0.226  0.00  0.00    +0.162 HD
ATOM     19  H   UNL     1       8.286   1.217  -3.654  0.00  0.00    +0.162 HD
ENDBRANCH   8   9
BRANCH   8  20
ATOM     20  C   UNL     1       6.499   0.823  -0.762  0.00  0.00    +0.099 C 
ATOM     21  N   UNL     1       5.790   1.590  -0.317  0.00  0.00    -0.191 NA
ENDBRANCH   8  20
ENDBRANCH   5   7
BRANCH   1  22
ATOM     22  O   UNL     1       2.240  -0.419  -1.633  0.00  0.00    -0.427 OA
BRANCH  22  28
ATOM     23  C   UNL     1       0.472   2.112  -2.017  0.00  0.00    +0.134 C 
ATOM     24  N   UNL     1       0.673   1.256  -0.846  0.00  0.00    -0.273 N 
ATOM     25  C   UNL     1      -0.102   1.210   0.393  0.00  0.00    +0.206 C 
ATOM     26  C   UNL     1       1.104   1.057   1.374  0.00  0.00    +0.229 C 
ATOM     27  N   UNL     1       1.924   0.118   0.645  0.00  0.00    -0.211 NA
ATOM     28  C   UNL     1       1.648   0.278  -0.639  0.00  0.00    +0.288 C 
ATOM     29  N   UNL     1       0.551   0.776   2.671  0.00  0.00    -0.264 N 
ATOM     30  C   UNL     1      -0.494   1.569   3.047  0.00  0.00    +0.312 C 
ATOM     31  O   UNL     1      -0.970   1.437   4.158  0.00  0.00    -0.252 OA
ATOM     32  N   UNL     1      -1.010   2.497   2.216  0.00  0.00    -0.227 N 
ATOM     33  C   UNL     1      -0.840   2.424   0.848  0.00  0.00    +0.247 C 
ATOM     34  O   UNL     1      -1.253   3.262   0.076  0.00  0.00    -0.273 OA
ATOM     35  C   UNL     1      -1.777   3.612   2.776  0.00  0.00    +0.143 C 
ATOM     36  C   UNL     1       1.074  -0.289   3.531  0.00  0.00    +0.136 C 
ENDBRANCH  22  28
ENDBRANCH   1  22
TORSDOF 5
