REMARK  Name = ZINC09434027
REMARK  12 active torsions:
REMARK  status: ('A' for Active; 'I' for Inactive)
REMARK    1  A    between atoms: C_1  and  C_2
REMARK    2  A    between atoms: C_2  and  C_3
REMARK    3  A    between atoms: C_2  and  C_4
REMARK    4  A    between atoms: C_2  and  C_5
REMARK    5  A    between atoms: C_10  and  O_11
REMARK    6  A    between atoms: O_11  and  C_12
REMARK    7  A    between atoms: C_12  and  C_13
REMARK    8  A    between atoms: C_13  and  C_15
REMARK    9  A    between atoms: C_13  and  O_37
REMARK   10  A    between atoms: C_15  and  N_73
REMARK   11  A    between atoms: C_18  and  C_21
REMARK   12  A    between atoms: C_21  and  N_22
REMARK                            x       y       z     vdW  Elec       q    Type
REMARK                         _______ _______ _______ _____ _____    ______ ____
ROOT
ATOM      1  C   UNL     1      -0.078   1.192  -2.431  0.00  0.00    -0.078 C 
ATOM      2  C   UNL     1      -0.873   1.939  -3.505  0.00  0.00    -0.014 C 
ATOM      3  C   UNL     1      -0.180   1.767  -4.859  0.00  0.00    +0.003 C 
ATOM      4  C   UNL     1       1.258   2.285  -4.757  0.00  0.00    -0.014 C 
ATOM      5  C   UNL     1       1.991   1.528  -3.648  0.00  0.00    -0.078 C 
ATOM      6  N   UNL     1       1.288   1.754  -2.367  0.00  0.00    +0.381 N 
ATOM      7  H   UNL     1       1.224   2.765  -2.196  0.00  0.00    -0.082 HD
ENDROOT
BRANCH   6   8
ATOM      8  C   UNL     1       2.040   1.127  -1.261  0.00  0.00    -0.044 C 
BRANCH   8   9
ATOM      9  C   UNL     1       3.231   2.021  -0.911  0.00  0.00    +0.135 C 
BRANCH   9  10
ATOM     10  O   UNL     1       2.760   3.311  -0.517  0.00  0.00    -0.390 OA
ATOM     11  H   UNL     1       2.177   3.298   0.255  0.00  0.00    +0.210 HD
ENDBRANCH   9  10
BRANCH   9  12
ATOM     12  C   UNL     1       4.021   1.393   0.239  0.00  0.00    +0.258 C 
BRANCH  12  13
ATOM     13  O   UNL     1       5.197   2.165   0.488  0.00  0.00    -0.489 OA
BRANCH  13  19
ATOM     14  C   UNL     1       7.173   2.442   1.782  0.00  0.00    -0.000 A 
ATOM     15  C   UNL     1       8.003   2.007   2.798  0.00  0.00    +0.008 A 
ATOM     16  C   UNL     1       7.679   0.873   3.519  0.00  0.00    +0.001 A 
ATOM     17  C   UNL     1       6.524   0.171   3.226  0.00  0.00    +0.004 A 
ATOM     18  C   UNL     1       5.689   0.605   2.215  0.00  0.00    +0.046 A 
ATOM     19  C   UNL     1       6.014   1.740   1.486  0.00  0.00    +0.124 A 
BRANCH  14  21
ATOM     20  C   UNL     1       8.843   4.257   1.521  0.00  0.00    +0.015 C 
ATOM     21  C   UNL     1       7.527   3.679   0.997  0.00  0.00    -0.009 C 
ATOM     22  C   UNL     1       7.681   3.317  -0.482  0.00  0.00    +0.015 C 
ATOM     23  C   UNL     1       6.415   4.718   1.154  0.00  0.00    +0.015 C 
ENDBRANCH  14  21
ENDBRANCH  13  19
ENDBRANCH  12  13
ENDBRANCH   9  12
ENDBRANCH   8   9
ENDBRANCH   6   8
BRANCH   3  24
ATOM     24  C   UNL     1      -0.936   2.562  -5.926  0.00  0.00    +0.120 C 
BRANCH  24  25
ATOM     25  N   UNL     1      -2.272   1.988  -6.106  0.00  0.00    -0.234 N 
ATOM     26  C   UNL     1      -2.442   1.019  -7.026  0.00  0.00    +0.254 C 
ATOM     27  O   UNL     1      -1.494   0.637  -7.685  0.00  0.00    -0.270 OA
ATOM     28  C   UNL     1      -3.767   0.416  -7.233  0.00  0.00    +0.046 A 
ATOM     29  C   UNL     1      -3.986  -0.589  -8.164  0.00  0.00    +0.014 A 
ATOM     30  C   UNL     1      -5.258  -1.125  -8.326  0.00  0.00    +0.001 A 
ATOM     31  C   UNL     1      -6.319  -0.688  -7.586  0.00  0.00    +0.008 A 
ATOM     32  C   UNL     1      -6.139   0.329  -6.631  0.00  0.00    -0.016 A 
ATOM     33  C   UNL     1      -4.853   0.881  -6.457  0.00  0.00    +0.006 A 
ATOM     34  C   UNL     1      -4.639   1.903  -5.504  0.00  0.00    +0.046 A 
ATOM     35  C   UNL     1      -5.712   2.352  -4.747  0.00  0.00    +0.014 A 
ATOM     36  C   UNL     1      -6.974   1.800  -4.928  0.00  0.00    +0.001 A 
ATOM     37  C   UNL     1      -7.198   0.812  -5.844  0.00  0.00    +0.008 A 
ATOM     38  C   UNL     1      -3.285   2.454  -5.351  0.00  0.00    +0.254 C 
ATOM     39  O   UNL     1      -3.078   3.334  -4.538  0.00  0.00    -0.270 OA
ENDBRANCH  24  25
ENDBRANCH   3  24
TORSDOF 9
