REMARK  Name = ZINC40244959
REMARK  5 active torsions:
REMARK  status: ('A' for Active; 'I' for Inactive)
REMARK    1  A    between atoms: C_1  and  C_2
REMARK    2  A    between atoms: C_5  and  C_22
REMARK    3  A    between atoms: C_6  and  C_8
REMARK    4  A    between atoms: C_8  and  C_10
REMARK    5  A    between atoms: C_8  and  O_21
REMARK                            x       y       z     vdW  Elec       q    Type
REMARK                         _______ _______ _______ _____ _____    ______ ____
ROOT
ATOM      1  C   UNL     1       0.508  -2.813   2.444  0.00  0.00    +0.175 C 
ENDROOT
BRANCH   1   2
ATOM      2  C   UNL     1      -0.790  -3.331   3.008  0.00  0.00    -0.011 A 
ATOM      3  C   UNL     1      -1.672  -2.460   3.620  0.00  0.00    +0.010 A 
ATOM      4  C   UNL     1      -2.866  -2.928   4.139  0.00  0.00    +0.050 A 
ATOM      5  C   UNL     1      -3.175  -4.274   4.044  0.00  0.00    +0.162 A 
ATOM      6  C   UNL     1      -2.290  -5.149   3.430  0.00  0.00    +0.162 A 
ATOM      7  C   UNL     1      -1.098  -4.676   2.907  0.00  0.00    +0.056 A 
ATOM      8  O   UNL     1      -2.605  -6.473   3.340  0.00  0.00    -0.488 OA
ATOM      9  C   UNL     1      -2.627  -7.195   4.573  0.00  0.00    +0.232 C 
ATOM     10  C   UNL     1      -3.971  -7.038   5.266  0.00  0.00    +0.082 C 
ATOM     11  C   UNL     1      -4.238  -5.602   5.691  0.00  0.00    +0.232 C 
ATOM     12  O   UNL     1      -4.350  -4.748   4.551  0.00  0.00    -0.488 OA
ENDBRANCH   1   2
BRANCH   1  18
ATOM     13  C   UNL     1      -0.433   1.488   0.066  0.00  0.00    +0.044 C 
ATOM     14  C   UNL     1      -0.215  -0.003   0.030  0.00  0.00    -0.050 A 
ATOM     15  C   UNL     1      -0.264  -0.679  -1.175  0.00  0.00    +0.003 A 
ATOM     16  C   UNL     1      -0.063  -2.046  -1.208  0.00  0.00    +0.004 A 
ATOM     17  C   UNL     1       0.187  -2.737  -0.036  0.00  0.00    -0.044 A 
ATOM     18  C   UNL     1       0.236  -2.061   1.168  0.00  0.00    -0.012 A 
ATOM     19  C   UNL     1       0.040  -0.692   1.200  0.00  0.00    +0.010 A 
ATOM     20  C   UNL     1       0.404  -4.228  -0.073  0.00  0.00    +0.044 C 
ENDBRANCH   1  18
BRANCH   1  21
ATOM     21  O   UNL     1       1.123  -1.938   3.392  0.00  0.00    -0.383 OA
ATOM     22  H   UNL     1       0.586  -1.169   3.623  0.00  0.00    +0.211 HD
ENDBRANCH   1  21
TORSDOF 3
