REMARK  Name = ZINC64945843
REMARK  7 active torsions:
REMARK  status: ('A' for Active; 'I' for Inactive)
REMARK    1  A    between atoms: C_1  and  C_2
REMARK    2  A    between atoms: C_4  and  N_11
REMARK    3  A    between atoms: C_5  and  O_9
REMARK    4  A    between atoms: O_9  and  C_10
REMARK    5  A    between atoms: C_12  and  C_14
REMARK    6  A    between atoms: C_14  and  N_15
REMARK    7  A    between atoms: C_29  and  C_33
REMARK                            x       y       z     vdW  Elec       q    Type
REMARK                         _______ _______ _______ _____ _____    ______ ____
ROOT
ATOM      1  N   UNL     1      -0.315  -1.893  -5.995  0.00  0.00    -0.203 N 
ATOM      2  C   UNL     1       0.706  -1.363  -6.702  0.00  0.00    +0.353 A 
ATOM      3  O   UNL     1       1.891  -1.591  -6.533  0.00  0.00    -0.244 OA
ATOM      4  N   UNL     1       0.180  -0.535  -7.629  0.00  0.00    -0.233 N 
ATOM      5  C   UNL     1       0.760   0.245  -8.596  0.00  0.00    +0.211 A 
ATOM      6  N   UNL     1       0.047   0.979  -9.398  0.00  0.00    -0.229 NA
ATOM      7  C   UNL     1      -1.283   1.023  -9.335  0.00  0.00    +0.114 A 
ATOM      8  C   UNL     1      -2.015   0.280  -8.400  0.00  0.00    +0.056 A 
ATOM      9  C   UNL     1      -1.195  -0.558  -7.488  0.00  0.00    +0.173 A 
ATOM     10  N   UNL     1      -1.507  -1.370  -6.518  0.00  0.00    -0.148 NA
ATOM     11  C   UNL     1      -3.424   0.417  -8.436  0.00  0.00    -0.024 A 
ATOM     12  C   UNL     1      -3.951   1.249  -9.366  0.00  0.00    -0.004 A 
ATOM     13  S   UNL     1      -2.545   1.887 -10.238  0.00  0.00    -0.073 S 
ATOM     14  C   UNL     1      -5.397   1.557  -9.599  0.00  0.00    +0.046 C 
ATOM     15  C   UNL     1      -6.240   0.506  -8.863  0.00  0.00    -0.009 C 
ATOM     16  C   UNL     1      -5.699   0.352  -7.439  0.00  0.00    +0.008 C 
ATOM     17  C   UNL     1      -4.335  -0.337  -7.470  0.00  0.00    +0.037 C 
ATOM     18  C   UNL     1      -7.700   0.961  -8.815  0.00  0.00    +0.008 C 
ENDROOT
BRANCH   1  19
ATOM     19  C   UNL     1      -0.199  -2.845  -4.889  0.00  0.00    +0.244 C 
BRANCH  19  21
ATOM     20  N   UNL     1       0.028  -2.768  -2.427  0.00  0.00    -0.281 N 
ATOM     21  C   UNL     1      -0.089  -2.093  -3.588  0.00  0.00    +0.239 C 
ATOM     22  O   UNL     1      -0.106  -0.880  -3.585  0.00  0.00    -0.273 OA
ATOM     23  H   UNL     1       0.123  -3.733  -2.434  0.00  0.00    +0.155 HD
BRANCH  20  27
ATOM     24  C   UNL     1      -1.301   1.185   0.178  0.00  0.00    +0.045 C 
ATOM     25  C   UNL     1      -0.624  -0.157   0.083  0.00  0.00    -0.030 A 
ATOM     26  C   UNL     1      -0.610  -0.839  -1.119  0.00  0.00    +0.031 A 
ATOM     27  C   UNL     1       0.014  -2.075  -1.209  0.00  0.00    +0.076 A 
ATOM     28  C   UNL     1       0.626  -2.626  -0.085  0.00  0.00    +0.143 A 
ATOM     29  C   UNL     1       0.608  -1.937   1.117  0.00  0.00    +0.067 A 
ATOM     30  C   UNL     1      -0.012  -0.702   1.198  0.00  0.00    +0.047 A 
ATOM     31 CL   UNL     1      -0.026   0.163   2.703  0.00  0.00    -0.083 Cl
BRANCH  28  32
ATOM     32  O   UNL     1       1.238  -3.837  -0.167  0.00  0.00    -0.493 OA
ATOM     33  C   UNL     1       1.844  -4.339   1.026  0.00  0.00    +0.277 C 
ENDBRANCH  28  32
ENDBRANCH  20  27
ENDBRANCH  19  21
ENDBRANCH   1  19
TORSDOF 4
