REMARK  Name = ZINC24500172
REMARK  10 active torsions:
REMARK  status: ('A' for Active; 'I' for Inactive)
REMARK    1  A    between atoms: C_1  and  C_2
REMARK    2  A    between atoms: C_2  and  C_3
REMARK    3  A    between atoms: C_3  and  C_4
REMARK    4  A    between atoms: C_4  and  N_5
REMARK    5  A    between atoms: C_11  and  S_12
REMARK    6  A    between atoms: S_12  and  C_13
REMARK    7  A    between atoms: C_13  and  C_15
REMARK    8  A    between atoms: C_13  and  C_16
REMARK    9  A    between atoms: N_18  and  C_19
REMARK   10  A    between atoms: C_23  and  N_25
REMARK                            x       y       z     vdW  Elec       q    Type
REMARK                         _______ _______ _______ _____ _____    ______ ____
ROOT
ATOM      1  C   UNL     1       5.533  -3.045  -2.083  0.00  0.00    +0.137 C 
ATOM      2  C   UNL     1       5.483  -4.532  -2.441  0.00  0.00    +0.029 C 
ENDROOT
BRANCH   1   3
ATOM      3  C   UNL     1       6.667  -2.797  -1.122  0.00  0.00    +0.230 C 
ATOM      4  O   UNL     1       6.457  -2.781   0.073  0.00  0.00    -0.274 OA
ATOM      5  N   UNL     1       7.914  -2.594  -1.590  0.00  0.00    -0.285 N 
ATOM      6  H   UNL     1       8.095  -2.673  -2.539  0.00  0.00    +0.155 HD
BRANCH   5   7
ATOM      7  C   UNL     1       8.949  -2.268  -0.705  0.00  0.00    +0.036 A 
ATOM      8  C   UNL     1       9.951  -1.391  -1.100  0.00  0.00    +0.023 A 
ATOM      9  C   UNL     1      10.970  -1.072  -0.225  0.00  0.00    +0.004 A 
ATOM     10  C   UNL     1      10.994  -1.624   1.043  0.00  0.00    +0.033 A 
ATOM     11  C   UNL     1       9.998  -2.498   1.438  0.00  0.00    +0.128 A 
ATOM     12  C   UNL     1       8.972  -2.817   0.570  0.00  0.00    +0.056 A 
BRANCH  11  13
ATOM     13  N   UNL     1      10.028  -3.087   2.796  0.00  0.00    +0.056 N 
ATOM     14  O   UNL     1      10.922  -2.805   3.558  0.00  0.00    -0.126 OA
ATOM     15  O   UNL     1       9.157  -3.851   3.142  0.00  0.00    -0.126 OA
ENDBRANCH  11  13
ENDBRANCH   5   7
ENDBRANCH   1   3
BRANCH   1  16
ATOM     16  S   UNL     1       3.967  -2.557  -1.309  0.00  0.00    -0.073 S 
BRANCH  16  23
ATOM     17  N   UNL     1       1.426  -2.515  -2.480  0.00  0.00    -0.271 N 
ATOM     18  C   UNL     1       0.846  -2.783  -3.667  0.00  0.00    +0.345 A 
ATOM     19  O   UNL     1      -0.337  -2.670  -3.932  0.00  0.00    -0.245 OA
ATOM     20  N   UNL     1       1.815  -3.199  -4.508  0.00  0.00    -0.226 N 
ATOM     21  H   UNL     1       1.698  -3.463  -5.434  0.00  0.00    +0.194 HD
ATOM     22  N   UNL     1       3.024  -3.180  -3.799  0.00  0.00    -0.145 NA
ATOM     23  C   UNL     1       2.775  -2.764  -2.591  0.00  0.00    +0.193 A 
BRANCH  17  24
ATOM     24  C   UNL     1       0.738  -2.035  -1.279  0.00  0.00    +0.129 C 
BRANCH  24  25
ATOM     25  C   UNL     1       0.715  -0.505  -1.282  0.00  0.00    +0.021 C 
BRANCH  25  27
ATOM     26  C   UNL     1      -0.026   1.527  -0.030  0.00  0.00    +0.004 C 
ATOM     27  C   UNL     1      -0.004  -0.003  -0.027  0.00  0.00    -0.002 C 
ENDBRANCH  25  27
ENDBRANCH  24  25
ENDBRANCH  17  24
ENDBRANCH  16  23
ENDBRANCH   1  16
TORSDOF 8
