REMARK  Name = ZINC15075773
REMARK  11 active torsions:
REMARK  status: ('A' for Active; 'I' for Inactive)
REMARK    1  A    between atoms: C_10  and  C_11
REMARK    2  A    between atoms: C_10  and  N_65
REMARK    3  A    between atoms: C_11  and  C_13
REMARK    4  A    between atoms: C_11  and  O_31
REMARK    5  A    between atoms: C_13  and  O_14
REMARK    6  A    between atoms: O_14  and  C_15
REMARK    7  A    between atoms: C_19  and  C_21
REMARK    8  A    between atoms: C_21  and  N_67
REMARK    9  A    between atoms: C_22  and  C_23
REMARK   10  A    between atoms: C_22  and  N_67
REMARK   11  A    between atoms: C_23  and  N_24
REMARK                            x       y       z     vdW  Elec       q    Type
REMARK                         _______ _______ _______ _____ _____    ______ ____
ROOT
ATOM      1  C   UNL     1      -1.912  -4.237   1.212  0.00  0.00    +0.121 A 
ATOM      2  C   UNL     1      -1.752  -4.894   0.000  0.00  0.00    +0.045 A 
ATOM      3  C   UNL     1      -1.894  -4.199  -1.185  0.00  0.00    +0.004 A 
ATOM      4  C   UNL     1      -2.201  -2.851  -1.165  0.00  0.00    +0.002 A 
ATOM      5  C   UNL     1      -2.356  -2.193   0.041  0.00  0.00    -0.061 A 
ATOM      6  C   UNL     1      -2.215  -2.883   1.229  0.00  0.00    +0.047 A 
ENDROOT
BRANCH   1   7
ATOM      7  O   UNL     1      -1.772  -4.918   2.379  0.00  0.00    -0.489 OA
BRANCH   7   8
ATOM      8  C   UNL     1      -1.460  -6.309   2.285  0.00  0.00    +0.258 C 
BRANCH   8   9
ATOM      9  C   UNL     1      -1.343  -6.902   3.691  0.00  0.00    +0.135 C 
BRANCH   9  10
ATOM     10  O   UNL     1      -2.614  -6.843   4.341  0.00  0.00    -0.390 OA
ATOM     11  H   UNL     1      -3.312  -7.330   3.883  0.00  0.00    +0.210 HD
ENDBRANCH   9  10
BRANCH   9  12
ATOM     12  C   UNL     1      -0.887  -8.359   3.594  0.00  0.00    -0.043 C 
BRANCH  12  22
ATOM     13  C   UNL     1       0.048 -12.033   8.784  0.00  0.00    +0.000 A 
ATOM     14  C   UNL     1      -0.448 -12.822   7.764  0.00  0.00    +0.000 A 
ATOM     15  C   UNL     1      -0.675 -12.273   6.518  0.00  0.00    +0.002 A 
ATOM     16  C   UNL     1      -0.408 -10.932   6.284  0.00  0.00    -0.061 A 
ATOM     17  C   UNL     1       0.084 -10.145   7.303  0.00  0.00    -0.048 A 
ATOM     18  C   UNL     1       0.313 -10.698   8.553  0.00  0.00    +0.004 A 
ATOM     19  C   UNL     1       0.383  -8.682   7.098  0.00  0.00    +0.017 C 
ATOM     20  C   UNL     1       0.467  -8.370   5.604  0.00  0.00    -0.074 C 
ATOM     21  C   UNL     1      -0.668 -10.379   4.907  0.00  0.00    -0.043 C 
ATOM     22  N   UNL     1      -0.749  -8.910   4.960  0.00  0.00    +0.384 N 
ATOM     23  H   UNL     1      -1.570  -8.639   5.514  0.00  0.00    -0.081 HD
ENDBRANCH  12  22
ENDBRANCH   9  12
ENDBRANCH   8   9
ENDBRANCH   7   8
ENDBRANCH   1   7
BRANCH   5  24
ATOM     24  C   UNL     1      -2.685  -0.722   0.059  0.00  0.00    -0.047 C 
BRANCH  24  25
ATOM     25  N   UNL     1      -1.430   0.053   0.080  0.00  0.00    +0.383 N 
ATOM     26  H   UNL     1      -0.880  -0.171  -0.758  0.00  0.00    -0.085 HD
ATOM     27  H   UNL     1      -0.893  -0.194   0.919  0.00  0.00    -0.085 HD
BRANCH  25  28
ATOM     28  C   UNL     1      -1.722   1.499   0.098  0.00  0.00    -0.063 C 
BRANCH  28  29
ATOM     29  C   UNL     1      -0.404   2.277   0.119  0.00  0.00    +0.089 C 
BRANCH  29  30
ATOM     30  N   UNL     1      -0.686   3.714   0.137  0.00  0.00    -0.303 N 
ATOM     31  C   UNL     1      -0.827   4.366   1.433  0.00  0.00    +0.107 C 
ATOM     32  C   UNL     1      -0.644   5.878   1.294  0.00  0.00    +0.019 C 
ATOM     33  C   UNL     1      -1.554   6.381   0.166  0.00  0.00    +0.011 C 
ATOM     34  C   UNL     1      -1.035   5.821  -1.160  0.00  0.00    +0.096 C 
ATOM     35  C   UNL     1      -0.791   4.345  -1.033  0.00  0.00    +0.215 C 
ATOM     36  O   UNL     1      -0.690   3.691  -2.049  0.00  0.00    -0.276 OA
ENDBRANCH  29  30
ENDBRANCH  28  29
ENDBRANCH  25  28
ENDBRANCH  24  25
ENDBRANCH   5  24
TORSDOF 11
