REMARK  Name = ZINC65623267
REMARK  9 active torsions:
REMARK  status: ('A' for Active; 'I' for Inactive)
REMARK    1  A    between atoms: C_1  and  C_2
REMARK    2  A    between atoms: C_2  and  N_3
REMARK    3  A    between atoms: N_6  and  N_7
REMARK    4  A    between atoms: C_8  and  C_10
REMARK    5  A    between atoms: C_10  and  C_11
REMARK    6  A    between atoms: C_11  and  N_12
REMARK    7  A    between atoms: N_12  and  S_13
REMARK    8  A    between atoms: S_13  and  C_16
REMARK    9  A    between atoms: C_19  and  C_22
REMARK                            x       y       z     vdW  Elec       q    Type
REMARK                         _______ _______ _______ _____ _____    ______ ____
ROOT
ATOM      1  N   UNL     1       4.492  -0.620   7.593  0.00  0.00    -0.189 NA
ATOM      2  H   UNL     1       4.586   0.314   7.351  0.00  0.00    +0.148 HD
ENDROOT
BRANCH   1   3
ATOM      3  S   UNL     1       4.957  -1.137   9.096  0.00  0.00    +0.058 S 
ATOM      4  O   UNL     1       5.468   0.001   9.776  0.00  0.00    -0.153 OA
ATOM      5  O   UNL     1       3.882  -1.912   9.609  0.00  0.00    -0.153 OA
BRANCH   3   6
ATOM      6  C   UNL     1       6.311  -2.241   8.871  0.00  0.00    +0.105 A 
ATOM      7  C   UNL     1       6.080  -3.593   8.697  0.00  0.00    +0.029 A 
ATOM      8  C   UNL     1       7.143  -4.459   8.521  0.00  0.00    +0.006 A 
ATOM      9  C   UNL     1       8.437  -3.973   8.519  0.00  0.00    -0.044 A 
ATOM     10  C   UNL     1       8.668  -2.622   8.692  0.00  0.00    +0.006 A 
ATOM     11  C   UNL     1       7.605  -1.755   8.864  0.00  0.00    +0.029 A 
BRANCH   9  12
ATOM     12  C   UNL     1       9.596  -4.918   8.328  0.00  0.00    +0.019 C 
ATOM     13  C   UNL     1      10.513  -4.853   9.550  0.00  0.00    +0.008 C 
ATOM     14  C   UNL     1      11.690  -5.812   9.356  0.00  0.00    +0.001 C 
ATOM     15  C   UNL     1      12.475  -5.409   8.107  0.00  0.00    +0.000 C 
ATOM     16  C   UNL     1      11.558  -5.474   6.884  0.00  0.00    +0.001 C 
ATOM     17  C   UNL     1      10.382  -4.515   7.078  0.00  0.00    +0.008 C 
ENDBRANCH   9  12
ENDBRANCH   3   6
ENDBRANCH   1   3
BRANCH   1  18
ATOM     18  C   UNL     1       3.939  -1.575   6.628  0.00  0.00    +0.115 C 
BRANCH  18  19
ATOM     19  C   UNL     1       3.255  -0.812   5.492  0.00  0.00    +0.114 C 
BRANCH  19  21
ATOM     20  N   UNL     1       2.034  -1.348   3.408  0.00  0.00    -0.233 N 
ATOM     21  C   UNL     1       2.686  -1.794   4.500  0.00  0.00    +0.230 C 
ATOM     22  O   UNL     1       2.815  -2.986   4.684  0.00  0.00    -0.274 OA
ATOM     23  H   UNL     1       1.931  -0.394   3.260  0.00  0.00    +0.173 HD
BRANCH  20  27
ATOM     24  N   UNL     1       0.711  -0.489   1.189  0.00  0.00    -0.298 N 
ATOM     25  C   UNL     1       0.854  -1.814   1.394  0.00  0.00    +0.316 C 
ATOM     26  O   UNL     1       0.395  -2.606   0.593  0.00  0.00    -0.251 OA
ATOM     27  N   UNL     1       1.506  -2.260   2.486  0.00  0.00    -0.218 N 
ATOM     28  H   UNL     1       1.077   0.142   1.827  0.00  0.00    +0.150 HD
ATOM     29  H   UNL     1       1.609  -3.213   2.633  0.00  0.00    +0.174 HD
BRANCH  24  31
ATOM     30  C   UNL     1      -0.019   1.526   0.010  0.00  0.00    +0.024 C 
ATOM     31  C   UNL     1       0.002  -0.004   0.002  0.00  0.00    +0.102 C 
ENDBRANCH  24  31
ENDBRANCH  20  27
ENDBRANCH  19  21
ENDBRANCH  18  19
ENDBRANCH   1  18
TORSDOF 8
