REMARK  Name = ZINC09620166
REMARK  5 active torsions:
REMARK  status: ('A' for Active; 'I' for Inactive)
REMARK    1  A    between atoms: C_1  and  C_2
REMARK    2  A    between atoms: C_2  and  C_3
REMARK    3  A    between atoms: C_2  and  S_4
REMARK    4  A    between atoms: S_4  and  C_5
REMARK    5  A    between atoms: C_8  and  C_11
REMARK                            x       y       z     vdW  Elec       q    Type
REMARK                         _______ _______ _______ _____ _____    ______ ____
ROOT
ATOM      1  C   UNL     1       0.237   1.038  -0.137  0.00  0.00    +0.250 C 
ATOM      2  O   UNL     1      -0.859   1.564  -0.122  0.00  0.00    -0.270 OA
ATOM      3  N   UNL     1       0.339  -0.305  -0.181  0.00  0.00    -0.261 N 
ATOM      4  C   UNL     1      -0.804  -1.086  -0.204  0.00  0.00    +0.166 A 
ATOM      5  N   UNL     1      -0.910  -2.396  -0.247  0.00  0.00    -0.224 NA
ATOM      6  C   UNL     1      -2.093  -3.026  -0.266  0.00  0.00    +0.088 A 
ATOM      7  C   UNL     1      -2.360  -4.477  -0.313  0.00  0.00    +0.009 A 
ATOM      8  C   UNL     1      -1.300  -5.391  -0.345  0.00  0.00    +0.010 A 
ATOM      9  C   UNL     1      -1.565  -6.728  -0.388  0.00  0.00    +0.001 A 
ATOM     10  C   UNL     1      -2.876  -7.194  -0.401  0.00  0.00    +0.001 A 
ATOM     11  C   UNL     1      -3.929  -6.330  -0.369  0.00  0.00    +0.008 A 
ATOM     12  C   UNL     1      -3.691  -4.944  -0.325  0.00  0.00    -0.016 A 
ATOM     13  C   UNL     1      -4.766  -4.034  -0.294  0.00  0.00    +0.010 A 
ATOM     14  C   UNL     1      -4.523  -2.697  -0.251  0.00  0.00    +0.018 A 
ATOM     15  C   UNL     1      -3.232  -2.201  -0.237  0.00  0.00    +0.041 A 
ATOM     16  S   UNL     1      -2.517  -0.575  -0.177  0.00  0.00    -0.052 S 
ATOM     17  H   UNL     1       1.214  -0.725  -0.196  0.00  0.00    +0.157 HD
ENDROOT
BRANCH   1  21
ATOM     18  C   UNL     1       3.738   3.430  -0.064  0.00  0.00    +0.008 A 
ATOM     19  C   UNL     1       2.483   4.034  -0.042  0.00  0.00    +0.015 A 
ATOM     20  C   UNL     1       1.349   3.264  -0.065  0.00  0.00    +0.014 A 
ATOM     21  C   UNL     1       1.454   1.870  -0.111  0.00  0.00    +0.037 A 
ATOM     22  C   UNL     1       2.715   1.266  -0.127  0.00  0.00    +0.014 A 
ATOM     23  C   UNL     1       3.845   2.042  -0.110  0.00  0.00    +0.015 A 
BRANCH  18  24
ATOM     24  S   UNL     1       5.192   4.424  -0.034  0.00  0.00    -0.122 S 
BRANCH  24  26
ATOM     25  C   UNL     1       5.822   3.462   2.449  0.00  0.00    +0.019 C 
ATOM     26  C   UNL     1       5.456   4.762   1.729  0.00  0.00    +0.045 C 
ATOM     27  C   UNL     1       6.595   5.772   1.890  0.00  0.00    +0.019 C 
ENDBRANCH  24  26
ENDBRANCH  18  24
ENDBRANCH   1  21
TORSDOF 3
