REMARK  Name = ZINC36555369
REMARK  14 active torsions:
REMARK  status: ('A' for Active; 'I' for Inactive)
REMARK    1  A    between atoms: C_1  and  C_2
REMARK    2  A    between atoms: C_2  and  C_3
REMARK    3  A    between atoms: C_3  and  C_4
REMARK    4  A    between atoms: C_4  and  N_5
REMARK    5  A    between atoms: C_6  and  C_8
REMARK    6  A    between atoms: C_8  and  C_10
REMARK    7  A    between atoms: C_8  and  N_17
REMARK    8  A    between atoms: C_15  and  O_16
REMARK    9  A    between atoms: N_17  and  C_18
REMARK   10  A    between atoms: C_18  and  C_19
REMARK   11  A    between atoms: C_22  and  C_24
REMARK   12  A    between atoms: C_25  and  C_27
REMARK   13  A    between atoms: C_27  and  C_35
REMARK   14  A    between atoms: C_28  and  C_29
REMARK                            x       y       z     vdW  Elec       q    Type
REMARK                         _______ _______ _______ _____ _____    ______ ____
ROOT
ATOM      1  N   UNL     1       2.409  -6.909  -5.366  0.00  0.00    -0.274 N 
ATOM      2  C   UNL     1       1.298  -6.593  -6.061  0.00  0.00    +0.248 C 
ATOM      3  O   UNL     1       0.347  -7.352  -6.067  0.00  0.00    -0.270 OA
ENDROOT
BRANCH   2   4
ATOM      4  C   UNL     1       1.235  -5.329  -6.813  0.00  0.00    +0.045 C 
ATOM      5  C   UNL     1       0.919  -5.340  -8.136  0.00  0.00    +0.021 C 
BRANCH   5   6
ATOM      6  C   UNL     1       0.667  -4.076  -8.841  0.00  0.00    -0.024 A 
ATOM      7  C   UNL     1       1.116  -3.901 -10.155  0.00  0.00    +0.008 A 
ATOM      8  C   UNL     1       0.875  -2.712 -10.810  0.00  0.00    +0.001 A 
ATOM      9  C   UNL     1       0.190  -1.693 -10.172  0.00  0.00    +0.000 A 
ATOM     10  C   UNL     1      -0.257  -1.857  -8.872  0.00  0.00    +0.001 A 
ATOM     11  C   UNL     1      -0.029  -3.042  -8.205  0.00  0.00    +0.008 A 
ENDBRANCH   5   6
BRANCH   4  12
ATOM     12  C   UNL     1       1.515  -4.046  -6.129  0.00  0.00    -0.013 A 
ATOM     13  C   UNL     1       0.930  -3.768  -4.893  0.00  0.00    +0.008 A 
ATOM     14  C   UNL     1       1.195  -2.571  -4.261  0.00  0.00    +0.001 A 
ATOM     15  C   UNL     1       2.038  -1.646  -4.850  0.00  0.00    +0.000 A 
ATOM     16  C   UNL     1       2.621  -1.915  -6.076  0.00  0.00    +0.001 A 
ATOM     17  C   UNL     1       2.369  -3.111  -6.715  0.00  0.00    +0.008 A 
ENDBRANCH   4  12
ENDBRANCH   2   4
BRANCH   1  18
ATOM     18  C   UNL     1       3.509  -5.946  -5.267  0.00  0.00    +0.196 C 
BRANCH  18  19
ATOM     19  C   UNL     1       4.613  -6.346  -6.211  0.00  0.00    +0.023 A 
ATOM     20  C   UNL     1       4.790  -7.674  -6.546  0.00  0.00    +0.009 A 
ATOM     21  C   UNL     1       5.802  -8.041  -7.412  0.00  0.00    +0.001 A 
ATOM     22  C   UNL     1       6.641  -7.080  -7.946  0.00  0.00    +0.004 A 
ATOM     23  C   UNL     1       6.468  -5.750  -7.615  0.00  0.00    +0.046 A 
ATOM     24  C   UNL     1       5.449  -5.379  -6.750  0.00  0.00    +0.122 A 
BRANCH  24  25
ATOM     25  O   UNL     1       5.273  -4.070  -6.427  0.00  0.00    -0.506 OA
ATOM     26  H   UNL     1       5.839  -3.764  -5.705  0.00  0.00    +0.292 HD
ENDBRANCH  24  25
ENDBRANCH  18  19
BRANCH  18  28
ATOM     27  N   UNL     1       4.713  -4.858  -3.400  0.00  0.00    -0.313 N 
ATOM     28  C   UNL     1       4.036  -5.931  -3.855  0.00  0.00    +0.238 C 
ATOM     29  O   UNL     1       3.852  -6.884  -3.128  0.00  0.00    -0.273 OA
ATOM     30  H   UNL     1       4.922  -4.125  -4.001  0.00  0.00    +0.149 HD
BRANCH  27  31
ATOM     31  C   UNL     1       5.135  -4.798  -1.998  0.00  0.00    +0.104 C 
BRANCH  31  32
ATOM     32  C   UNL     1       5.879  -3.485  -1.745  0.00  0.00    +0.018 C 
BRANCH  32  34
ATOM     33  C   UNL     1       7.063  -2.110  -0.028  0.00  0.00    +0.004 C 
ATOM     34  C   UNL     1       6.319  -3.423  -0.281  0.00  0.00    -0.002 C 
ENDBRANCH  32  34
ENDBRANCH  31  32
ENDBRANCH  27  31
ENDBRANCH  18  28
ENDBRANCH   1  18
BRANCH   1  35
ATOM     35  C   UNL     1       2.516  -8.214  -4.711  0.00  0.00    +0.183 C 
BRANCH  35  36
ATOM     36  C   UNL     1       1.637  -8.236  -3.487  0.00  0.00    +0.122 A 
ATOM     37  C   UNL     1       0.381  -8.714  -3.429  0.00  0.00    +0.046 A 
ATOM     38  C   UNL     1      -0.064  -8.537  -2.099  0.00  0.00    +0.045 A 
ATOM     39  C   UNL     1       0.947  -7.962  -1.423  0.00  0.00    +0.102 A 
ATOM     40  O   UNL     1       1.977  -7.787  -2.268  0.00  0.00    -0.463 OA
ATOM     41  C   UNL     1       0.930  -7.582   0.035  0.00  0.00    +0.086 C 
ENDBRANCH  35  36
ENDBRANCH   1  35
TORSDOF 12
