REMARK  Name = ZINC22803137
REMARK  7 active torsions:
REMARK  status: ('A' for Active; 'I' for Inactive)
REMARK    1  A    between atoms: C_1  and  C_2
REMARK    2  A    between atoms: C_2  and  C_29
REMARK    3  A    between atoms: N_5  and  N_9
REMARK    4  A    between atoms: C_10  and  C_12
REMARK    5  A    between atoms: C_12  and  N_13
REMARK    6  A    between atoms: N_16  and  C_19
REMARK    7  A    between atoms: C_19  and  C_20
REMARK                            x       y       z     vdW  Elec       q    Type
REMARK                         _______ _______ _______ _____ _____    ______ ____
ROOT
ATOM      1  N   UNL     1      -0.002  10.253  -6.856  0.00  0.00    -0.225 N 
ATOM      2  C   UNL     1      -0.151   9.783  -5.601  0.00  0.00    +0.213 C 
ATOM      3  O   UNL     1       0.773   9.226  -5.048  0.00  0.00    -0.276 OA
ATOM      4  H   UNL     1      -0.840  10.758  -7.357  0.00  0.00    +0.173 HD
ENDROOT
BRANCH   1   9
ATOM      5  C   UNL     1       2.975   9.821 -10.385  0.00  0.00    +0.047 C 
ATOM      6  C   UNL     1       2.887   9.396  -8.918  0.00  0.00    +0.137 C 
ATOM      7  C   UNL     1       1.441   9.204  -8.505  0.00  0.00    +0.267 C 
ATOM      8  O   UNL     1       0.647   8.412  -8.965  0.00  0.00    -0.271 OA
ATOM      9  N   UNL     1       1.222  10.098  -7.520  0.00  0.00    -0.137 N 
ATOM     10  C   UNL     1       2.316  10.824  -7.260  0.00  0.00    +0.327 C 
ATOM     11  O   UNL     1       2.362  11.697  -6.416  0.00  0.00    -0.251 OA
ATOM     12  N   UNL     1       3.359  10.477  -8.036  0.00  0.00    -0.280 N 
ATOM     13  H   UNL     1       4.397  10.832  -8.109  0.00  0.00    +0.152 HD
BRANCH   6  14
ATOM     14  C   UNL     1       3.677   8.135  -8.681  0.00  0.00    -0.015 A 
ATOM     15  C   UNL     1       3.053   6.903  -8.756  0.00  0.00    +0.006 A 
ATOM     16  C   UNL     1       3.780   5.746  -8.544  0.00  0.00    +0.000 A 
ATOM     17  C   UNL     1       5.127   5.821  -8.246  0.00  0.00    +0.000 A 
ATOM     18  C   UNL     1       5.750   7.053  -8.165  0.00  0.00    +0.000 A 
ATOM     19  C   UNL     1       5.025   8.210  -8.383  0.00  0.00    +0.006 A 
ENDBRANCH   6  14
ENDBRANCH   1   9
BRANCH   2  20
ATOM     20  C   UNL     1      -1.467   9.949  -4.886  0.00  0.00    +0.020 C 
BRANCH  20  21
ATOM     21  N   UNL     1      -1.330   9.494  -3.496  0.00  0.00    +0.387 N 
ATOM     22  C   UNL     1      -0.418  10.367  -2.744  0.00  0.00    -0.063 C 
ATOM     23  C   UNL     1      -0.241   9.814  -1.327  0.00  0.00    +0.066 C 
ATOM     24  N   UNL     1      -1.552   9.734  -0.668  0.00  0.00    -0.300 NA
ATOM     25  C   UNL     1      -2.464   8.861  -1.421  0.00  0.00    +0.066 C 
ATOM     26  C   UNL     1      -2.641   9.413  -2.837  0.00  0.00    -0.063 C 
ATOM     27  H   UNL     1      -0.896   8.483  -3.514  0.00  0.00    -0.081 HD
BRANCH  24  28
ATOM     28  C   UNL     1      -1.415   9.278   0.722  0.00  0.00    +0.147 C 
BRANCH  28  29
ATOM     29  C   UNL     1      -2.732   9.441   1.436  0.00  0.00    +0.093 A 
ATOM     30  N   UNL     1      -3.708   8.584   1.536  0.00  0.00    -0.243 NA
ATOM     31  C   UNL     1      -4.845   8.855   2.210  0.00  0.00    +0.079 A 
ATOM     32  C   UNL     1      -5.981   8.039   2.406  0.00  0.00    +0.029 A 
ATOM     33  C   UNL     1      -7.045   8.489   3.124  0.00  0.00    +0.002 A 
ATOM     34  C   UNL     1      -7.058   9.758   3.688  0.00  0.00    +0.001 A 
ATOM     35  C   UNL     1      -5.968  10.589   3.514  0.00  0.00    +0.017 A 
ATOM     36  C   UNL     1      -4.886  10.141   2.795  0.00  0.00    +0.039 A 
ATOM     37  S   UNL     1      -3.314  10.815   2.323  0.00  0.00    -0.071 S 
ENDBRANCH  28  29
ENDBRANCH  24  28
ENDBRANCH  20  21
ENDBRANCH   2  20
TORSDOF 6
