REMARK  Name = ZINC19925315
REMARK  4 active torsions:
REMARK  status: ('A' for Active; 'I' for Inactive)
REMARK    1  A    between atoms: C_1  and  C_2
REMARK    2  A    between atoms: C_4  and  C_24
REMARK    3  A    between atoms: N_11  and  C_12
REMARK    4  A    between atoms: N_11  and  C_18
REMARK                            x       y       z     vdW  Elec       q    Type
REMARK                         _______ _______ _______ _____ _____    ______ ____
ROOT
ATOM      1  C   UNL     1      -0.627   0.975  -0.136  0.00  0.00    +0.019 C 
ATOM      2  C   UNL     1      -0.142  -0.456   0.104  0.00  0.00    +0.092 C 
ATOM      3  C   UNL     1      -1.349  -1.397   0.170  0.00  0.00    +0.095 C 
ATOM      4  S   UNL     1      -2.393  -0.887   1.559  0.00  0.00    -0.083 S 
ATOM      5  C   UNL     1      -1.182  -0.899   2.839  0.00  0.00    +0.158 C 
ATOM      6  N   UNL     1       0.093  -0.712   2.573  0.00  0.00    -0.158 NA
ATOM      7  C   UNL     1       0.624  -0.512   1.391  0.00  0.00    +0.242 C 
ATOM      8  O   UNL     1       1.828  -0.360   1.335  0.00  0.00    -0.273 OA
ATOM      9  N   UNL     1      -1.574  -1.108   4.132  0.00  0.00    -0.251 N 
ENDROOT
BRANCH   9  10
ATOM     10  C   UNL     1      -0.622  -1.129   5.158  0.00  0.00    +0.040 A 
ATOM     11  C   UNL     1      -0.601  -0.118   6.109  0.00  0.00    +0.024 A 
ATOM     12  C   UNL     1       0.337  -0.144   7.122  0.00  0.00    +0.002 A 
ATOM     13  C   UNL     1       1.262  -1.170   7.184  0.00  0.00    +0.000 A 
ATOM     14  C   UNL     1       1.247  -2.176   6.236  0.00  0.00    +0.002 A 
ATOM     15  C   UNL     1       0.308  -2.159   5.223  0.00  0.00    +0.024 A 
ENDBRANCH   9  10
BRANCH   9  16
ATOM     16  C   UNL     1      -2.928  -1.301   4.430  0.00  0.00    +0.040 A 
ATOM     17  C   UNL     1      -3.825  -0.248   4.303  0.00  0.00    +0.024 A 
ATOM     18  C   UNL     1      -5.161  -0.443   4.593  0.00  0.00    +0.002 A 
ATOM     19  C   UNL     1      -5.604  -1.681   5.021  0.00  0.00    +0.000 A 
ATOM     20  C   UNL     1      -4.713  -2.730   5.154  0.00  0.00    +0.002 A 
ATOM     21  C   UNL     1      -3.376  -2.543   4.860  0.00  0.00    +0.024 A 
ENDBRANCH   9  16
BRANCH   3  22
ATOM     22  C   UNL     1      -2.135  -1.307  -1.112  0.00  0.00    -0.033 A 
ATOM     23  C   UNL     1      -2.039  -2.314  -2.055  0.00  0.00    +0.005 A 
ATOM     24  C   UNL     1      -2.764  -2.233  -3.229  0.00  0.00    +0.000 A 
ATOM     25  C   UNL     1      -3.578  -1.140  -3.465  0.00  0.00    +0.000 A 
ATOM     26  C   UNL     1      -3.670  -0.131  -2.525  0.00  0.00    +0.000 A 
ATOM     27  C   UNL     1      -2.949  -0.214  -1.349  0.00  0.00    +0.005 A 
ENDBRANCH   3  22
TORSDOF 3
