REMARK  Name = ZINC39500809
REMARK  5 active torsions:
REMARK  status: ('A' for Active; 'I' for Inactive)
REMARK    1  A    between atoms: C_8  and  C_11
REMARK    2  A    between atoms: C_14  and  N_17
REMARK    3  A    between atoms: C_18  and  C_20
REMARK    4  A    between atoms: N_25  and  C_26
REMARK    5  A    between atoms: C_26  and  C_27
REMARK                            x       y       z     vdW  Elec       q    Type
REMARK                         _______ _______ _______ _____ _____    ______ ____
ROOT
ATOM      1  C   UNL     1       3.427  -2.921   1.182  0.00  0.00    +0.011 A 
ATOM      2  C   UNL     1       3.989  -4.179   1.061  0.00  0.00    +0.011 A 
ATOM      3  C   UNL     1       4.430  -4.851   2.184  0.00  0.00    +0.024 A 
ATOM      4  C   UNL     1       4.310  -4.262   3.436  0.00  0.00    +0.033 A 
ATOM      5  C   UNL     1       3.746  -2.998   3.554  0.00  0.00    +0.024 A 
ATOM      6  C   UNL     1       3.311  -2.329   2.427  0.00  0.00    +0.011 A 
ENDROOT
BRANCH   1  14
ATOM      7  C   UNL     1       1.986  -4.211  -4.104  0.00  0.00    +0.002 A 
ATOM      8  C   UNL     1       0.714  -4.185  -3.562  0.00  0.00    +0.004 A 
ATOM      9  C   UNL     1       0.504  -3.649  -2.306  0.00  0.00    +0.047 A 
ATOM     10  C   UNL     1       1.569  -3.132  -1.580  0.00  0.00    +0.144 A 
ATOM     11  C   UNL     1       2.848  -3.159  -2.126  0.00  0.00    +0.072 A 
ATOM     12  C   UNL     1       3.052  -3.699  -3.389  0.00  0.00    +0.027 A 
ATOM     13  N   UNL     1       3.745  -2.586  -1.214  0.00  0.00    -0.303 N 
ATOM     14  C   UNL     1       2.947  -2.191  -0.045  0.00  0.00    +0.292 C 
ATOM     15  O   UNL     1       1.599  -2.562  -0.345  0.00  0.00    -0.465 OA
ATOM     16  H   UNL     1       4.701  -2.473  -1.330  0.00  0.00    +0.150 HD
ENDBRANCH   1  14
BRANCH   4  17
ATOM     17  N   UNL     1       4.755  -4.940   4.576  0.00  0.00    -0.287 N 
ATOM     18  C   UNL     1       5.827  -5.754   4.500  0.00  0.00    +0.204 C 
ATOM     19  O   UNL     1       6.462  -5.825   3.469  0.00  0.00    -0.277 OA
ATOM     20  H   UNL     1       4.293  -4.824   5.421  0.00  0.00    +0.155 HD
BRANCH  18  21
ATOM     21  C   UNL     1       6.236  -6.575   5.695  0.00  0.00    +0.020 C 
ATOM     22  C   UNL     1       5.102  -7.552   6.074  0.00  0.00    -0.008 C 
ATOM     23  C   UNL     1       5.537  -8.874   5.388  0.00  0.00    -0.020 C 
ATOM     24  C   UNL     1       7.077  -8.815   5.543  0.00  0.00    -0.078 C 
ATOM     25  N   UNL     1       7.423  -7.385   5.365  0.00  0.00    +0.390 N 
ATOM     26  H   UNL     1       7.693  -7.217   4.408  0.00  0.00    -0.081 HD
BRANCH  25  27
ATOM     27  C   UNL     1       8.530  -7.026   6.261  0.00  0.00    -0.027 C 
BRANCH  27  28
ATOM     28  C   UNL     1       9.794  -7.777   5.835  0.00  0.00    +0.204 C 
ATOM     29  N   UNL     1      10.107  -7.485   4.431  0.00  0.00    -0.266 NA
ATOM     30  C   UNL     1      10.068  -8.604   3.789  0.00  0.00    +0.126 C 
ATOM     31  C   UNL     1       9.730  -9.697   4.715  0.00  0.00    +0.126 C 
ATOM     32  N   UNL     1       9.569  -9.227   5.906  0.00  0.00    -0.266 NA
ENDBRANCH  27  28
ENDBRANCH  25  27
ENDBRANCH  18  21
ENDBRANCH   4  17
TORSDOF 5
