REMARK  Name = ZINC04275308
REMARK  9 active torsions:
REMARK  status: ('A' for Active; 'I' for Inactive)
REMARK    1  A    between atoms: C_1  and  C_2
REMARK    2  A    between atoms: C_2  and  C_4
REMARK    3  A    between atoms: C_7  and  C_10
REMARK    4  A    between atoms: N_12  and  C_13
REMARK    5  A    between atoms: C_14  and  C_25
REMARK    6  A    between atoms: C_18  and  C_23
REMARK    7  A    between atoms: C_18  and  C_24
REMARK    8  A    between atoms: C_19  and  C_21
REMARK    9  A    between atoms: C_19  and  C_22
REMARK                            x       y       z     vdW  Elec       q    Type
REMARK                         _______ _______ _______ _____ _____    ______ ____
ROOT
ATOM      1  C   UNL     1      -4.782   1.819  -1.378  0.00  0.00    +0.090 A 
ATOM      2  C   UNL     1      -4.127   1.055  -0.420  0.00  0.00    +0.084 A 
ATOM      3  C   UNL     1      -2.980   1.649   0.236  0.00  0.00    -0.021 A 
ATOM      4  C   UNL     1      -2.664   2.902  -0.168  0.00  0.00    -0.015 A 
ATOM      5  S   UNL     1      -3.876   3.296  -1.395  0.00  0.00    -0.078 S 
ATOM      6  C   UNL     1      -1.534   3.743   0.331  0.00  0.00    -0.041 C 
ATOM      7  C   UNL     1      -0.732   1.578   1.272  0.00  0.00    -0.069 C 
ATOM      8  C   UNL     1      -2.144   0.986   1.322  0.00  0.00    +0.024 C 
ATOM      9  C   UNL     1      -0.017   1.072   0.016  0.00  0.00    -0.010 C 
ATOM     10  C   UNL     1       0.041   1.049   2.496  0.00  0.00    -0.010 C 
ATOM     11  C   UNL     1      -2.130   5.008   0.982  0.00  0.00    -0.005 C 
ATOM     12  C   UNL     1      -0.661   4.188  -0.848  0.00  0.00    -0.005 C 
ATOM     13  N   UNL     1      -0.713   3.059   1.369  0.00  0.00    +0.389 N 
ATOM     14  H   UNL     1      -1.073   3.327   2.293  0.00  0.00    -0.084 HD
ATOM     15  H   UNL     1       0.258   3.377   1.275  0.00  0.00    -0.084 HD
ENDROOT
BRANCH   1  18
ATOM     16  C   UNL     1      -6.395   2.358  -3.026  0.00  0.00    +0.249 C 
ATOM     17  O   UNL     1      -5.875   3.448  -3.164  0.00  0.00    -0.270 OA
ATOM     18  N   UNL     1      -5.893   1.480  -2.136  0.00  0.00    -0.275 N 
ATOM     19  H   UNL     1      -6.308   0.610  -2.025  0.00  0.00    +0.156 HD
BRANCH  16  23
ATOM     20  C   UNL     1      -9.802   1.316  -5.351  0.00  0.00    +0.017 A 
ATOM     21  C   UNL     1      -9.204   2.570  -5.510  0.00  0.00    +0.012 A 
ATOM     22  C   UNL     1      -8.101   2.906  -4.756  0.00  0.00    +0.014 A 
ATOM     23  C   UNL     1      -7.580   1.996  -3.835  0.00  0.00    +0.037 A 
ATOM     24  C   UNL     1      -8.174   0.742  -3.679  0.00  0.00    +0.014 A 
ATOM     25  C   UNL     1      -9.280   0.405  -4.428  0.00  0.00    +0.012 A 
BRANCH  20  27
ATOM     26  C   UNL     1     -11.552  -0.437  -6.077  0.00  0.00    +0.091 C 
ATOM     27  C   UNL     1     -10.983   0.956  -6.157  0.00  0.00    +0.160 C 
ATOM     28  O   UNL     1     -11.496   1.780  -6.883  0.00  0.00    -0.292 OA
ENDBRANCH  20  27
ENDBRANCH  16  23
ENDBRANCH   1  18
BRANCH   2  29
ATOM     29  C   UNL     1      -4.578  -0.265  -0.099  0.00  0.00    +0.102 C 
ATOM     30  N   UNL     1      -4.937  -1.313   0.156  0.00  0.00    -0.191 NA
ENDBRANCH   2  29
TORSDOF 4
