REMARK  Name = ZINC09915154
REMARK  7 active torsions:
REMARK  status: ('A' for Active; 'I' for Inactive)
REMARK    1  A    between atoms: C_4  and  C_7
REMARK    2  A    between atoms: C_7  and  C_8
REMARK    3  A    between atoms: C_7  and  N_14
REMARK    4  A    between atoms: C_15  and  C_17
REMARK    5  A    between atoms: N_19  and  C_20
REMARK    6  A    between atoms: C_20  and  C_21
REMARK    7  A    between atoms: C_21  and  C_22
REMARK                            x       y       z     vdW  Elec       q    Type
REMARK                         _______ _______ _______ _____ _____    ______ ____
ROOT
ATOM      1  N   UNL     1      -1.041  -0.511   0.897  0.00  0.00    -0.297 N 
ATOM      2  C   UNL     1      -0.918  -1.735   1.449  0.00  0.00    +0.300 C 
ATOM      3  O   UNL     1       0.056  -2.416   1.204  0.00  0.00    -0.265 OA
ATOM      4  H   UNL     1      -1.819   0.033   1.093  0.00  0.00    +0.150 HD
ENDROOT
BRANCH   2   5
ATOM      5  C   UNL     1      -1.982  -2.253   2.362  0.00  0.00    +0.299 C 
ATOM      6  O   UNL     1      -2.956  -1.571   2.607  0.00  0.00    -0.265 OA
ATOM      7  N   UNL     1      -1.860  -3.476   2.914  0.00  0.00    -0.307 N 
ATOM      8  H   UNL     1      -1.081  -4.021   2.719  0.00  0.00    +0.149 HD
BRANCH   7   9
ATOM      9  C   UNL     1      -2.903  -3.984   3.809  0.00  0.00    +0.109 C 
BRANCH   9  10
ATOM     10  C   UNL     1      -2.522  -5.384   4.294  0.00  0.00    +0.049 C 
BRANCH  10  11
ATOM     11  C   UNL     1      -3.594  -5.906   5.215  0.00  0.00    -0.072 C 
ATOM     12  C   UNL     1      -4.518  -6.657   4.706  0.00  0.00    -0.028 C 
ATOM     13  C   UNL     1      -5.654  -7.242   5.493  0.00  0.00    +0.027 C 
ATOM     14  C   UNL     1      -5.340  -7.190   6.990  0.00  0.00    +0.004 C 
ATOM     15  C   UNL     1      -4.876  -5.770   7.340  0.00  0.00    +0.005 C 
ATOM     16  C   UNL     1      -3.522  -5.527   6.665  0.00  0.00    +0.030 C 
ENDBRANCH  10  11
ENDBRANCH   9  10
ENDBRANCH   7   9
ENDBRANCH   2   5
BRANCH   1  17
ATOM     17  C   UNL     1       0.002  -0.004   0.002  0.00  0.00    +0.134 C 
BRANCH  17  21
ATOM     18  C   UNL     1      -0.056   4.267   0.025  0.00  0.00    +0.000 A 
ATOM     19  C   UNL     1       1.151   3.592   0.010  0.00  0.00    +0.000 A 
ATOM     20  C   UNL     1       1.169   2.210   0.003  0.00  0.00    +0.006 A 
ATOM     21  C   UNL     1      -0.018   1.503   0.010  0.00  0.00    -0.023 A 
ATOM     22  C   UNL     1      -1.225   2.178   0.020  0.00  0.00    +0.006 A 
ATOM     23  C   UNL     1      -1.244   3.560   0.032  0.00  0.00    +0.000 A 
ENDBRANCH  17  21
BRANCH  17  24
ATOM     24  C   UNL     1      -0.251  -0.502  -1.398  0.00  0.00    -0.023 A 
ATOM     25  C   UNL     1      -1.542  -0.557  -1.889  0.00  0.00    +0.006 A 
ATOM     26  C   UNL     1      -1.774  -1.009  -3.174  0.00  0.00    +0.000 A 
ATOM     27  C   UNL     1      -0.716  -1.416  -3.965  0.00  0.00    +0.000 A 
ATOM     28  C   UNL     1       0.575  -1.367  -3.472  0.00  0.00    +0.000 A 
ATOM     29  C   UNL     1       0.807  -0.910  -2.188  0.00  0.00    +0.006 A 
ENDBRANCH  17  24
ENDBRANCH   1  17
TORSDOF 7
