REMARK  Name = ZINC37516321
REMARK  4 active torsions:
REMARK  status: ('A' for Active; 'I' for Inactive)
REMARK    1  A    between atoms: C_5  and  N_7
REMARK    2  A    between atoms: N_7  and  C_8
REMARK    3  A    between atoms: C_8  and  C_9
REMARK    4  A    between atoms: C_12  and  N_16
REMARK                            x       y       z     vdW  Elec       q    Type
REMARK                         _______ _______ _______ _____ _____    ______ ____
ROOT
ATOM      1  C   UNL     1      -0.019  -2.831  -0.013  0.00  0.00    +0.138 C 
ENDROOT
BRANCH   1   2
ATOM      2  C   UNL     1       0.280  -4.308  -0.025  0.00  0.00    -0.016 A 
ATOM      3  C   UNL     1       0.207  -5.019  -1.208  0.00  0.00    +0.008 A 
ATOM      4  C   UNL     1       0.482  -6.373  -1.218  0.00  0.00    +0.033 A 
ATOM      5  C   UNL     1       0.830  -7.018  -0.046  0.00  0.00    +0.127 A 
ATOM      6  C   UNL     1       0.903  -6.308   1.138  0.00  0.00    +0.048 A 
ATOM      7  C   UNL     1       0.633  -4.951   1.148  0.00  0.00    +0.025 A 
ATOM      8 BR   UNL     1       0.740  -3.978   2.766  0.00  0.00    -0.050 Br
BRANCH   5   9
ATOM      9  N   UNL     1       1.123  -8.468  -0.058  0.00  0.00    +0.056 N 
ATOM     10  O   UNL     1       1.059  -9.089  -1.093  0.00  0.00    -0.126 OA
ATOM     11  O   UNL     1       1.427  -9.032   0.968  0.00  0.00    -0.126 OA
ENDBRANCH   5   9
ENDBRANCH   1   2
BRANCH   1  12
ATOM     12  N   UNL     1       1.237  -2.078  -0.021  0.00  0.00    -0.339 N 
ATOM     13  H   UNL     1       2.085  -2.549  -0.033  0.00  0.00    +0.146 HD
BRANCH  12  18
ATOM     14  C   UNL     1      -0.017   1.377   0.010  0.00  0.00    +0.002 A 
ATOM     15  C   UNL     1       1.170   2.086   0.002  0.00  0.00    +0.001 A 
ATOM     16  C   UNL     1       2.380   1.417  -0.013  0.00  0.00    +0.017 A 
ATOM     17  C   UNL     1       2.406   0.035  -0.021  0.00  0.00    +0.039 A 
ATOM     18  C   UNL     1       1.215  -0.681  -0.013  0.00  0.00    +0.042 A 
ATOM     19  C   UNL     1       0.002  -0.004   0.002  0.00  0.00    +0.024 A 
ATOM     20 BR   UNL     1       4.061  -0.880  -0.043  0.00  0.00    -0.048 Br
ENDBRANCH  12  18
ENDBRANCH   1  12
TORSDOF 4
