REMARK  Name = ZINC24799466
REMARK  11 active torsions:
REMARK  status: ('A' for Active; 'I' for Inactive)
REMARK    1  A    between atoms: C_1  and  C_2
REMARK    2  A    between atoms: C_2  and  C_3
REMARK    3  A    between atoms: C_3  and  C_26
REMARK    4  A    between atoms: N_6  and  N_10
REMARK    5  A    between atoms: C_11  and  C_13
REMARK    6  A    between atoms: C_13  and  N_14
REMARK    7  A    between atoms: N_14  and  C_15
REMARK    8  A    between atoms: N_14  and  C_16
REMARK    9  A    between atoms: C_16  and  C_17
REMARK   10  A    between atoms: C_22  and  O_23
REMARK   11  A    between atoms: O_23  and  C_24
REMARK                            x       y       z     vdW  Elec       q    Type
REMARK                         _______ _______ _______ _____ _____    ______ ____
ROOT
ATOM      1  N   UNL     1      -6.654   2.076   2.177  0.00  0.00    -0.225 N 
ATOM      2  C   UNL     1      -5.460   1.541   2.500  0.00  0.00    +0.213 C 
ATOM      3  O   UNL     1      -5.283   0.345   2.397  0.00  0.00    -0.276 OA
ATOM      4  H   UNL     1      -6.814   3.160   2.271  0.00  0.00    +0.173 HD
ENDROOT
BRANCH   1   8
ATOM      5  C   UNL     1      -9.605   0.012   1.574  0.00  0.00    +0.139 C 
ATOM      6  C   UNL     1      -8.759   0.898   2.467  0.00  0.00    +0.268 C 
ATOM      7  O   UNL     1      -8.993   1.222   3.611  0.00  0.00    -0.271 OA
ATOM      8  N   UNL     1      -7.691   1.251   1.723  0.00  0.00    -0.137 N 
ATOM      9  C   UNL     1      -7.747   0.720   0.496  0.00  0.00    +0.327 C 
ATOM     10  O   UNL     1      -6.900   0.898  -0.356  0.00  0.00    -0.251 OA
ATOM     11  N   UNL     1      -8.845  -0.036   0.313  0.00  0.00    -0.280 N 
ATOM     12  H   UNL     1      -9.225  -0.623  -0.536  0.00  0.00    +0.152 HD
BRANCH   5  13
ATOM     13  C   UNL     1     -10.964   0.625   1.354  0.00  0.00    -0.015 A 
ATOM     14  C   UNL     1     -12.008   0.316   2.206  0.00  0.00    +0.006 A 
ATOM     15  C   UNL     1     -13.254   0.881   2.007  0.00  0.00    +0.000 A 
ATOM     16  C   UNL     1     -13.458   1.749   0.950  0.00  0.00    +0.000 A 
ATOM     17  C   UNL     1     -12.415   2.054   0.095  0.00  0.00    +0.000 A 
ATOM     18  C   UNL     1     -11.169   1.492   0.297  0.00  0.00    +0.006 A 
ENDBRANCH   5  13
BRANCH   5  20
ATOM     19  C   UNL     1      -8.350  -2.007   2.340  0.00  0.00    +0.007 C 
ATOM     20  C   UNL     1      -9.739  -1.388   2.176  0.00  0.00    +0.037 C 
ENDBRANCH   5  20
ENDBRANCH   1   8
BRANCH   2  21
ATOM     21  C   UNL     1      -4.344   2.428   2.988  0.00  0.00    +0.020 C 
BRANCH  21  22
ATOM     22  N   UNL     1      -3.156   1.611   3.271  0.00  0.00    +0.386 N 
ATOM     23  C   UNL     1      -3.399   0.702   4.398  0.00  0.00    -0.095 C 
ATOM     24  H   UNL     1      -2.949   0.998   2.381  0.00  0.00    -0.081 HD
BRANCH  22  25
ATOM     25  C   UNL     1      -1.982   2.457   3.520  0.00  0.00    -0.039 C 
BRANCH  25  26
ATOM     26  C   UNL     1      -0.744   1.599   3.561  0.00  0.00    -0.021 A 
ATOM     27  C   UNL     1      -0.203   1.224   4.776  0.00  0.00    +0.020 A 
ATOM     28  C   UNL     1       0.937   0.441   4.814  0.00  0.00    +0.018 A 
ATOM     29  C   UNL     1       1.535   0.028   3.637  0.00  0.00    +0.019 A 
ATOM     30  C   UNL     1       0.994   0.397   2.421  0.00  0.00    +0.047 A 
ATOM     31  C   UNL     1      -0.149   1.182   2.380  0.00  0.00    +0.121 A 
ATOM     32 BR   UNL     1       1.679  -0.065   6.478  0.00  0.00    -0.050 Br
BRANCH  31  33
ATOM     33  O   UNL     1      -0.682   1.547   1.184  0.00  0.00    -0.495 OA
ATOM     34  C   UNL     1      -0.013   1.086   0.008  0.00  0.00    +0.277 C 
ENDBRANCH  31  33
ENDBRANCH  25  26
ENDBRANCH  22  25
ENDBRANCH  21  22
ENDBRANCH   2  21
TORSDOF 8
