REMARK  Name = ZINC09935349
REMARK  18 active torsions:
REMARK  status: ('A' for Active; 'I' for Inactive)
REMARK    1  A    between atoms: C_1  and  C_2
REMARK    2  A    between atoms: C_2  and  N_76
REMARK    3  A    between atoms: C_3  and  C_4
REMARK    4  A    between atoms: C_3  and  N_76
REMARK    5  A    between atoms: C_5  and  C_6
REMARK    6  A    between atoms: C_5  and  N_76
REMARK    7  A    between atoms: C_6  and  N_7
REMARK    8  A    between atoms: C_8  and  C_10
REMARK    9  A    between atoms: N_16  and  C_27
REMARK   10  A    between atoms: C_17  and  C_19
REMARK   11  A    between atoms: C_22  and  O_25
REMARK   12  A    between atoms: O_25  and  C_26
REMARK   13  A    between atoms: C_29  and  O_37
REMARK   14  A    between atoms: C_30  and  O_35
REMARK   15  A    between atoms: C_31  and  O_33
REMARK   16  A    between atoms: O_33  and  C_34
REMARK   17  A    between atoms: O_35  and  C_36
REMARK   18  A    between atoms: O_37  and  C_38
REMARK                            x       y       z     vdW  Elec       q    Type
REMARK                         _______ _______ _______ _____ _____    ______ ____
ROOT
ATOM      1  C   UNL     1       2.012   0.230  -1.058  0.00  0.00    +0.101 C 
ATOM      2  C   UNL     1       0.931   1.185  -0.537  0.00  0.00    +0.024 C 
ATOM      3  C   UNL     1      -0.174   1.286  -1.591  0.00  0.00    +0.097 C 
ATOM      4  C   UNL     1      -0.583  -0.089  -2.036  0.00  0.00    +0.220 C 
ATOM      5  O   UNL     1      -1.642  -0.214  -2.614  0.00  0.00    -0.275 OA
ATOM      6  N   UNL     1       0.159  -1.179  -1.834  0.00  0.00    -0.263 N 
ATOM      7  C   UNL     1       1.429  -1.183  -1.120  0.00  0.00    +0.123 C 
ENDROOT
BRANCH   7   8
ATOM      8  C   UNL     1       2.398  -2.091  -1.832  0.00  0.00    -0.026 A 
ATOM      9  C   UNL     1       2.318  -2.247  -3.203  0.00  0.00    +0.009 A 
ATOM     10  C   UNL     1       3.208  -3.075  -3.859  0.00  0.00    +0.046 A 
ATOM     11  C   UNL     1       4.177  -3.758  -3.139  0.00  0.00    +0.120 A 
ATOM     12  C   UNL     1       4.252  -3.604  -1.762  0.00  0.00    +0.046 A 
ATOM     13  C   UNL     1       3.363  -2.771  -1.112  0.00  0.00    +0.009 A 
BRANCH  11  14
ATOM     14  O   UNL     1       5.051  -4.577  -3.780  0.00  0.00    -0.495 OA
ATOM     15  C   UNL     1       4.915  -4.687  -5.199  0.00  0.00    +0.277 C 
ENDBRANCH  11  14
ENDBRANCH   7   8
BRANCH   6  16
ATOM     16  C   UNL     1      -0.314  -2.397  -2.340  0.00  0.00    +0.044 A 
ATOM     17  C   UNL     1      -0.593  -2.524  -3.694  0.00  0.00    +0.073 A 
ATOM     18  C   UNL     1      -1.055  -3.730  -4.197  0.00  0.00    +0.167 A 
ATOM     19  C   UNL     1      -1.250  -4.809  -3.343  0.00  0.00    +0.204 A 
ATOM     20  C   UNL     1      -0.975  -4.680  -1.987  0.00  0.00    +0.167 A 
ATOM     21  C   UNL     1      -0.507  -3.474  -1.487  0.00  0.00    +0.073 A 
BRANCH  20  22
ATOM     22  O   UNL     1      -1.165  -5.735  -1.150  0.00  0.00    -0.491 OA
ATOM     23  C   UNL     1      -0.863  -5.530   0.231  0.00  0.00    +0.277 C 
ENDBRANCH  20  22
BRANCH  19  24
ATOM     24  O   UNL     1      -1.709  -5.993  -3.835  0.00  0.00    -0.488 OA
ATOM     25  C   UNL     1      -3.126  -6.177  -3.863  0.00  0.00    +0.277 C 
ENDBRANCH  19  24
BRANCH  18  26
ATOM     26  O   UNL     1      -1.324  -3.856  -5.524  0.00  0.00    -0.491 OA
ATOM     27  C   UNL     1      -1.101  -2.706  -6.343  0.00  0.00    +0.277 C 
ENDBRANCH  18  26
ENDBRANCH   6  16
BRANCH   1  29
ATOM     28  N   UNL     1       3.680   1.171  -2.623  0.00  0.00    -0.317 N 
ATOM     29  C   UNL     1       2.449   0.657  -2.435  0.00  0.00    +0.218 C 
ATOM     30  O   UNL     1       1.691   0.539  -3.375  0.00  0.00    -0.275 OA
ATOM     31  H   UNL     1       4.286   1.266  -1.871  0.00  0.00    +0.149 HD
BRANCH  28  32
ATOM     32  C   UNL     1       4.104   1.587  -3.962  0.00  0.00    +0.085 C 
BRANCH  32  33
ATOM     33  C   UNL     1       5.533   2.131  -3.899  0.00  0.00    -0.060 C 
BRANCH  33  34
ATOM     34  N   UNL     1       5.938   2.565  -5.252  0.00  0.00    +0.380 N 
ATOM     35  H   UNL     1       5.220   3.195  -5.629  0.00  0.00    -0.082 HD
BRANCH  34  37
ATOM     36  C   UNL     1       6.966   4.704  -4.665  0.00  0.00    -0.017 C 
ATOM     37  C   UNL     1       7.225   3.289  -5.186  0.00  0.00    -0.082 C 
ENDBRANCH  34  37
BRANCH  34  38
ATOM     38  C   UNL     1       6.064   1.393  -6.143  0.00  0.00    -0.082 C 
ATOM     39  C   UNL     1       6.132   1.880  -7.591  0.00  0.00    -0.017 C 
ENDBRANCH  34  38
ENDBRANCH  33  34
ENDBRANCH  32  33
ENDBRANCH  28  32
ENDBRANCH   1  29
TORSDOF 12
