REMARK  Name = ZINC04707872
REMARK  4 active torsions:
REMARK  status: ('A' for Active; 'I' for Inactive)
REMARK    1  A    between atoms: C_1  and  N_2
REMARK    2  A    between atoms: C_4  and  N_18
REMARK    3  A    between atoms: C_5  and  N_10
REMARK    4  A    between atoms: N_10  and  C_11
REMARK                            x       y       z     vdW  Elec       q    Type
REMARK                         _______ _______ _______ _____ _____    ______ ____
ROOT
ATOM      1  C   UNL     1       2.240   5.979  -0.690  0.00  0.00    +0.127 C 
ATOM      2  N   UNL     1       2.332   4.549  -0.386  0.00  0.00    -0.330 N 
ATOM      3  C   UNL     1       1.194   3.782  -0.347  0.00  0.00    +0.155 A 
ATOM      4  C   UNL     1       1.269   2.322  -0.162  0.00  0.00    +0.187 A 
ATOM      5  C   UNL     1      -0.009   1.591  -0.134  0.00  0.00    +0.159 A 
ATOM      6  N   UNL     1      -1.128   2.288  -0.282  0.00  0.00    -0.197 NA
ATOM      7  C   UNL     1      -1.112   3.604  -0.439  0.00  0.00    +0.216 A 
ATOM      8  N   UNL     1      -0.005   4.332  -0.474  0.00  0.00    -0.198 NA
ATOM      9  N   UNL     1      -2.316   4.252  -0.578  0.00  0.00    -0.327 N 
ATOM     10  H   UNL     1       3.196   4.144  -0.213  0.00  0.00    +0.147 HD
ATOM     11  H   UNL     1      -2.338   5.214  -0.699  0.00  0.00    +0.145 HD
ATOM     12  H   UNL     1      -3.144   3.747  -0.557  0.00  0.00    +0.145 HD
ENDROOT
BRANCH   5  13
ATOM     13  N   UNL     1      -0.042   0.229   0.033  0.00  0.00    -0.297 N 
ATOM     14  H   UNL     1       0.785  -0.277   0.059  0.00  0.00    +0.154 HD
BRANCH  13  15
ATOM     15  C   UNL     1      -1.268  -0.430   0.166  0.00  0.00    +0.032 A 
ATOM     16  C   UNL     1      -2.335   0.205   0.790  0.00  0.00    +0.024 A 
ATOM     17  C   UNL     1      -3.546  -0.447   0.915  0.00  0.00    +0.016 A 
ATOM     18  C   UNL     1      -3.694  -1.734   0.430  0.00  0.00    +0.013 A 
ATOM     19  C   UNL     1      -2.632  -2.371  -0.186  0.00  0.00    +0.016 A 
ATOM     20  C   UNL     1      -1.420  -1.722  -0.319  0.00  0.00    +0.024 A 
ATOM     21  I   UNL     1      -5.531  -2.721   0.630  0.00  0.00    -0.044 I 
ENDBRANCH  13  15
ENDBRANCH   5  13
BRANCH   4  22
ATOM     22  N   UNL     1       2.427   1.699  -0.028  0.00  0.00    -0.024 NA
ATOM     23  O   UNL     1       3.445   2.202  -0.469  0.00  0.00    -0.143 OA
ENDBRANCH   4  22
TORSDOF 3
