REMARK  Name = ZINC20723744
REMARK  5 active torsions:
REMARK  status: ('A' for Active; 'I' for Inactive)
REMARK    1  A    between atoms: C_9  and  S_14
REMARK    2  A    between atoms: C_11  and  O_13
REMARK    3  A    between atoms: S_14  and  C_15
REMARK    4  A    between atoms: C_18  and  C_21
REMARK    5  A    between atoms: C_21  and  C_22
REMARK                            x       y       z     vdW  Elec       q    Type
REMARK                         _______ _______ _______ _____ _____    ______ ____
ROOT
ATOM      1  C   UNL     1      -0.017   1.373   0.010  0.00  0.00    +0.000 A 
ATOM      2  C   UNL     1       1.178   2.071   0.002  0.00  0.00    +0.002 A 
ATOM      3  C   UNL     1       2.366   1.387  -0.018  0.00  0.00    +0.028 A 
ATOM      4  C   UNL     1       2.401  -0.025  -0.029  0.00  0.00    +0.071 A 
ATOM      5  C   UNL     1       1.200  -0.715  -0.012  0.00  0.00    -0.022 A 
ATOM      6  C   UNL     1       0.002  -0.004   0.002  0.00  0.00    +0.006 A 
ATOM      7  C   UNL     1       1.071  -2.206   0.008  0.00  0.00    +0.039 C 
ATOM      8  C   UNL     1       2.115  -2.952  -0.764  0.00  0.00    +0.029 C 
ATOM      9  C   UNL     1       3.449  -3.006  -0.061  0.00  0.00    +0.140 C 
ATOM     10  C   UNL     1       4.160  -1.701  -0.109  0.00  0.00    +0.201 C 
ATOM     11  N   UNL     1       3.635  -0.562  -0.062  0.00  0.00    -0.216 NA
ENDROOT
BRANCH  10  12
ATOM     12  O   UNL     1       5.504  -1.746  -0.213  0.00  0.00    -0.495 OA
ATOM     13  H   UNL     1       5.925  -0.876  -0.240  0.00  0.00    +0.293 HD
ENDBRANCH  10  12
BRANCH   9  14
ATOM     14  S   UNL     1       4.483  -4.267  -0.856  0.00  0.00    -0.074 S 
BRANCH  14  15
ATOM     15  C   UNL     1       5.931  -4.324   0.146  0.00  0.00    +0.185 A 
ATOM     16  N   UNL     1       6.162  -3.595   1.218  0.00  0.00    -0.205 NA
ATOM     17  H   UNL     1       7.119  -5.777  -0.755  0.00  0.00    +0.191 HD
ATOM     18  C   UNL     1       7.357  -3.903   1.722  0.00  0.00    +0.157 A 
ATOM     19  N   UNL     1       7.908  -4.829   0.984  0.00  0.00    -0.156 NA
ATOM     20  N   UNL     1       7.001  -5.126  -0.046  0.00  0.00    -0.254 N 
BRANCH  18  21
ATOM     21  C   UNL     1       7.975  -3.281   2.949  0.00  0.00    +0.120 C 
BRANCH  21  22
ATOM     22  C   UNL     1       7.581  -4.076   4.167  0.00  0.00    -0.003 A 
ATOM     23  C   UNL     1       8.213  -5.130   4.739  0.00  0.00    +0.011 A 
ATOM     24  C   UNL     1       7.662  -5.709   5.867  0.00  0.00    +0.008 A 
ATOM     25  C   UNL     1       6.507  -5.206   6.368  0.00  0.00    +0.045 A 
ATOM     26  S   UNL     1       6.166  -3.868   5.236  0.00  0.00    -0.101 S 
ENDBRANCH  21  22
ENDBRANCH  18  21
ENDBRANCH  14  15
ENDBRANCH   9  14
TORSDOF 5
