REMARK  Name = ZINC12551213
REMARK  6 active torsions:
REMARK  status: ('A' for Active; 'I' for Inactive)
REMARK    1  A    between atoms: C_1  and  C_2
REMARK    2  A    between atoms: C_7  and  N_8
REMARK    3  A    between atoms: C_11  and  C_16
REMARK    4  A    between atoms: C_16  and  S_17
REMARK    5  A    between atoms: S_17  and  C_18
REMARK    6  A    between atoms: N_23  and  C_24
REMARK                            x       y       z     vdW  Elec       q    Type
REMARK                         _______ _______ _______ _____ _____    ______ ____
ROOT
ATOM      1  N   UNL     1       2.244  -4.592   2.304  0.00  0.00    -0.283 N 
ATOM      2  C   UNL     1       2.156  -3.901   1.111  0.00  0.00    +0.224 A 
ATOM      3  N   UNL     1       1.999  -2.579   1.116  0.00  0.00    -0.198 NA
ATOM      4  C   UNL     1       1.908  -1.919  -0.025  0.00  0.00    +0.146 A 
ATOM      5  N   UNL     1       1.984  -2.566  -1.175  0.00  0.00    -0.199 NA
ATOM      6  C   UNL     1       2.146  -3.887  -1.188  0.00  0.00    +0.217 A 
ATOM      7  N   UNL     1       2.232  -4.555  -0.043  0.00  0.00    -0.181 NA
ATOM      8  N   UNL     1       2.225  -4.562  -2.389  0.00  0.00    -0.327 N 
ATOM      9  H   UNL     1       2.274  -4.107   3.144  0.00  0.00    +0.155 HD
ATOM     10  H   UNL     1       2.162  -4.074  -3.225  0.00  0.00    +0.145 HD
ATOM     11  H   UNL     1       2.343  -5.525  -2.398  0.00  0.00    +0.145 HD
ENDROOT
BRANCH   1  18
ATOM     12  C   UNL     1       3.455  -5.899   4.522  0.00  0.00    +0.045 C 
ATOM     13  C   UNL     1       2.873  -6.668   3.365  0.00  0.00    -0.029 A 
ATOM     14  C   UNL     1       2.916  -8.049   3.359  0.00  0.00    +0.005 A 
ATOM     15  C   UNL     1       2.381  -8.755   2.298  0.00  0.00    +0.000 A 
ATOM     16  C   UNL     1       1.801  -8.082   1.238  0.00  0.00    +0.002 A 
ATOM     17  C   UNL     1       1.750  -6.702   1.239  0.00  0.00    +0.023 A 
ATOM     18  C   UNL     1       2.291  -5.989   2.302  0.00  0.00    +0.036 A 
ENDBRANCH   1  18
BRANCH   4  19
ATOM     19  C   UNL     1       1.725  -0.423  -0.015  0.00  0.00    +0.152 C 
BRANCH  19  20
ATOM     20  S   UNL     1      -0.047  -0.032  -0.005  0.00  0.00    -0.089 S 
BRANCH  20  21
ATOM     21  C   UNL     1      -0.094   1.729   0.006  0.00  0.00    +0.160 A 
ATOM     22  N   UNL     1       0.904   2.592   0.006  0.00  0.00    -0.133 NA
ATOM     23  N   UNL     1       0.641   3.943   0.016  0.00  0.00    -0.125 NA
ATOM     24  C   UNL     1      -0.608   4.368   0.024  0.00  0.00    +0.182 A 
ATOM     25  S   UNL     1      -1.506   2.824   0.011  0.00  0.00    -0.025 S 
ATOM     26  N   UNL     1      -1.094   5.670   0.034  0.00  0.00    -0.325 N 
ATOM     27  C   UNL     1      -0.162   6.800   0.036  0.00  0.00    +0.127 C 
ATOM     28  H   UNL     1      -2.051   5.830   0.039  0.00  0.00    +0.148 HD
ENDBRANCH  20  21
ENDBRANCH  19  20
ENDBRANCH   4  19
TORSDOF 4
