REMARK  Name = ZINC45270685
REMARK  6 active torsions:
REMARK  status: ('A' for Active; 'I' for Inactive)
REMARK    1  A    between atoms: C_1  and  C_2
REMARK    2  A    between atoms: C_2  and  C_3
REMARK    3  A    between atoms: C_2  and  C_4
REMARK    4  A    between atoms: C_4  and  N_5
REMARK    5  A    between atoms: C_8  and  N_11
REMARK    6  A    between atoms: N_14  and  C_15
REMARK                            x       y       z     vdW  Elec       q    Type
REMARK                         _______ _______ _______ _____ _____    ______ ____
ROOT
ATOM      1  N   UNL     1      -2.066  -6.085   0.891  0.00  0.00    -0.297 N 
ATOM      2  C   UNL     1      -3.132  -6.866   1.158  0.00  0.00    +0.300 C 
ATOM      3  O   UNL     1      -4.188  -6.361   1.486  0.00  0.00    -0.253 OA
ATOM      4  N   UNL     1      -3.027  -8.206   1.060  0.00  0.00    -0.293 N 
ATOM      5  H   UNL     1      -1.224  -6.487   0.629  0.00  0.00    +0.151 HD
ATOM      6  H   UNL     1      -2.184  -8.608   0.798  0.00  0.00    +0.151 HD
ENDROOT
BRANCH   4   7
ATOM      7  C   UNL     1      -4.185  -9.054   1.351  0.00  0.00    +0.107 C 
ATOM      8  C   UNL     1      -4.048 -10.346   0.565  0.00  0.00    +0.038 C 
ATOM      9  C   UNL     1      -5.283 -11.223   0.822  0.00  0.00    +0.076 C 
ATOM     10  S   UNL     1      -5.147 -11.853   2.521  0.00  0.00    -0.125 S 
ATOM     11  C   UNL     1      -4.686 -10.423   3.448  0.00  0.00    +0.013 A 
ATOM     12  C   UNL     1      -4.270  -9.258   2.835  0.00  0.00    -0.012 A 
ATOM     13  C   UNL     1      -3.906  -8.176   3.633  0.00  0.00    +0.026 A 
ATOM     14  C   UNL     1      -3.962  -8.258   5.009  0.00  0.00    +0.041 A 
ATOM     15  C   UNL     1      -4.385  -9.426   5.617  0.00  0.00    +0.021 A 
ATOM     16  C   UNL     1      -4.747 -10.499   4.840  0.00  0.00    +0.016 A 
ATOM     17 CL   UNL     1      -3.501  -6.893   5.978  0.00  0.00    -0.084 Cl
ENDBRANCH   4   7
BRANCH   1  21
ATOM     18  N   UNL     1      -1.416  -2.016   0.004  0.00  0.00    +0.380 N 
ATOM     19  C   UNL     1      -0.913  -2.498   1.296  0.00  0.00    -0.077 C 
ATOM     20  C   UNL     1      -0.799  -4.024   1.265  0.00  0.00    +0.004 C 
ATOM     21  C   UNL     1      -2.181  -4.628   0.997  0.00  0.00    +0.071 C 
ATOM     22  C   UNL     1      -2.728  -4.061  -0.316  0.00  0.00    +0.004 C 
ATOM     23  C   UNL     1      -2.770  -2.534  -0.227  0.00  0.00    -0.077 C 
ATOM     24  H   UNL     1      -0.805  -2.334  -0.733  0.00  0.00    -0.082 HD
BRANCH  18  25
ATOM     25  C   UNL     1      -1.450  -0.547   0.011  0.00  0.00    -0.076 C 
BRANCH  25  27
ATOM     26  C   UNL     1       0.749  -0.387  -1.165  0.00  0.00    +0.005 C 
ATOM     27  C   UNL     1      -0.022  -0.005   0.101  0.00  0.00    -0.034 C 
ATOM     28  C   UNL     1      -0.062   1.518   0.233  0.00  0.00    +0.005 C 
ENDBRANCH  25  27
ENDBRANCH  18  25
ENDBRANCH   1  21
TORSDOF 4
