REMARK  Name = ZINC20451085
REMARK  12 active torsions:
REMARK  status: ('A' for Active; 'I' for Inactive)
REMARK    1  A    between atoms: C_1  and  O_2
REMARK    2  A    between atoms: O_2  and  C_3
REMARK    3  A    between atoms: C_6  and  O_20
REMARK    4  A    between atoms: C_7  and  C_9
REMARK    5  A    between atoms: C_9  and  N_10
REMARK    6  A    between atoms: N_10  and  C_11
REMARK    7  A    between atoms: O_20  and  C_21
REMARK    8  A    between atoms: C_21  and  C_22
REMARK    9  A    between atoms: C_22  and  C_24
REMARK   10  A    between atoms: C_22  and  O_32
REMARK   11  A    between atoms: C_24  and  N_25
REMARK   12  A    between atoms: C_28  and  O_31
REMARK                            x       y       z     vdW  Elec       q    Type
REMARK                         _______ _______ _______ _____ _____    ______ ____
ROOT
ATOM      1  C   UNL     1      -3.277  -1.440   1.205  0.00  0.00    +0.121 A 
ATOM      2  C   UNL     1      -4.005  -1.495   0.026  0.00  0.00    +0.049 A 
ATOM      3  C   UNL     1      -3.444  -1.048  -1.154  0.00  0.00    +0.049 A 
ATOM      4  C   UNL     1      -2.152  -0.543  -1.160  0.00  0.00    +0.125 A 
ATOM      5  C   UNL     1      -1.424  -0.488   0.019  0.00  0.00    +0.011 A 
ATOM      6  C   UNL     1      -1.983  -0.941   1.198  0.00  0.00    +0.054 A 
ENDROOT
BRANCH   1   8
ATOM      7  C   UNL     1      -5.164  -2.387   2.300  0.00  0.00    +0.277 C 
ATOM      8  O   UNL     1      -3.829  -1.880   2.367  0.00  0.00    -0.495 OA
ENDBRANCH   1   8
BRANCH   5   9
ATOM      9  C   UNL     1      -0.020   0.060   0.012  0.00  0.00    +0.120 C 
BRANCH   9  10
ATOM     10  N   UNL     1      -0.067   1.528   0.015  0.00  0.00    -0.309 NA
ATOM     11  H   UNL     1      -0.602   1.880  -0.879  0.00  0.00    +0.123 HD
BRANCH  10  12
ATOM     12  C   UNL     1       1.286   2.099   0.009  0.00  0.00    +0.063 C 
ATOM     13  C   UNL     1       1.780   2.356   1.449  0.00  0.00    +0.054 C 
ATOM     14  C   UNL     1       2.607   3.621   1.364  0.00  0.00    -0.043 A 
ATOM     15  C   UNL     1       3.536   4.147   2.246  0.00  0.00    +0.004 A 
ATOM     16  C   UNL     1       4.176   5.335   1.955  0.00  0.00    +0.000 A 
ATOM     17  C   UNL     1       3.889   6.003   0.779  0.00  0.00    +0.000 A 
ATOM     18  C   UNL     1       2.963   5.481  -0.102  0.00  0.00    +0.004 A 
ATOM     19  C   UNL     1       2.320   4.289   0.188  0.00  0.00    -0.043 A 
ATOM     20  C   UNL     1       1.281   3.518  -0.598  0.00  0.00    +0.054 C 
ENDBRANCH  10  12
ENDBRANCH   9  10
ENDBRANCH   5   9
BRANCH   4  21
ATOM     21  O   UNL     1      -1.600  -0.103  -2.322  0.00  0.00    -0.489 OA
BRANCH  21  22
ATOM     22  C   UNL     1      -2.407  -0.190  -3.498  0.00  0.00    +0.258 C 
BRANCH  22  23
ATOM     23  C   UNL     1      -1.622   0.349  -4.696  0.00  0.00    +0.135 C 
BRANCH  23  24
ATOM     24  O   UNL     1      -1.370   1.743  -4.513  0.00  0.00    -0.390 OA
ATOM     25  H   UNL     1      -0.814   2.307  -5.276  0.00  0.00    +0.210 HD
ENDBRANCH  23  24
BRANCH  23  26
ATOM     26  C   UNL     1      -2.437   0.142  -5.974  0.00  0.00    -0.044 C 
BRANCH  26  27
ATOM     27  N   UNL     1      -1.679   0.648  -7.126  0.00  0.00    +0.382 N 
ATOM     28  C   UNL     1      -2.566   0.911  -8.266  0.00  0.00    -0.076 C 
ATOM     29  C   UNL     1      -1.769   1.571  -9.393  0.00  0.00    +0.013 C 
ATOM     30  C   UNL     1      -0.627   0.642  -9.815  0.00  0.00    +0.111 C 
ATOM     31  C   UNL     1       0.255   0.345  -8.599  0.00  0.00    +0.013 C 
ATOM     32  C   UNL     1      -0.601  -0.279  -7.495  0.00  0.00    -0.076 C 
ATOM     33  H   UNL     1      -1.215   1.602  -6.835  0.00  0.00    -0.082 HD
BRANCH  30  34
ATOM     34  O   UNL     1       0.155   1.278 -10.828  0.00  0.00    -0.392 OA
ATOM     35  H   UNL     1       1.025   0.759 -11.257  0.00  0.00    +0.210 HD
ENDBRANCH  30  34
ENDBRANCH  26  27
ENDBRANCH  23  26
ENDBRANCH  22  23
ENDBRANCH  21  22
ENDBRANCH   4  21
TORSDOF 11
