REMARK  Name = ZINC00940766
REMARK  7 active torsions:
REMARK  status: ('A' for Active; 'I' for Inactive)
REMARK    1  A    between atoms: C_1  and  C_2
REMARK    2  A    between atoms: C_2  and  O_3
REMARK    3  A    between atoms: O_3  and  C_4
REMARK    4  A    between atoms: C_9  and  C_10
REMARK    5  A    between atoms: C_12  and  C_26
REMARK    6  A    between atoms: C_13  and  C_25
REMARK    7  A    between atoms: C_18  and  C_20
REMARK                            x       y       z     vdW  Elec       q    Type
REMARK                         _______ _______ _______ _____ _____    ______ ____
ROOT
ATOM      1  C   UNL     1       1.999  -1.212   3.296  0.00  0.00    +0.167 C 
ATOM      2  C   UNL     1       3.183  -0.534   2.631  0.00  0.00    +0.059 C 
ATOM      3  C   UNL     1       4.401  -0.664   3.239  0.00  0.00    +0.026 C 
ATOM      4  N   UNL     1       4.555  -1.350   4.360  0.00  0.00    -0.330 N 
ATOM      5  C   UNL     1       3.579  -1.973   5.007  0.00  0.00    +0.215 C 
ATOM      6  N   UNL     1       2.291  -1.946   4.533  0.00  0.00    -0.209 N 
ATOM      7  N   UNL     1       1.514  -2.687   5.427  0.00  0.00    -0.244 N 
ATOM      8  C   UNL     1       2.372  -3.132   6.404  0.00  0.00    +0.153 C 
ATOM      9  N   UNL     1       3.582  -2.696   6.134  0.00  0.00    -0.197 NA
ATOM     10  C   UNL     1       5.604  -0.007   2.613  0.00  0.00    +0.064 C 
ATOM     11  H   UNL     1       5.448  -1.402   4.736  0.00  0.00    +0.168 HD
ATOM     12  H   UNL     1       0.560  -2.855   5.370  0.00  0.00    +0.172 HD
ENDROOT
BRANCH   1  18
ATOM     13  C   UNL     1       0.068  -2.561   2.436  0.00  0.00    +0.126 A 
ATOM     14  C   UNL     1      -0.486  -3.446   1.522  0.00  0.00    +0.046 A 
ATOM     15  C   UNL     1       0.286  -3.947   0.492  0.00  0.00    +0.004 A 
ATOM     16  C   UNL     1       1.611  -3.568   0.371  0.00  0.00    +0.001 A 
ATOM     17  C   UNL     1       2.165  -2.687   1.281  0.00  0.00    +0.009 A 
ATOM     18  C   UNL     1       1.395  -2.178   2.309  0.00  0.00    +0.021 A 
BRANCH  13  19
ATOM     19  O   UNL     1      -0.689  -2.066   3.449  0.00  0.00    -0.492 OA
BRANCH  19  21
ATOM     20  C   UNL     1      -2.760  -1.770   4.660  0.00  0.00    +0.048 C 
ATOM     21  C   UNL     1      -2.075  -2.414   3.453  0.00  0.00    +0.225 C 
ENDBRANCH  19  21
ENDBRANCH  13  19
ENDBRANCH   1  18
BRANCH   8  22
ATOM     22  C   UNL     1       2.000  -3.952   7.556  0.00  0.00    +0.053 A 
ATOM     23  C   UNL     1       2.802  -4.435   8.583  0.00  0.00    +0.019 A 
ATOM     24  C   UNL     1       2.160  -5.186   9.536  0.00  0.00    +0.008 A 
ATOM     25  C   UNL     1       0.826  -5.403   9.418  0.00  0.00    +0.046 A 
ATOM     26  S   UNL     1       0.398  -4.588   8.013  0.00  0.00    -0.094 S 
ENDBRANCH   8  22
BRANCH   2  27
ATOM     27  C   UNL     1       3.034   0.198   1.440  0.00  0.00    +0.241 C 
ATOM     28  O   UNL     1       4.012   0.674   0.890  0.00  0.00    -0.271 OA
ATOM     29  N   UNL     1       1.809   0.373   0.905  0.00  0.00    -0.325 N 
ATOM     30  H   UNL     1       1.024   0.059   1.380  0.00  0.00    +0.145 HD
ATOM     31  H   UNL     1       1.713   0.812   0.046  0.00  0.00    +0.145 HD
ENDBRANCH   2  27
TORSDOF 5
