REMARK  Name = ZINC13496550
REMARK  5 active torsions:
REMARK  status: ('A' for Active; 'I' for Inactive)
REMARK    1  A    between atoms: C_4  and  C_7
REMARK    2  A    between atoms: C_7  and  N_8
REMARK    3  A    between atoms: N_10  and  C_14
REMARK    4  A    between atoms: C_14  and  C_15
REMARK    5  A    between atoms: C_15  and  C_17
REMARK                            x       y       z     vdW  Elec       q    Type
REMARK                         _______ _______ _______ _____ _____    ______ ____
ROOT
ATOM      1  N   UNL     1       4.346  -0.730   1.425  0.00  0.00    -0.364 N 
ATOM      2  C   UNL     1       5.332  -1.565   1.602  0.00  0.00    +0.131 C 
ATOM      3  N   UNL     1       6.109  -2.173   0.641  0.00  0.00    -0.303 N 
ATOM      4  C   UNL     1       6.903  -3.332   0.999  0.00  0.00    +0.118 C 
ATOM      5  C   UNL     1       6.778  -3.712   2.493  0.00  0.00    +0.096 C 
ATOM      6  S   UNL     1       5.990  -2.177   3.147  0.00  0.00    -0.091 S 
ATOM      7  H   UNL     1       3.951  -0.278   2.187  0.00  0.00    +0.162 HD
ENDROOT
BRANCH   1   8
ATOM      8  C   UNL     1       3.835  -0.474   0.076  0.00  0.00    +0.150 C 
BRANCH   8  12
ATOM      9  C   UNL     1       0.300   1.911   0.318  0.00  0.00    +0.000 A 
ATOM     10  C   UNL     1       1.537   2.518   0.216  0.00  0.00    +0.000 A 
ATOM     11  C   UNL     1       2.681   1.746   0.138  0.00  0.00    +0.005 A 
ATOM     12  C   UNL     1       2.588   0.367   0.163  0.00  0.00    -0.028 A 
ATOM     13  C   UNL     1       1.350  -0.240   0.266  0.00  0.00    +0.005 A 
ATOM     14  C   UNL     1       0.206   0.532   0.342  0.00  0.00    +0.000 A 
ENDBRANCH   8  12
ENDBRANCH   1   8
BRANCH   3  15
ATOM     15  C   UNL     1       6.132  -1.654  -0.728  0.00  0.00    +0.186 C 
BRANCH  15  16
ATOM     16  C   UNL     1       5.092  -2.368  -1.553  0.00  0.00    +0.180 C 
ATOM     17  O   UNL     1       4.400  -3.225  -1.047  0.00  0.00    -0.290 OA
BRANCH  16  18
ATOM     18  C   UNL     1       4.917  -2.025  -2.974  0.00  0.00    +0.019 A 
ATOM     19  C   UNL     1       5.717  -1.040  -3.563  0.00  0.00    +0.011 A 
ATOM     20  C   UNL     1       5.546  -0.724  -4.894  0.00  0.00    +0.001 A 
ATOM     21  C   UNL     1       4.587  -1.378  -5.647  0.00  0.00    +0.000 A 
ATOM     22  C   UNL     1       3.791  -2.353  -5.071  0.00  0.00    +0.001 A 
ATOM     23  C   UNL     1       3.953  -2.685  -3.743  0.00  0.00    +0.011 A 
ENDBRANCH  16  18
ENDBRANCH  15  16
ENDBRANCH   3  15
TORSDOF 5
