REMARK  Name = ZINC38609919
REMARK  10 active torsions:
REMARK  status: ('A' for Active; 'I' for Inactive)
REMARK    1  A    between atoms: C_1  and  C_2
REMARK    2  A    between atoms: C_2  and  C_3
REMARK    3  A    between atoms: C_3  and  C_4
REMARK    4  A    between atoms: C_4  and  O_5
REMARK    5  A    between atoms: O_5  and  C_6
REMARK    6  A    between atoms: C_10  and  C_12
REMARK    7  A    between atoms: C_15  and  C_30
REMARK    8  A    between atoms: N_22  and  C_23
REMARK    9  A    between atoms: C_23  and  C_24
REMARK   10  A    between atoms: C_35  and  O_36
REMARK                            x       y       z     vdW  Elec       q    Type
REMARK                         _______ _______ _______ _____ _____    ______ ____
ROOT
ATOM      1  C   UNL     1      -5.265  -6.513  -0.161  0.00  0.00    +0.142 C 
ATOM      2  C   UNL     1      -5.955  -6.796  -1.467  0.00  0.00    +0.035 A 
ATOM      3  C   UNL     1      -6.425  -6.295  -2.685  0.00  0.00    +0.102 A 
ATOM      4  N   UNL     1      -6.967  -7.301  -3.343  0.00  0.00    -0.173 NA
ATOM      5  N   UNL     1      -6.885  -8.387  -2.661  0.00  0.00    -0.272 N 
ATOM      6  H   UNL     1      -7.218  -9.252  -2.949  0.00  0.00    +0.189 HD
ATOM      7  C   UNL     1      -6.260  -8.144  -1.472  0.00  0.00    +0.126 A 
ATOM      8  C   UNL     1      -5.790  -8.733  -0.213  0.00  0.00    +0.266 C 
ATOM      9  O   UNL     1      -5.908  -9.905   0.092  0.00  0.00    -0.268 OA
ATOM     10  N   UNL     1      -5.210  -7.793   0.558  0.00  0.00    -0.281 N 
ENDROOT
BRANCH   1  15
ATOM     11  C   UNL     1      -2.275  -4.211  -0.355  0.00  0.00    +0.121 A 
ATOM     12  C   UNL     1      -1.308  -5.060  -0.874  0.00  0.00    +0.045 A 
ATOM     13  C   UNL     1      -1.625  -6.374  -1.158  0.00  0.00    +0.004 A 
ATOM     14  C   UNL     1      -2.905  -6.843  -0.927  0.00  0.00    +0.006 A 
ATOM     15  C   UNL     1      -3.871  -5.999  -0.411  0.00  0.00    -0.019 A 
ATOM     16  C   UNL     1      -3.557  -4.685  -0.119  0.00  0.00    +0.051 A 
BRANCH  11  17
ATOM     17  O   UNL     1      -1.965  -2.918  -0.074  0.00  0.00    -0.492 OA
BRANCH  17  18
ATOM     18  C   UNL     1      -0.626  -2.498  -0.343  0.00  0.00    +0.229 C 
BRANCH  18  19
ATOM     19  C   UNL     1      -0.468  -1.024   0.034  0.00  0.00    +0.041 C 
BRANCH  19  21
ATOM     20  C   UNL     1       1.124   0.900   0.124  0.00  0.00    +0.004 C 
ATOM     21  C   UNL     1       0.966  -0.575  -0.253  0.00  0.00    -0.000 C 
ENDBRANCH  19  21
ENDBRANCH  18  19
ENDBRANCH  17  18
ENDBRANCH  11  17
ENDBRANCH   1  15
BRANCH   3  22
ATOM     22  C   UNL     1      -6.332  -4.888  -3.151  0.00  0.00    +0.044 A 
ATOM     23  C   UNL     1      -5.839  -3.901  -2.301  0.00  0.00    +0.014 A 
ATOM     24  C   UNL     1      -5.755  -2.595  -2.739  0.00  0.00    +0.001 A 
ATOM     25  C   UNL     1      -6.158  -2.262  -4.020  0.00  0.00    +0.004 A 
ATOM     26  C   UNL     1      -6.649  -3.234  -4.871  0.00  0.00    +0.046 A 
ATOM     27  C   UNL     1      -6.734  -4.550  -4.446  0.00  0.00    +0.126 A 
BRANCH  27  28
ATOM     28  O   UNL     1      -7.210  -5.508  -5.284  0.00  0.00    -0.506 OA
ATOM     29  H   UNL     1      -8.168  -5.634  -5.233  0.00  0.00    +0.292 HD
ENDBRANCH  27  28
ENDBRANCH   3  22
BRANCH  10  30
ATOM     30  C   UNL     1      -4.624  -8.009   1.883  0.00  0.00    +0.145 C 
BRANCH  30  31
ATOM     31  C   UNL     1      -5.679  -7.800   2.939  0.00  0.00    -0.012 A 
ATOM     32  C   UNL     1      -5.884  -6.543   3.487  0.00  0.00    +0.008 A 
ATOM     33  C   UNL     1      -6.865  -6.397   4.455  0.00  0.00    +0.020 A 
ATOM     34  C   UNL     1      -7.601  -7.502   4.839  0.00  0.00    +0.111 A 
ATOM     35  N   UNL     1      -7.379  -8.683   4.296  0.00  0.00    -0.263 NA
ATOM     36  C   UNL     1      -6.458  -8.857   3.369  0.00  0.00    +0.115 A 
ENDBRANCH  30  31
ENDBRANCH  10  30
TORSDOF 9
