REMARK  Name = ZINC38011368
REMARK  5 active torsions:
REMARK  status: ('A' for Active; 'I' for Inactive)
REMARK    1  A    between atoms: C_1  and  C_2
REMARK    2  A    between atoms: C_3  and  C_8
REMARK    3  A    between atoms: C_8  and  N_9
REMARK    4  A    between atoms: N_9  and  C_10
REMARK    5  A    between atoms: C_12  and  C_14
REMARK                            x       y       z     vdW  Elec       q    Type
REMARK                         _______ _______ _______ _____ _____    ______ ____
ROOT
ATOM      1  N   UNL     1       1.350   0.059  -2.961  0.00  0.00    +0.384 N 
ATOM      2  H   UNL     1       1.668   0.806  -2.362  0.00  0.00    -0.085 HD
ATOM      3  H   UNL     1       1.974  -0.730  -2.875  0.00  0.00    -0.085 HD
ENDROOT
BRANCH   1   4
ATOM      4  C   UNL     1       1.336   0.522  -4.356  0.00  0.00    -0.070 C 
ATOM      5  C   UNL     1       1.532  -0.607  -5.381  0.00  0.00    -0.008 C 
ATOM      6  C   UNL     1       3.043  -0.353  -5.256  0.00  0.00    +0.016 C 
ATOM      7  C   UNL     1       2.687   1.082  -4.832  0.00  0.00    -0.008 C 
BRANCH   6   8
ATOM      8  C   UNL     1       3.779  -0.429  -6.569  0.00  0.00    -0.043 A 
ATOM      9  C   UNL     1       3.448   0.433  -7.598  0.00  0.00    +0.004 A 
ATOM     10  C   UNL     1       4.122   0.363  -8.803  0.00  0.00    +0.001 A 
ATOM     11  C   UNL     1       5.128  -0.569  -8.979  0.00  0.00    +0.015 A 
ATOM     12  C   UNL     1       5.460  -1.431  -7.949  0.00  0.00    +0.018 A 
ATOM     13  C   UNL     1       4.788  -1.357  -6.742  0.00  0.00    +0.019 A 
ATOM     14 BR   UNL     1       6.836  -2.705  -8.190  0.00  0.00    -0.050 Br
ENDBRANCH   6   8
ENDBRANCH   1   4
BRANCH   1  15
ATOM     15  C   UNL     1      -0.006  -0.343  -2.566  0.00  0.00    -0.043 C 
BRANCH  15  18
ATOM     16  C   UNL     1      -0.018   1.503   0.010  0.00  0.00    +0.068 C 
ATOM     17  C   UNL     1       0.002  -0.004   0.002  0.00  0.00    +0.061 A 
ATOM     18  C   UNL     1       0.008  -0.818  -1.135  0.00  0.00    -0.024 A 
ATOM     19  C   UNL     1       0.028  -2.107  -0.725  0.00  0.00    +0.106 A 
ATOM     20  N   UNL     1       0.034  -2.109   0.625  0.00  0.00    -0.284 N 
ATOM     21  H   UNL     1       0.048  -2.894   1.194  0.00  0.00    +0.188 HD
ATOM     22  N   UNL     1       0.023  -0.777   1.058  0.00  0.00    -0.179 NA
ENDBRANCH  15  18
ENDBRANCH   1  15
TORSDOF 4
