REMARK  Name = ZINC21259390
REMARK  9 active torsions:
REMARK  status: ('A' for Active; 'I' for Inactive)
REMARK    1  A    between atoms: C_1  and  C_2
REMARK    2  A    between atoms: C_2  and  O_3
REMARK    3  A    between atoms: O_3  and  C_4
REMARK    4  A    between atoms: C_6  and  C_14
REMARK    5  A    between atoms: C_9  and  O_10
REMARK    6  A    between atoms: O_10  and  C_11
REMARK    7  A    between atoms: C_11  and  C_12
REMARK    8  A    between atoms: C_11  and  C_13
REMARK    9  A    between atoms: C_25  and  C_28
REMARK                            x       y       z     vdW  Elec       q    Type
REMARK                         _______ _______ _______ _____ _____    ______ ____
ROOT
ATOM      1  C   UNL     1       5.774  -0.241  -0.391  0.00  0.00    +0.063 C 
ATOM      2  C   UNL     1       6.441   0.445   0.802  0.00  0.00    +0.109 C 
ATOM      3  C   UNL     1       5.535   0.339   2.002  0.00  0.00    +0.218 C 
ATOM      4  O   UNL     1       6.011   0.229   3.112  0.00  0.00    -0.275 OA
ATOM      5  N   UNL     1       4.200   0.367   1.844  0.00  0.00    -0.289 N 
ATOM      6  C   UNL     1       3.635   0.517   0.603  0.00  0.00    +0.018 C 
ATOM      7  C   UNL     1       4.345   0.236  -0.510  0.00  0.00    +0.020 C 
ATOM      8  C   UNL     1       3.785   0.377  -1.790  0.00  0.00    +0.162 C 
ATOM      9  O   UNL     1       4.460   0.127  -2.769  0.00  0.00    -0.292 OA
ATOM     10  C   UNL     1       2.361   0.833  -1.968  0.00  0.00    +0.088 C 
ATOM     11  C   UNL     1       1.548   0.415  -0.739  0.00  0.00    +0.032 C 
ATOM     12  C   UNL     1       2.211   1.004   0.509  0.00  0.00    +0.059 C 
ATOM     13  H   UNL     1       3.541   0.269   2.719  0.00  0.00    +0.155 HD
ENDROOT
BRANCH  11  14
ATOM     14  C   UNL     1       0.141   0.942  -0.860  0.00  0.00    -0.042 A 
ATOM     15  C   UNL     1      -0.927   0.063  -0.874  0.00  0.00    +0.005 A 
ATOM     16  C   UNL     1      -2.217   0.544  -0.990  0.00  0.00    +0.022 A 
ATOM     17  C   UNL     1      -2.442   1.906  -1.082  0.00  0.00    +0.059 A 
ATOM     18  C   UNL     1      -1.373   2.786  -1.069  0.00  0.00    +0.060 A 
ATOM     19  C   UNL     1      -0.081   2.302  -0.958  0.00  0.00    +0.025 A 
ATOM     20 CL   UNL     1      -1.652   4.495  -1.191  0.00  0.00    -0.082 Cl
ATOM     21 CL   UNL     1      -4.063   2.512  -1.222  0.00  0.00    -0.082 Cl
ENDBRANCH  11  14
BRANCH   1  24
ATOM     22  C   UNL     1       6.449  -3.921  -0.913  0.00  0.00    +0.162 A 
ATOM     23  C   UNL     1       6.434  -2.549  -1.099  0.00  0.00    +0.053 A 
ATOM     24  C   UNL     1       5.789  -1.734  -0.187  0.00  0.00    -0.036 A 
ATOM     25  C   UNL     1       5.164  -2.286   0.916  0.00  0.00    +0.008 A 
ATOM     26  C   UNL     1       5.172  -3.655   1.105  0.00  0.00    +0.050 A 
ATOM     27  C   UNL     1       5.816  -4.477   0.194  0.00  0.00    +0.162 A 
BRANCH  22  28
ATOM     28  O   UNL     1       7.083  -4.724  -1.810  0.00  0.00    -0.489 OA
BRANCH  28  30
ATOM     29  C   UNL     1       8.367  -5.140  -3.814  0.00  0.00    +0.048 C 
ATOM     30  C   UNL     1       7.712  -4.084  -2.922  0.00  0.00    +0.226 C 
ENDBRANCH  28  30
ENDBRANCH  22  28
BRANCH  27  31
ATOM     31  O   UNL     1       5.828  -5.824   0.382  0.00  0.00    -0.486 OA
BRANCH  31  32
ATOM     32  C   UNL     1       5.262  -6.315   1.598  0.00  0.00    +0.167 C 
ATOM     33  C   UNL     1       3.749  -6.470   1.431  0.00  0.00    +0.051 C 
ATOM     34  C   UNL     1       5.879  -7.674   1.937  0.00  0.00    +0.051 C 
ENDBRANCH  31  32
ENDBRANCH  27  31
ENDBRANCH   1  24
TORSDOF 6
