REMARK  Name = ZINC01449942
REMARK  7 active torsions:
REMARK  status: ('A' for Active; 'I' for Inactive)
REMARK    1  A    between atoms: C_1  and  C_2
REMARK    2  A    between atoms: C_2  and  C_3
REMARK    3  A    between atoms: C_2  and  C_4
REMARK    4  A    between atoms: C_4  and  N_5
REMARK    5  A    between atoms: C_9  and  C_10
REMARK    6  A    between atoms: C_11  and  N_21
REMARK    7  A    between atoms: N_24  and  C_27
REMARK                            x       y       z     vdW  Elec       q    Type
REMARK                         _______ _______ _______ _____ _____    ______ ____
ROOT
ATOM      1  C   UNL     1       2.806   3.897   0.102  0.00  0.00    +0.081 A 
ATOM      2  C   UNL     1       2.989   5.291  -0.057  0.00  0.00    +0.136 A 
ATOM      3  N   UNL     1       4.202   5.768  -0.296  0.00  0.00    -0.214 NA
ATOM      4  C   UNL     1       5.261   4.965  -0.400  0.00  0.00    +0.142 A 
ATOM      5  C   UNL     1       6.524   5.528  -0.659  0.00  0.00    +0.047 A 
ATOM      6  C   UNL     1       7.613   4.715  -0.766  0.00  0.00    +0.005 A 
ATOM      7  C   UNL     1       7.459   3.330  -0.617  0.00  0.00    +0.018 A 
ATOM      8  C   UNL     1       6.238   2.806  -0.369  0.00  0.00    +0.096 A 
ATOM      9  N   UNL     1       5.143   3.610  -0.259  0.00  0.00    -0.268 N 
ATOM     10  C   UNL     1       3.937   3.054  -0.010  0.00  0.00    +0.267 A 
ATOM     11  O   UNL     1       3.825   1.847   0.116  0.00  0.00    -0.267 OA
ENDROOT
BRANCH   1  16
ATOM     12  N   UNL     1      -1.003   4.031   2.929  0.00  0.00    -0.255 N 
ATOM     13  C   UNL     1      -0.526   3.477   1.828  0.00  0.00    +0.258 C 
ATOM     14  O   UNL     1      -1.206   2.712   1.166  0.00  0.00    -0.269 OA
ATOM     15  C   UNL     1       0.807   3.793   1.440  0.00  0.00    +0.077 C 
ATOM     16  C   UNL     1       1.524   3.360   0.362  0.00  0.00    +0.037 C 
ATOM     17  S   UNL     1       1.287   4.912   2.748  0.00  0.00    -0.061 S 
ATOM     18  C   UNL     1      -0.246   4.875   3.665  0.00  0.00    +0.121 C 
ATOM     19  S   UNL     1      -0.653   5.699   5.109  0.00  0.00    -0.027 S 
BRANCH  12  20
ATOM     20  C   UNL     1      -2.370   3.728   3.356  0.00  0.00    +0.118 C 
BRANCH  20  22
ATOM     21  C   UNL     1      -1.597   2.847   5.563  0.00  0.00    +0.009 C 
ATOM     22  C   UNL     1      -2.357   2.507   4.279  0.00  0.00    +0.001 C 
ATOM     23  C   UNL     1      -3.794   2.114   4.626  0.00  0.00    +0.009 C 
ENDBRANCH  20  22
ENDBRANCH  12  20
ENDBRANCH   1  16
BRANCH   2  24
ATOM     24  N   UNL     1       1.913   6.147   0.039  0.00  0.00    -0.312 N 
ATOM     25  C   UNL     1       0.947   5.903  -1.040  0.00  0.00    +0.125 C 
ATOM     26  C   UNL     1      -0.266   6.817  -0.852  0.00  0.00    +0.124 C 
ATOM     27  N   UNL     1       0.175   8.219  -0.852  0.00  0.00    -0.327 N 
ATOM     28  C   UNL     1       1.142   8.463   0.228  0.00  0.00    +0.124 C 
ATOM     29  C   UNL     1       2.355   7.549   0.040  0.00  0.00    +0.125 C 
BRANCH  27  30
ATOM     30  C   UNL     1      -0.915   9.087  -0.754  0.00  0.00    +0.030 A 
ATOM     31  C   UNL     1      -0.974  10.016   0.277  0.00  0.00    +0.023 A 
ATOM     32  C   UNL     1      -2.051  10.876   0.368  0.00  0.00    +0.002 A 
ATOM     33  C   UNL     1      -3.074  10.806  -0.559  0.00  0.00    +0.000 A 
ATOM     34  C   UNL     1      -3.021   9.878  -1.583  0.00  0.00    +0.002 A 
ATOM     35  C   UNL     1      -1.944   9.019  -1.683  0.00  0.00    +0.023 A 
ENDBRANCH  27  30
ENDBRANCH   2  24
TORSDOF 5
