REMARK  Name = ZINC21888217
REMARK  9 active torsions:
REMARK  status: ('A' for Active; 'I' for Inactive)
REMARK    1  A    between atoms: C_1  and  O_2
REMARK    2  A    between atoms: O_2  and  C_3
REMARK    3  A    between atoms: C_6  and  C_9
REMARK    4  A    between atoms: C_9  and  C_10
REMARK    5  A    between atoms: C_10  and  N_11
REMARK    6  A    between atoms: C_14  and  C_17
REMARK    7  A    between atoms: C_17  and  N_18
REMARK    8  A    between atoms: N_18  and  S_19
REMARK    9  A    between atoms: S_19  and  C_22
REMARK                            x       y       z     vdW  Elec       q    Type
REMARK                         _______ _______ _______ _____ _____    ______ ____
ROOT
ATOM      1  C   UNL     1      -4.697  -0.114   2.418  0.00  0.00    +0.109 C 
ENDROOT
BRANCH   1   5
ATOM      2  N   UNL     1      -7.683  -0.592   5.439  0.00  0.00    +0.380 N 
ATOM      3  C   UNL     1      -6.409   0.002   5.864  0.00  0.00    -0.079 C 
ATOM      4  C   UNL     1      -5.653   0.522   4.639  0.00  0.00    -0.014 C 
ATOM      5  C   UNL     1      -5.399  -0.638   3.672  0.00  0.00    +0.001 C 
ATOM      6  C   UNL     1      -6.738  -1.270   3.283  0.00  0.00    -0.014 C 
ATOM      7  C   UNL     1      -7.462  -1.738   4.547  0.00  0.00    -0.079 C 
ATOM      8  H   UNL     1      -8.237   0.171   4.873  0.00  0.00    -0.082 HD
BRANCH   2   9
ATOM      9  C   UNL     1      -8.497  -0.977   6.599  0.00  0.00    -0.074 C 
BRANCH   9  10
ATOM     10  C   UNL     1      -9.904  -1.357   6.131  0.00  0.00    +0.016 C 
BRANCH  10  14
ATOM     11  C   UNL     1     -12.273  -2.477   9.507  0.00  0.00    +0.120 A 
ATOM     12  C   UNL     1     -12.240  -1.154   9.089  0.00  0.00    +0.046 A 
ATOM     13  C   UNL     1     -11.473  -0.795   7.998  0.00  0.00    +0.007 A 
ATOM     14  C   UNL     1     -10.739  -1.752   7.322  0.00  0.00    -0.049 A 
ATOM     15  C   UNL     1     -10.775  -3.072   7.732  0.00  0.00    +0.007 A 
ATOM     16  C   UNL     1     -11.536  -3.435   8.827  0.00  0.00    +0.046 A 
BRANCH  11  18
ATOM     17  C   UNL     1     -13.013  -4.212  10.954  0.00  0.00    +0.277 C 
ATOM     18  O   UNL     1     -13.026  -2.833  10.581  0.00  0.00    -0.495 OA
ENDBRANCH  11  18
ENDBRANCH  10  14
ENDBRANCH   9  10
ENDBRANCH   2   9
ENDBRANCH   1   5
BRANCH   1  19
ATOM     19  N   UNL     1      -4.348  -1.239   1.547  0.00  0.00    -0.190 NA
ATOM     20  H   UNL     1      -4.208  -2.242   1.975  0.00  0.00    +0.148 HD
BRANCH  19  21
ATOM     21  S   UNL     1      -3.921  -0.965  -0.029  0.00  0.00    +0.058 S 
ATOM     22  O   UNL     1      -4.912  -0.105  -0.575  0.00  0.00    -0.153 OA
ATOM     23  O   UNL     1      -3.618  -2.233  -0.594  0.00  0.00    -0.153 OA
BRANCH  21  24
ATOM     24  C   UNL     1      -2.416  -0.049  -0.010  0.00  0.00    +0.106 A 
ATOM     25  C   UNL     1      -2.441   1.334   0.007  0.00  0.00    +0.030 A 
ATOM     26  C   UNL     1      -1.259   2.033   0.017  0.00  0.00    +0.025 A 
ATOM     27  C   UNL     1      -0.017   1.374   0.010  0.00  0.00    +0.037 A 
ATOM     28  C   UNL     1       0.002  -0.004   0.002  0.00  0.00    -0.024 A 
ATOM     29  C   UNL     1      -1.206  -0.704  -0.012  0.00  0.00    +0.034 A 
ATOM     30  C   UNL     1       1.234  -0.850   0.011  0.00  0.00    +0.037 C 
ATOM     31  C   UNL     1       2.382  -0.319   0.811  0.00  0.00    +0.014 C 
ATOM     32  C   UNL     1       3.136   0.791   0.119  0.00  0.00    +0.096 C 
ATOM     33  C   UNL     1       2.369   2.065   0.115  0.00  0.00    +0.217 C 
ATOM     34  O   UNL     1       3.016   3.084   0.229  0.00  0.00    -0.275 OA
ATOM     35  N   UNL     1       1.079   2.206   0.004  0.00  0.00    -0.285 N 
ATOM     36  H   UNL     1       0.945   3.291  -0.121  0.00  0.00    +0.155 HD
ENDBRANCH  21  24
ENDBRANCH  19  21
ENDBRANCH   1  19
TORSDOF 8
