REMARK  Name = ZINC42858462
REMARK  7 active torsions:
REMARK  status: ('A' for Active; 'I' for Inactive)
REMARK    1  A    between atoms: C_1  and  C_2
REMARK    2  A    between atoms: C_3  and  N_23
REMARK    3  A    between atoms: C_5  and  S_9
REMARK    4  A    between atoms: S_9  and  N_12
REMARK    5  A    between atoms: N_12  and  C_13
REMARK    6  A    between atoms: C_13  and  C_14
REMARK    7  A    between atoms: C_20  and  C_22
REMARK                            x       y       z     vdW  Elec       q    Type
REMARK                         _______ _______ _______ _____ _____    ______ ____
ROOT
ATOM      1  S   UNL     1       0.063  -4.536  -0.016  0.00  0.00    +0.059 S 
ATOM      2  O   UNL     1      -0.476  -4.952   1.231  0.00  0.00    -0.153 OA
ATOM      3  O   UNL     1      -0.488  -4.947  -1.260  0.00  0.00    -0.153 OA
ENDROOT
BRANCH   1   8
ATOM      4  C   UNL     1      -0.018   1.503   0.010  0.00  0.00    +0.047 C 
ATOM      5  C   UNL     1       0.002  -0.004   0.002  0.00  0.00    -0.011 A 
ATOM      6  C   UNL     1       0.006  -0.693  -1.204  0.00  0.00    +0.031 A 
ATOM      7  C   UNL     1       0.025  -2.082  -1.208  0.00  0.00    +0.051 A 
ATOM      8  C   UNL     1       0.040  -2.774  -0.012  0.00  0.00    +0.108 A 
ATOM      9  C   UNL     1       0.035  -2.087   1.187  0.00  0.00    +0.049 A 
ATOM     10  C   UNL     1       0.023  -0.702   1.194  0.00  0.00    +0.047 A 
ATOM     11 CL   UNL     1       0.026   0.157   2.703  0.00  0.00    -0.083 Cl
BRANCH   6  12
ATOM     12  N   UNL     1      -0.010   0.010  -2.411  0.00  0.00    -0.358 N 
ATOM     13  H   UNL     1      -0.023   0.980  -2.408  0.00  0.00    +0.142 HD
ATOM     14  H   UNL     1      -0.007  -0.472  -3.253  0.00  0.00    +0.142 HD
ENDBRANCH   6  12
ENDBRANCH   1   8
BRANCH   1  15
ATOM     15  N   UNL     1       1.652  -5.004  -0.025  0.00  0.00    -0.190 NA
ATOM     16  H   UNL     1       2.013  -5.480  -0.789  0.00  0.00    +0.148 HD
BRANCH  15  17
ATOM     17  C   UNL     1       2.511  -4.699   1.122  0.00  0.00    +0.109 C 
BRANCH  17  18
ATOM     18  C   UNL     1       3.787  -5.540   1.040  0.00  0.00    +0.007 C 
ATOM     19  C   UNL     1       4.594  -5.126  -0.192  0.00  0.00    +0.005 C 
ATOM     20  C   UNL     1       5.869  -5.967  -0.273  0.00  0.00    +0.000 C 
ATOM     21  C   UNL     1       6.709  -5.742   0.986  0.00  0.00    +0.000 C 
ATOM     22  C   UNL     1       5.903  -6.157   2.218  0.00  0.00    +0.003 C 
ATOM     23  C   UNL     1       4.627  -5.316   2.299  0.00  0.00    -0.010 C 
ATOM     24  C   UNL     1       3.820  -5.730   3.531  0.00  0.00    +0.008 C 
ENDBRANCH  17  18
ENDBRANCH  15  17
ENDBRANCH   1  15
TORSDOF 5
