REMARK  Name = ZINC05002932
REMARK  8 active torsions:
REMARK  status: ('A' for Active; 'I' for Inactive)
REMARK    1  A    between atoms: C_1  and  C_2
REMARK    2  A    between atoms: C_2  and  C_3
REMARK    3  A    between atoms: C_3  and  C_4
REMARK    4  A    between atoms: C_4  and  O_5
REMARK    5  A    between atoms: O_5  and  C_6
REMARK    6  A    between atoms: C_6  and  C_8
REMARK    7  A    between atoms: C_9  and  C_26
REMARK    8  A    between atoms: C_14  and  C_16
REMARK                            x       y       z     vdW  Elec       q    Type
REMARK                         _______ _______ _______ _____ _____    ______ ____
ROOT
ATOM      1  C   UNL     1       2.243  -4.104   3.728  0.00  0.00    +0.078 C 
ATOM      2  C   UNL     1       2.373  -5.442   3.847  0.00  0.00    +0.021 C 
ATOM      3  N   UNL     1       3.026  -5.995   4.911  0.00  0.00    -0.273 N 
ATOM      4  C   UNL     1       3.576  -5.278   5.899  0.00  0.00    +0.304 C 
ATOM      5  O   UNL     1       4.137  -5.860   6.806  0.00  0.00    -0.252 OA
ATOM      6  N   UNL     1       3.528  -3.931   5.920  0.00  0.00    -0.288 N 
ATOM      7  C   UNL     1       2.851  -3.237   4.812  0.00  0.00    +0.145 C 
ATOM      8  C   UNL     1       1.788  -6.341   2.788  0.00  0.00    +0.061 C 
ATOM      9  H   UNL     1       3.095  -6.962   4.954  0.00  0.00    +0.156 HD
ATOM     10  H   UNL     1       3.933  -3.431   6.646  0.00  0.00    +0.151 HD
ENDROOT
BRANCH   7  11
ATOM     11  C   UNL     1       3.845  -2.308   4.162  0.00  0.00    -0.005 A 
ATOM     12  C   UNL     1       5.172  -2.682   4.058  0.00  0.00    +0.056 A 
ATOM     13  C   UNL     1       6.087  -1.831   3.462  0.00  0.00    +0.167 A 
ATOM     14  C   UNL     1       5.667  -0.598   2.967  0.00  0.00    +0.167 A 
ATOM     15  C   UNL     1       4.336  -0.230   3.074  0.00  0.00    +0.065 A 
ATOM     16  C   UNL     1       3.426  -1.087   3.666  0.00  0.00    +0.027 A 
ATOM     17 BR   UNL     1       1.608  -0.585   3.804  0.00  0.00    -0.050 Br
ATOM     18  O   UNL     1       6.745   0.048   2.434  0.00  0.00    -0.453 OA
ATOM     19  C   UNL     1       7.900  -0.622   2.972  0.00  0.00    +0.466 C 
ATOM     20  O   UNL     1       7.428  -1.956   3.239  0.00  0.00    -0.453 OA
ENDBRANCH   7  11
BRANCH   1  21
ATOM     21  C   UNL     1       1.568  -3.530   2.625  0.00  0.00    +0.339 C 
ATOM     22  O   UNL     1       2.202  -3.011   1.726  0.00  0.00    -0.245 OA
BRANCH  21  23
ATOM     23  O   UNL     1       0.220  -3.557   2.571  0.00  0.00    -0.461 OA
BRANCH  23  24
ATOM     24  C   UNL     1      -0.392  -3.059   1.379  0.00  0.00    +0.232 C 
BRANCH  24  25
ATOM     25  C   UNL     1      -1.913  -3.055   1.550  0.00  0.00    +0.041 C 
BRANCH  25  27
ATOM     26  C   UNL     1      -4.082  -2.405   0.495  0.00  0.00    +0.004 C 
ATOM     27  C   UNL     1      -2.562  -2.409   0.325  0.00  0.00    -0.000 C 
ENDBRANCH  25  27
ENDBRANCH  24  25
ENDBRANCH  23  24
ENDBRANCH  21  23
ENDBRANCH   1  21
TORSDOF 6
