REMARK  Name = ZINC02966930
REMARK  5 active torsions:
REMARK  status: ('A' for Active; 'I' for Inactive)
REMARK    1  A    between atoms: C_9  and  C_17
REMARK    2  A    between atoms: C_17  and  C_18
REMARK    3  A    between atoms: N_20  and  C_21
REMARK    4  A    between atoms: C_21  and  C_22
REMARK    5  A    between atoms: C_22  and  C_23
REMARK                            x       y       z     vdW  Elec       q    Type
REMARK                         _______ _______ _______ _____ _____    ______ ____
ROOT
ATOM      1  C   UNL     1       1.170   1.788   0.001  0.00  0.00    +0.001 A 
ATOM      2  C   UNL     1       1.153   3.173   0.008  0.00  0.00    +0.002 A 
ATOM      3  C   UNL     1      -0.044   3.862   0.024  0.00  0.00    +0.024 A 
ATOM      4  C   UNL     1      -1.241   3.163   0.031  0.00  0.00    +0.043 A 
ATOM      5  C   UNL     1      -1.223   1.760   0.017  0.00  0.00    +0.036 A 
ATOM      6  C   UNL     1      -0.013   1.076   0.008  0.00  0.00    +0.013 A 
ATOM      7  C   UNL     1      -2.518   1.038   0.033  0.00  0.00    +0.138 C 
ATOM      8  N   UNL     1      -2.758  -0.242   0.029  0.00  0.00    -0.255 NA
ATOM      9  C   UNL     1      -4.215  -0.429   0.044  0.00  0.00    +0.202 C 
ATOM     10  C   UNL     1      -4.765   0.981   0.057  0.00  0.00    +0.252 C 
ATOM     11  O   UNL     1      -5.931   1.314   0.072  0.00  0.00    -0.272 OA
ATOM     12  N   UNL     1      -3.681   1.792   0.050  0.00  0.00    -0.203 N 
ATOM     13  C   UNL     1      -3.619   3.140   0.057  0.00  0.00    +0.149 C 
ATOM     14  S   UNL     1      -5.086   4.023   0.077  0.00  0.00    -0.018 S 
ATOM     15  N   UNL     1      -2.464   3.821   0.048  0.00  0.00    -0.296 N 
ATOM     16  H   UNL     1      -2.483   4.790   0.054  0.00  0.00    +0.154 HD
ENDROOT
BRANCH   9  17
ATOM     17  C   UNL     1      -4.673  -1.171  -1.213  0.00  0.00    +0.132 C 
BRANCH  17  18
ATOM     18  C   UNL     1      -4.134  -2.578  -1.190  0.00  0.00    +0.216 C 
ATOM     19  O   UNL     1      -3.451  -2.951  -0.260  0.00  0.00    -0.276 OA
ATOM     20  N   UNL     1      -4.412  -3.423  -2.203  0.00  0.00    -0.315 N 
ATOM     21  H   UNL     1      -4.958  -3.125  -2.947  0.00  0.00    +0.149 HD
BRANCH  20  22
ATOM     22  C   UNL     1      -3.888  -4.791  -2.180  0.00  0.00    +0.109 C 
BRANCH  22  23
ATOM     23  C   UNL     1      -4.346  -5.533  -3.437  0.00  0.00    +0.054 C 
BRANCH  23  24
ATOM     24  C   UNL     1      -3.808  -6.941  -3.414  0.00  0.00    -0.046 A 
ATOM     25  C   UNL     1      -2.579  -7.220  -3.984  0.00  0.00    +0.005 A 
ATOM     26  C   UNL     1      -2.082  -8.509  -3.958  0.00  0.00    +0.020 A 
ATOM     27  C   UNL     1      -2.819  -9.523  -3.371  0.00  0.00    +0.041 A 
ATOM     28  C   UNL     1      -4.051  -9.244  -2.806  0.00  0.00    +0.020 A 
ATOM     29  C   UNL     1      -4.544  -7.953  -2.827  0.00  0.00    +0.005 A 
ATOM     30 CL   UNL     1      -2.199 -11.144  -3.345  0.00  0.00    -0.084 Cl
ENDBRANCH  23  24
ENDBRANCH  22  23
ENDBRANCH  20  22
ENDBRANCH  17  18
ENDBRANCH   9  17
TORSDOF 5
