REMARK  Name = ZINC28296448
REMARK  9 active torsions:
REMARK  status: ('A' for Active; 'I' for Inactive)
REMARK    1  A    between atoms: C_1  and  C_2
REMARK    2  A    between atoms: C_2  and  N_3
REMARK    3  A    between atoms: N_3  and  C_4
REMARK    4  A    between atoms: N_3  and  C_6
REMARK    5  A    between atoms: C_4  and  C_5
REMARK    6  A    between atoms: C_9  and  C_12
REMARK    7  A    between atoms: C_15  and  C_24
REMARK    8  A    between atoms: C_24  and  C_26
REMARK    9  A    between atoms: C_29  and  C_33
REMARK                            x       y       z     vdW  Elec       q    Type
REMARK                         _______ _______ _______ _____ _____    ______ ____
ROOT
ATOM      1  C   UNL     1       3.974  -2.147  -0.561  0.00  0.00    +0.107 C 
ATOM      2  C   UNL     1       3.925  -0.817   0.170  0.00  0.00    +0.086 C 
ATOM      3  C   UNL     1       2.578  -0.191   0.078  0.00  0.00    +0.092 C 
ATOM      4  N   UNL     1       1.454  -0.753   0.090  0.00  0.00    -0.246 NA
ATOM      5  C   UNL     1       0.988  -2.005   0.099  0.00  0.00    +0.085 A 
ATOM      6  C   UNL     1      -0.418  -2.151   0.107  0.00  0.00    +0.029 A 
ATOM      7  C   UNL     1      -0.998  -3.393   0.106  0.00  0.00    +0.002 A 
ATOM      8  C   UNL     1      -0.207  -4.532   0.096  0.00  0.00    +0.002 A 
ATOM      9  C   UNL     1       1.164  -4.416   0.092  0.00  0.00    +0.025 A 
ATOM     10  C   UNL     1       1.777  -3.161   0.097  0.00  0.00    +0.053 A 
ATOM     11  N   UNL     1       3.158  -3.139   0.101  0.00  0.00    -0.335 N 
ATOM     12  H   UNL     1       3.632  -3.957   0.663  0.00  0.00    +0.147 HD
ENDROOT
BRANCH   1  16
ATOM     13  C   UNL     1       2.552  -1.605  -4.555  0.00  0.00    +0.030 A 
ATOM     14  C   UNL     1       3.166  -0.554  -3.885  0.00  0.00    +0.023 A 
ATOM     15  C   UNL     1       3.624  -0.733  -2.595  0.00  0.00    +0.007 A 
ATOM     16  C   UNL     1       3.473  -1.956  -1.969  0.00  0.00    -0.027 A 
ATOM     17  C   UNL     1       2.867  -3.007  -2.634  0.00  0.00    +0.007 A 
ATOM     18  C   UNL     1       2.401  -2.833  -3.923  0.00  0.00    +0.023 A 
BRANCH  13  19
ATOM     19  N   UNL     1       2.087  -1.428  -5.860  0.00  0.00    -0.330 N 
BRANCH  19  21
ATOM     20  C   UNL     1      -0.066  -2.504  -6.295  0.00  0.00    +0.024 C 
ATOM     21  C   UNL     1       1.440  -2.538  -6.564  0.00  0.00    +0.102 C 
ENDBRANCH  19  21
BRANCH  19  22
ATOM     22  C   UNL     1       2.246  -0.132  -6.524  0.00  0.00    +0.102 C 
ATOM     23  C   UNL     1       3.582  -0.102  -7.269  0.00  0.00    +0.024 C 
ENDBRANCH  19  22
ENDBRANCH  13  19
ENDBRANCH   1  16
BRANCH   3  24
ATOM     24  C   UNL     1       2.559   1.276  -0.034  0.00  0.00    +0.218 C 
ATOM     25  O   UNL     1       3.604   1.891  -0.145  0.00  0.00    -0.285 OA
BRANCH  24  26
ATOM     26  C   UNL     1       1.283   1.997  -0.013  0.00  0.00    +0.154 A 
ATOM     27  C   UNL     1       0.679   2.356   1.204  0.00  0.00    +0.200 A 
ATOM     28  C   UNL     1      -0.546   3.048   1.168  0.00  0.00    +0.093 A 
ATOM     29  C   UNL     1      -1.114   3.351  -0.018  0.00  0.00    +0.110 A 
ATOM     30  O   UNL     1      -0.540   3.015  -1.180  0.00  0.00    -0.427 OA
ATOM     31  C   UNL     1       0.628   2.349  -1.221  0.00  0.00    +0.352 A 
ATOM     32  O   UNL     1       1.124   2.053  -2.293  0.00  0.00    -0.244 OA
ATOM     33  C   UNL     1      -2.426   4.092  -0.035  0.00  0.00    +0.086 C 
ATOM     34  O   UNL     1       1.262   2.045   2.382  0.00  0.00    -0.287 OA
ENDBRANCH  24  26
ENDBRANCH   3  24
TORSDOF 6
