REMARK  Name = ZINC43746395
REMARK  6 active torsions:
REMARK  status: ('A' for Active; 'I' for Inactive)
REMARK    1  A    between atoms: C_1  and  C_2
REMARK    2  A    between atoms: C_2  and  O_3
REMARK    3  A    between atoms: O_3  and  C_4
REMARK    4  A    between atoms: C_9  and  C_10
REMARK    5  A    between atoms: C_10  and  C_12
REMARK    6  A    between atoms: C_33  and  C_40
REMARK                            x       y       z     vdW  Elec       q    Type
REMARK                         _______ _______ _______ _____ _____    ______ ____
ROOT
ATOM      1  C   UNL     1       2.695  -2.097  -4.633  0.00  0.00    +0.066 C 
ATOM      2  C   UNL     1       4.160  -2.392  -4.268  0.00  0.00    -0.055 C 
ATOM      3  C   UNL     1       4.307  -3.841  -3.786  0.00  0.00    -0.016 C 
ATOM      4  C   UNL     1       5.292  -4.497  -4.780  0.00  0.00    -0.020 C 
ATOM      5  C   UNL     1       5.138  -3.620  -6.046  0.00  0.00    -0.076 C 
ATOM      6  N   UNL     1       4.952  -2.227  -5.508  0.00  0.00    +0.395 N 
ATOM      7  C   UNL     1       4.153  -1.451  -6.470  0.00  0.00    +0.060 C 
ATOM      8  C   UNL     1       2.806  -1.136  -5.827  0.00  0.00    +0.085 C 
ATOM      9  C   UNL     1       2.715   0.296  -5.380  0.00  0.00    -0.011 A 
ATOM     10  C   UNL     1       3.460   1.069  -4.518  0.00  0.00    +0.006 A 
ATOM     11  C   UNL     1       3.118   2.393  -4.303  0.00  0.00    +0.000 A 
ATOM     12  C   UNL     1       2.028   2.936  -4.957  0.00  0.00    +0.002 A 
ATOM     13  C   UNL     1       1.279   2.166  -5.822  0.00  0.00    +0.023 A 
ATOM     14  C   UNL     1       1.615   0.832  -6.043  0.00  0.00    +0.038 A 
ATOM     15  N   UNL     1       1.023  -0.136  -6.857  0.00  0.00    -0.285 N 
ATOM     16  C   UNL     1       1.661  -1.320  -6.785  0.00  0.00    +0.228 C 
ATOM     17  O   UNL     1       1.370  -2.337  -7.378  0.00  0.00    -0.275 OA
ATOM     18  C   UNL     1       3.975  -2.216  -7.756  0.00  0.00    -0.026 A 
ATOM     19  C   UNL     1       3.396  -3.428  -8.059  0.00  0.00    +0.008 A 
ATOM     20  C   UNL     1       3.386  -3.881  -9.367  0.00  0.00    -0.050 A 
ATOM     21  C   UNL     1       3.957  -3.114 -10.365  0.00  0.00    +0.005 A 
ATOM     22  C   UNL     1       4.537  -1.899 -10.065  0.00  0.00    +0.024 A 
ATOM     23  C   UNL     1       4.552  -1.436  -8.751  0.00  0.00    +0.036 A 
ATOM     24  N   UNL     1       5.069  -0.260  -8.204  0.00  0.00    -0.286 N 
ATOM     25  C   UNL     1       4.876  -0.191  -6.874  0.00  0.00    +0.212 C 
ATOM     26  O   UNL     1       5.219   0.712  -6.141  0.00  0.00    -0.277 OA
ATOM     27  C   UNL     1       2.753  -5.208  -9.701  0.00  0.00    +0.044 C 
ATOM     28  H   UNL     1       0.242   0.025  -7.409  0.00  0.00    +0.155 HD
ATOM     29  H   UNL     1       5.516   0.427  -8.723  0.00  0.00    +0.155 HD
ATOM     30  H   UNL     1       5.838  -1.785  -5.316  0.00  0.00    -0.079 HD
ENDROOT
BRANCH   1  31
ATOM     31  C   UNL     1       1.984  -1.433  -3.482  0.00  0.00    +0.169 C 
ATOM     32  O   UNL     1       2.623  -0.862  -2.623  0.00  0.00    -0.292 OA
BRANCH  31  38
ATOM     33  C   UNL     1      -0.154  -0.769  -2.391  0.00  0.00    +0.131 A 
ATOM     34  C   UNL     1      -1.539  -0.814  -2.328  0.00  0.00    +0.046 A 
ATOM     35  C   UNL     1      -2.250  -1.558  -3.248  0.00  0.00    +0.004 A 
ATOM     36  C   UNL     1      -1.590  -2.264  -4.242  0.00  0.00    +0.001 A 
ATOM     37  C   UNL     1      -0.216  -2.233  -4.322  0.00  0.00    +0.015 A 
ATOM     38  C   UNL     1       0.519  -1.478  -3.399  0.00  0.00    +0.059 A 
BRANCH  33  39
ATOM     39  O   UNL     1       0.546  -0.039  -1.488  0.00  0.00    -0.492 OA
BRANCH  39  41
ATOM     40  C   UNL     1       0.747   1.417   0.430  0.00  0.00    +0.048 C 
ATOM     41  C   UNL     1      -0.208   0.656  -0.492  0.00  0.00    +0.226 C 
ENDBRANCH  39  41
ENDBRANCH  33  39
ENDBRANCH  31  38
ENDBRANCH   1  31
TORSDOF 4
