REMARK  Name = ZINC04778869
REMARK  4 active torsions:
REMARK  status: ('A' for Active; 'I' for Inactive)
REMARK    1  A    between atoms: C_4  and  C_7
REMARK    2  A    between atoms: C_8  and  C_17
REMARK    3  A    between atoms: N_27  and  C_28
REMARK    4  A    between atoms: C_28  and  C_29
REMARK                            x       y       z     vdW  Elec       q    Type
REMARK                         _______ _______ _______ _____ _____    ______ ____
ROOT
ATOM      1  C   UNL     1       1.271   1.857  -0.000  0.00  0.00    +0.053 A 
ATOM      2  C   UNL     1       2.146   0.820  -0.014  0.00  0.00    +0.010 A 
ATOM      3  C   UNL     1       1.351  -0.407  -0.013  0.00  0.00    +0.006 A 
ATOM      4  C   UNL     1       1.671  -1.768  -0.023  0.00  0.00    +0.010 A 
ATOM      5  C   UNL     1       0.673  -2.700  -0.019  0.00  0.00    +0.001 A 
ATOM      6  C   UNL     1      -0.659  -2.307  -0.004  0.00  0.00    +0.002 A 
ATOM      7  C   UNL     1      -0.998  -0.971   0.007  0.00  0.00    +0.026 A 
ATOM      8  C   UNL     1       0.002  -0.004   0.002  0.00  0.00    +0.047 A 
ATOM      9  N   UNL     1      -0.017   1.373   0.010  0.00  0.00    -0.354 N 
ATOM     10  H   UNL     1      -0.818   1.920   0.017  0.00  0.00    +0.166 HD
ENDROOT
BRANCH   2  11
ATOM     11  C   UNL     1       3.649   0.915  -0.028  0.00  0.00    +0.141 C 
ATOM     12  C   UNL     1       4.207   0.499   1.310  0.00  0.00    -0.010 A 
ATOM     13  C   UNL     1       4.053   0.985   2.588  0.00  0.00    +0.006 A 
ATOM     14  C   UNL     1       4.712   0.376   3.643  0.00  0.00    +0.000 A 
ATOM     15  C   UNL     1       5.525  -0.720   3.417  0.00  0.00    +0.001 A 
ATOM     16  C   UNL     1       5.687  -1.215   2.139  0.00  0.00    +0.013 A 
ATOM     17  C   UNL     1       5.026  -0.608   1.070  0.00  0.00    +0.042 A 
ATOM     18  C   UNL     1       4.999  -0.898  -0.376  0.00  0.00    +0.248 C 
ATOM     19  O   UNL     1       5.608  -1.802  -0.915  0.00  0.00    -0.270 OA
ATOM     20  N   UNL     1       4.205  -0.020  -1.013  0.00  0.00    -0.279 N 
BRANCH  20  21
ATOM     21  C   UNL     1       3.937  -0.001  -2.453  0.00  0.00    +0.183 C 
BRANCH  21  22
ATOM     22  C   UNL     1       4.956   0.870  -3.142  0.00  0.00    +0.122 A 
ATOM     23  C   UNL     1       6.141   0.460  -3.629  0.00  0.00    +0.046 A 
ATOM     24  C   UNL     1       6.769   1.597  -4.189  0.00  0.00    +0.041 A 
ATOM     25  C   UNL     1       5.934   2.635  -4.002  0.00  0.00    +0.195 A 
ATOM     26  O   UNL     1       4.837   2.189  -3.368  0.00  0.00    -0.466 OA
ENDBRANCH  21  22
ENDBRANCH  20  21
ENDBRANCH   2  11
BRANCH   1  30
ATOM     27  C   UNL     1       2.346   5.966   0.012  0.00  0.00    +0.000 A 
ATOM     28  C   UNL     1       1.359   5.510   0.868  0.00  0.00    +0.001 A 
ATOM     29  C   UNL     1       1.006   4.176   0.869  0.00  0.00    +0.010 A 
ATOM     30  C   UNL     1       1.645   3.288   0.004  0.00  0.00    -0.001 A 
ATOM     31  C   UNL     1       2.644   3.753  -0.853  0.00  0.00    +0.010 A 
ATOM     32  C   UNL     1       2.985   5.090  -0.847  0.00  0.00    +0.001 A 
ENDBRANCH   1  30
TORSDOF 4
