REMARK  Name = ZINC06161711
REMARK  5 active torsions:
REMARK  status: ('A' for Active; 'I' for Inactive)
REMARK    1  A    between atoms: C_1  and  S_2
REMARK    2  A    between atoms: S_2  and  N_5
REMARK    3  A    between atoms: C_6  and  C_30
REMARK    4  A    between atoms: C_9  and  C_11
REMARK    5  A    between atoms: C_12  and  C_24
REMARK                            x       y       z     vdW  Elec       q    Type
REMARK                         _______ _______ _______ _____ _____    ______ ____
ROOT
ATOM      1  C   UNL     1       0.590  -1.228  -4.611  0.00  0.00    +0.070 A 
ATOM      2  C   UNL     1       1.496  -1.377  -5.662  0.00  0.00    +0.005 A 
ATOM      3  C   UNL     1       0.966  -1.481  -7.029  0.00  0.00    +0.008 A 
ATOM      4  C   UNL     1       1.831  -1.631  -8.117  0.00  0.00    +0.030 A 
ATOM      5  C   UNL     1       1.316  -1.727  -9.391  0.00  0.00    +0.042 A 
ATOM      6  C   UNL     1      -0.056  -1.675  -9.598  0.00  0.00    +0.022 A 
ATOM      7  C   UNL     1      -0.921  -1.528  -8.536  0.00  0.00    +0.028 A 
ATOM      8  C   UNL     1      -0.423  -1.429  -7.239  0.00  0.00    +0.050 A 
ATOM      9  N   UNL     1      -1.289  -1.282  -6.173  0.00  0.00    -0.322 N 
ATOM     10  H   UNL     1      -2.244  -1.249  -6.342  0.00  0.00    +0.169 HD
ATOM     11  C   UNL     1      -0.845  -1.188  -4.909  0.00  0.00    +0.259 A 
ATOM     12  O   UNL     1      -1.645  -1.064  -3.998  0.00  0.00    -0.267 OA
ATOM     13 CL   UNL     1       2.388  -1.914 -10.744  0.00  0.00    -0.084 Cl
ENDROOT
BRANCH   2  14
ATOM     14  C   UNL     1       2.950  -1.427  -5.407  0.00  0.00    -0.016 A 
ATOM     15  C   UNL     1       3.617  -0.300  -4.920  0.00  0.00    +0.008 A 
ATOM     16  C   UNL     1       4.974  -0.355  -4.684  0.00  0.00    +0.001 A 
ATOM     17  C   UNL     1       5.676  -1.522  -4.930  0.00  0.00    +0.000 A 
ATOM     18  C   UNL     1       5.022  -2.642  -5.412  0.00  0.00    +0.001 A 
ATOM     19  C   UNL     1       3.664  -2.604  -5.647  0.00  0.00    +0.008 A 
ENDBRANCH   2  14
BRANCH   1  23
ATOM     20  N   UNL     1       1.883  -1.737  -1.219  0.00  0.00    -0.120 N 
ATOM     21  C   UNL     1       1.700  -0.286  -1.060  0.00  0.00    +0.156 C 
ATOM     22  C   UNL     1       1.140   0.161  -2.425  0.00  0.00    +0.088 C 
ATOM     23  C   UNL     1       1.066  -1.120  -3.225  0.00  0.00    +0.076 C 
ATOM     24  N   UNL     1       1.492  -2.103  -2.505  0.00  0.00    -0.167 NA
BRANCH  21  25
ATOM     25  C   UNL     1       0.715   0.007   0.042  0.00  0.00    +0.012 A 
ATOM     26  C   UNL     1      -0.215  -0.947   0.409  0.00  0.00    +0.008 A 
ATOM     27  C   UNL     1      -1.119  -0.678   1.420  0.00  0.00    +0.000 A 
ATOM     28  C   UNL     1      -1.093   0.544   2.066  0.00  0.00    +0.003 A 
ATOM     29  C   UNL     1      -0.163   1.499   1.701  0.00  0.00    +0.039 A 
ATOM     30  C   UNL     1       0.746   1.229   0.692  0.00  0.00    +0.128 A 
ATOM     31  F   UNL     1       1.659   2.160   0.338  0.00  0.00    -0.205 F 
ENDBRANCH  21  25
BRANCH  20  33
ATOM     32  C   UNL     1       4.232  -2.942  -0.438  0.00  0.00    +0.220 C 
ATOM     33  S   UNL     1       2.466  -2.767  -0.060  0.00  0.00    +0.057 S 
ATOM     34  O   UNL     1       1.792  -3.995  -0.294  0.00  0.00    -0.154 OA
ATOM     35  O   UNL     1       2.295  -2.068   1.165  0.00  0.00    -0.154 OA
ENDBRANCH  20  33
ENDBRANCH   1  23
TORSDOF 4
