REMARK  Name = ZINC48731130
REMARK  6 active torsions:
REMARK  status: ('A' for Active; 'I' for Inactive)
REMARK    1  A    between atoms: C_3  and  C_6
REMARK    2  A    between atoms: C_6  and  C_8
REMARK    3  A    between atoms: C_6  and  N_23
REMARK    4  A    between atoms: C_8  and  N_9
REMARK    5  A    between atoms: C_10  and  C_12
REMARK    6  A    between atoms: N_14  and  C_15
REMARK                            x       y       z     vdW  Elec       q    Type
REMARK                         _______ _______ _______ _____ _____    ______ ____
ROOT
ATOM      1  N   UNL     1       5.549   0.033  -1.566  0.00  0.00    -0.309 N 
ATOM      2  C   UNL     1       6.158  -0.303  -2.721  0.00  0.00    +0.299 C 
ATOM      3  O   UNL     1       5.504  -0.438  -3.734  0.00  0.00    -0.265 OA
ATOM      4  H   UNL     1       6.072   0.141  -0.756  0.00  0.00    +0.149 HD
ENDROOT
BRANCH   2   5
ATOM      5  C   UNL     1       7.637  -0.508  -2.753  0.00  0.00    +0.303 C 
ATOM      6  O   UNL     1       8.290  -0.373  -1.740  0.00  0.00    -0.265 OA
ATOM      7  N   UNL     1       8.245  -0.844  -3.908  0.00  0.00    -0.275 N 
ATOM      8  H   UNL     1       7.733  -0.889  -4.731  0.00  0.00    +0.155 HD
BRANCH   7   9
ATOM      9  C   UNL     1       9.614  -1.127  -3.920  0.00  0.00    +0.072 A 
ATOM     10  C   UNL     1      10.211  -1.726  -2.818  0.00  0.00    +0.064 A 
ATOM     11  C   UNL     1      11.565  -2.006  -2.834  0.00  0.00    +0.125 A 
ATOM     12  C   UNL     1      12.327  -1.688  -3.946  0.00  0.00    +0.041 A 
ATOM     13  C   UNL     1      11.736  -1.092  -5.045  0.00  0.00    +0.043 A 
ATOM     14  C   UNL     1      10.381  -0.815  -5.038  0.00  0.00    +0.145 A 
ATOM     15  F   UNL     1       9.803  -0.237  -6.114  0.00  0.00    -0.204 F 
ATOM     16  F   UNL     1      12.146  -2.588  -1.762  0.00  0.00    -0.205 F 
ENDBRANCH   7   9
ENDBRANCH   2   5
BRANCH   1  17
ATOM     17  C   UNL     1       4.098   0.234  -1.534  0.00  0.00    +0.097 C 
BRANCH  17  18
ATOM     18  C   UNL     1       3.649   0.479  -0.092  0.00  0.00    +0.016 C 
BRANCH  18  19
ATOM     19  N   UNL     1       4.086  -0.640   0.753  0.00  0.00    +0.387 N 
ATOM     20  C   UNL     1       3.579  -1.900   0.196  0.00  0.00    -0.078 C 
ATOM     21  C   UNL     1       4.099  -3.075   1.027  0.00  0.00    -0.019 C 
ATOM     22  C   UNL     1       3.618  -2.924   2.473  0.00  0.00    -0.004 C 
ATOM     23  C   UNL     1       4.090  -1.573   3.019  0.00  0.00    -0.019 C 
ATOM     24  C   UNL     1       3.570  -0.454   2.114  0.00  0.00    -0.078 C 
ATOM     25  H   UNL     1       5.095  -0.668   0.778  0.00  0.00    -0.081 HD
ENDBRANCH  18  19
BRANCH  18  28
ATOM     26  C   UNL     1       0.076   1.361   0.106  0.00  0.00    +0.041 A 
ATOM     27  C   UNL     1       1.444   1.720   0.129  0.00  0.00    +0.043 A 
ATOM     28  C   UNL     1       2.146   0.586  -0.046  0.00  0.00    +0.093 A 
ATOM     29  O   UNL     1       1.282  -0.434  -0.172  0.00  0.00    -0.469 OA
ATOM     30  C   UNL     1       0.025   0.030  -0.081  0.00  0.00    +0.195 A 
ENDBRANCH  18  28
ENDBRANCH  17  18
ENDBRANCH   1  17
TORSDOF 6
