REMARK  Name = ZINC55077290
REMARK  9 active torsions:
REMARK  status: ('A' for Active; 'I' for Inactive)
REMARK    1  A    between atoms: C_1  and  C_2
REMARK    2  A    between atoms: C_2  and  C_4
REMARK    3  A    between atoms: C_2  and  N_23
REMARK    4  A    between atoms: C_4  and  C_6
REMARK    5  A    between atoms: C_4  and  N_13
REMARK    6  A    between atoms: N_16  and  C_19
REMARK    7  A    between atoms: C_19  and  C_20
REMARK    8  A    between atoms: C_20  and  C_21
REMARK    9  A    between atoms: C_20  and  C_22
REMARK                            x       y       z     vdW  Elec       q    Type
REMARK                         _______ _______ _______ _____ _____    ______ ____
ROOT
ATOM      1  C   UNL     1       0.752  -0.497   1.302  0.00  0.00    +0.072 C 
ENDROOT
BRANCH   1   2
ATOM      2  C   UNL     1       2.192  -0.062   1.391  0.00  0.00    -0.032 A 
ATOM      3  C   UNL     1       3.172  -0.772   0.722  0.00  0.00    +0.006 A 
ATOM      4  C   UNL     1       4.492  -0.373   0.803  0.00  0.00    +0.015 A 
ATOM      5  C   UNL     1       4.835   0.737   1.554  0.00  0.00    +0.018 A 
ATOM      6  C   UNL     1       3.854   1.447   2.224  0.00  0.00    +0.015 A 
ATOM      7  C   UNL     1       2.533   1.051   2.138  0.00  0.00    +0.006 A 
ATOM      8 BR   UNL     1       6.641   1.283   1.666  0.00  0.00    -0.050 Br
ENDBRANCH   1   2
BRANCH   1   9
ATOM      9  N   UNL     1       0.679  -1.963   1.365  0.00  0.00    -0.301 NA
ATOM     10  C   UNL     1      -0.706  -2.428   1.207  0.00  0.00    +0.066 C 
ATOM     11  C   UNL     1      -0.732  -3.958   1.218  0.00  0.00    -0.063 C 
ATOM     12  N   UNL     1      -0.174  -4.447   2.486  0.00  0.00    +0.381 N 
ATOM     13  C   UNL     1       1.217  -3.995   2.619  0.00  0.00    -0.063 C 
ATOM     14  C   UNL     1       1.259  -2.466   2.619  0.00  0.00    +0.066 C 
ATOM     15  H   UNL     1      -0.720  -4.087   3.255  0.00  0.00    -0.082 HD
BRANCH  12  16
ATOM     16  C   UNL     1      -0.216  -5.916   2.504  0.00  0.00    -0.076 C 
BRANCH  16  17
ATOM     17  C   UNL     1       0.248  -6.422   3.872  0.00  0.00    -0.034 C 
ATOM     18  C   UNL     1      -0.747  -5.976   4.945  0.00  0.00    +0.005 C 
ATOM     19  C   UNL     1       0.324  -7.950   3.851  0.00  0.00    +0.005 C 
ENDBRANCH  16  17
ENDBRANCH  12  16
ENDBRANCH   1   9
BRANCH   1  21
ATOM     20  C   UNL     1       0.855  -0.716  -1.185  0.00  0.00    -0.012 C 
ATOM     21  C   UNL     1       0.154  -0.013  -0.021  0.00  0.00    -0.056 C 
BRANCH  21  22
ATOM     22  N   UNL     1       0.343   1.439  -0.141  0.00  0.00    +0.381 N 
ATOM     23  H   UNL     1      -0.136   1.774  -0.963  0.00  0.00    -0.090 HD
ATOM     24  H   UNL     1      -0.032   1.896   0.677  0.00  0.00    -0.090 HD
ATOM     25  H   UNL     1       1.328   1.645  -0.219  0.00  0.00    -0.090 HD
ENDBRANCH  21  22
ENDBRANCH   1  21
TORSDOF 6
