REMARK  Name = ZINC66131385
REMARK  7 active torsions:
REMARK  status: ('A' for Active; 'I' for Inactive)
REMARK    1  A    between atoms: C_1  and  C_2
REMARK    2  A    between atoms: C_2  and  C_3
REMARK    3  A    between atoms: C_2  and  O_4
REMARK    4  A    between atoms: O_4  and  C_5
REMARK    5  A    between atoms: C_14  and  C_15
REMARK    6  A    between atoms: N_26  and  C_27
REMARK    7  A    between atoms: C_27  and  C_28
REMARK                            x       y       z     vdW  Elec       q    Type
REMARK                         _______ _______ _______ _____ _____    ______ ____
ROOT
ATOM      1  C   UNL     1       1.966  -1.407  -3.227  0.00  0.00    +0.197 C 
ATOM      2  N   UNL     1       2.859  -1.387  -4.392  0.00  0.00    -0.321 N 
ATOM      3  C   UNL     1       3.208  -0.158  -4.939  0.00  0.00    +0.041 A 
ATOM      4  C   UNL     1       4.420   0.042  -5.577  0.00  0.00    +0.024 A 
ATOM      5  C   UNL     1       4.720   1.285  -6.100  0.00  0.00    +0.002 A 
ATOM      6  C   UNL     1       3.818   2.332  -5.992  0.00  0.00    +0.001 A 
ATOM      7  C   UNL     1       2.605   2.149  -5.361  0.00  0.00    +0.015 A 
ATOM      8  C   UNL     1       2.289   0.901  -4.830  0.00  0.00    +0.058 A 
ATOM      9  C   UNL     1       1.005   0.648  -4.153  0.00  0.00    +0.250 C 
ATOM     10  O   UNL     1       0.091   1.444  -4.251  0.00  0.00    -0.270 OA
ATOM     11  N   UNL     1       0.857  -0.475  -3.425  0.00  0.00    -0.270 N 
ATOM     12  H   UNL     1       3.197  -2.213  -4.772  0.00  0.00    +0.148 HD
ENDROOT
BRANCH   1  22
ATOM     13  C   UNL     1       2.819   0.307  -1.633  0.00  0.00    +0.128 A 
ATOM     14  C   UNL     1       3.530   0.694  -0.493  0.00  0.00    +0.046 A 
ATOM     15  C   UNL     1       4.166  -0.226   0.280  0.00  0.00    +0.012 A 
ATOM     16  C   UNL     1       4.111  -1.587  -0.068  0.00  0.00    -0.017 A 
ATOM     17  C   UNL     1       4.756  -2.564   0.708  0.00  0.00    +0.008 A 
ATOM     18  C   UNL     1       4.682  -3.873   0.342  0.00  0.00    +0.001 A 
ATOM     19  C   UNL     1       3.975  -4.261  -0.794  0.00  0.00    +0.001 A 
ATOM     20  C   UNL     1       3.337  -3.343  -1.570  0.00  0.00    +0.009 A 
ATOM     21  C   UNL     1       3.391  -1.982  -1.224  0.00  0.00    -0.008 A 
ATOM     22  C   UNL     1       2.741  -1.007  -1.998  0.00  0.00    +0.040 A 
BRANCH  13  23
ATOM     23  O   UNL     1       2.194   1.250  -2.386  0.00  0.00    -0.489 OA
BRANCH  23  25
ATOM     24  C   UNL     1       3.548   3.251  -2.327  0.00  0.00    +0.051 C 
ATOM     25  C   UNL     1       2.232   2.595  -1.904  0.00  0.00    +0.167 C 
ATOM     26  C   UNL     1       1.058   3.381  -2.492  0.00  0.00    +0.051 C 
ENDBRANCH  23  25
ENDBRANCH  13  23
ENDBRANCH   1  22
BRANCH  11  27
ATOM     27  C   UNL     1      -0.445  -0.766  -2.819  0.00  0.00    +0.145 C 
BRANCH  27  28
ATOM     28  C   UNL     1      -0.511  -0.142  -1.449  0.00  0.00    -0.030 A 
ATOM     29  C   UNL     1       0.025  -0.803  -0.361  0.00  0.00    +0.005 A 
ATOM     30  C   UNL     1      -0.036  -0.231   0.896  0.00  0.00    +0.000 A 
ATOM     31  C   UNL     1      -0.634   1.004   1.064  0.00  0.00    +0.000 A 
ATOM     32  C   UNL     1      -1.170   1.667  -0.025  0.00  0.00    +0.000 A 
ATOM     33  C   UNL     1      -1.105   1.096  -1.282  0.00  0.00    +0.005 A 
ENDBRANCH  27  28
ENDBRANCH  11  27
TORSDOF 5
