REMARK  Name = ZINC24750124
REMARK  7 active torsions:
REMARK  status: ('A' for Active; 'I' for Inactive)
REMARK    1  A    between atoms: C_1  and  C_2
REMARK    2  A    between atoms: C_2  and  O_3
REMARK    3  A    between atoms: O_3  and  C_4
REMARK    4  A    between atoms: C_9  and  S_10
REMARK    5  A    between atoms: S_10  and  N_13
REMARK    6  A    between atoms: N_17  and  C_20
REMARK    7  A    between atoms: C_20  and  C_21
REMARK                            x       y       z     vdW  Elec       q    Type
REMARK                         _______ _______ _______ _____ _____    ______ ____
ROOT
ATOM      1  N   UNL     1       4.815  -0.287   0.400  0.00  0.00    -0.178 NA
ATOM      2  C   UNL     1       4.664  -1.015  -0.842  0.00  0.00    +0.107 C 
ATOM      3  C   UNL     1       4.073  -0.076  -1.923  0.00  0.00    -0.001 C 
ATOM      4  C   UNL     1       2.669   0.239  -1.597  0.00  0.00    -0.077 C 
ATOM      5  N   UNL     1       2.490   0.954  -0.333  0.00  0.00    +0.386 N 
ATOM      6  C   UNL     1       2.366   0.022   0.767  0.00  0.00    -0.061 C 
ATOM      7  C   UNL     1       3.746  -0.202   1.416  0.00  0.00    +0.091 C 
ATOM      8  H   UNL     1       3.388   1.563  -0.150  0.00  0.00    -0.081 HD
ENDROOT
BRANCH   1   9
ATOM      9  S   UNL     1       6.251   0.483   0.695  0.00  0.00    +0.064 S 
ATOM     10  O   UNL     1       6.872   0.683  -0.567  0.00  0.00    -0.153 OA
ATOM     11  O   UNL     1       5.961   1.556   1.581  0.00  0.00    -0.153 OA
BRANCH   9  17
ATOM     12  C   UNL     1       6.917  -1.039   2.867  0.00  0.00    +0.147 A 
ATOM     13  C   UNL     1       7.723  -1.925   3.566  0.00  0.00    +0.049 A 
ATOM     14  C   UNL     1       8.878  -2.412   2.986  0.00  0.00    +0.019 A 
ATOM     15  C   UNL     1       9.231  -2.016   1.708  0.00  0.00    +0.020 A 
ATOM     16  C   UNL     1       8.426  -1.136   1.007  0.00  0.00    +0.047 A 
ATOM     17  C   UNL     1       7.273  -0.643   1.586  0.00  0.00    +0.148 A 
ATOM     18 BR   UNL     1      10.812  -2.685   0.915  0.00  0.00    -0.050 Br
BRANCH  12  19
ATOM     19  O   UNL     1       5.780  -0.558   3.436  0.00  0.00    -0.490 OA
BRANCH  19  21
ATOM     20  C   UNL     1       4.290  -0.181   5.301  0.00  0.00    +0.048 C 
ATOM     21  C   UNL     1       5.541  -0.906   4.802  0.00  0.00    +0.226 C 
ENDBRANCH  19  21
ENDBRANCH  12  19
ENDBRANCH   9  17
ENDBRANCH   1   9
BRANCH   5  22
ATOM     22  C   UNL     1       1.329   1.851  -0.396  0.00  0.00    +0.019 C 
BRANCH  22  23
ATOM     23  C   UNL     1       0.069   1.034  -0.528  0.00  0.00    +0.199 C 
ATOM     24  O   UNL     1       0.133  -0.176  -0.565  0.00  0.00    -0.278 OA
ATOM     25  N   UNL     1      -1.128   1.649  -0.609  0.00  0.00    -0.303 N 
ATOM     26  C   UNL     1      -1.349   3.102  -0.570  0.00  0.00    +0.108 C 
ATOM     27  C   UNL     1      -2.871   3.336  -0.671  0.00  0.00    +0.020 C 
ATOM     28  C   UNL     1      -3.461   1.987  -0.183  0.00  0.00    +0.020 C 
ATOM     29  C   UNL     1      -2.432   0.976  -0.746  0.00  0.00    +0.108 C 
ENDBRANCH  22  23
ENDBRANCH   5  22
TORSDOF 6
