REMARK  Name = ZINC08893345
REMARK  11 active torsions:
REMARK  status: ('A' for Active; 'I' for Inactive)
REMARK    1  A    between atoms: C_1  and  C_2
REMARK    2  A    between atoms: C_2  and  O_3
REMARK    3  A    between atoms: O_3  and  C_4
REMARK    4  A    between atoms: C_13  and  C_25
REMARK    5  A    between atoms: C_15  and  C_21
REMARK    6  A    between atoms: C_15  and  C_23
REMARK    7  A    between atoms: C_16  and  N_20
REMARK    8  A    between atoms: C_17  and  C_18
REMARK    9  A    between atoms: C_30  and  O_31
REMARK   10  A    between atoms: O_31  and  C_32
REMARK   11  A    between atoms: C_32  and  C_33
REMARK                            x       y       z     vdW  Elec       q    Type
REMARK                         _______ _______ _______ _____ _____    ______ ____
ROOT
ATOM      1  C   UNL     1      -0.335   1.227   1.976  0.00  0.00    +0.403 C 
ATOM      2  O   UNL     1      -0.099   0.035   1.962  0.00  0.00    -0.226 OA
ATOM      3  N   UNL     1      -0.175   1.959   0.856  0.00  0.00    -0.263 N 
ATOM      4  C   UNL     1      -0.451   3.406   0.839  0.00  0.00    +0.138 C 
ATOM      5  C   UNL     1      -1.460   3.652  -0.254  0.00  0.00    -0.003 C 
ATOM      6  C   UNL     1      -1.551   2.850  -1.296  0.00  0.00    -0.026 C 
ATOM      7  C   UNL     1      -0.662   1.667  -1.535  0.00  0.00    +0.048 C 
ATOM      8  C   UNL     1       0.282   1.348  -0.397  0.00  0.00    +0.120 C 
ATOM      9  C   UNL     1      -1.541   0.469  -1.898  0.00  0.00    +0.071 C 
ATOM     10  C   UNL     1      -2.271   0.769  -3.208  0.00  0.00    +0.188 C 
ATOM     11  C   UNL     1      -2.959   2.100  -3.164  0.00  0.00    +0.054 C 
ATOM     12  C   UNL     1      -2.632   3.086  -2.291  0.00  0.00    +0.074 C 
ENDROOT
BRANCH   9  13
ATOM     13  C   UNL     1      -0.681  -0.757  -2.066  0.00  0.00    +0.001 A 
ATOM     14  C   UNL     1       0.417  -0.721  -2.904  0.00  0.00    +0.007 A 
ATOM     15  C   UNL     1       1.208  -1.844  -3.059  0.00  0.00    +0.001 A 
ATOM     16  C   UNL     1       0.901  -3.007  -2.376  0.00  0.00    +0.004 A 
ATOM     17  C   UNL     1      -0.195  -3.048  -1.537  0.00  0.00    +0.046 A 
ATOM     18  C   UNL     1      -0.987  -1.920  -1.376  0.00  0.00    +0.125 A 
BRANCH  18  19
ATOM     19  O   UNL     1      -2.063  -1.957  -0.547  0.00  0.00    -0.487 OA
BRANCH  19  20
ATOM     20  C   UNL     1      -2.318  -3.189   0.131  0.00  0.00    +0.264 C 
BRANCH  20  21
ATOM     21  C   UNL     1      -3.541  -3.040   0.999  0.00  0.00    -0.010 A 
ATOM     22  C   UNL     1      -3.413  -2.619   2.309  0.00  0.00    +0.008 A 
ATOM     23  C   UNL     1      -4.535  -2.478   3.103  0.00  0.00    +0.020 A 
ATOM     24  C   UNL     1      -5.786  -2.768   2.590  0.00  0.00    +0.041 A 
ATOM     25  C   UNL     1      -5.914  -3.196   1.280  0.00  0.00    +0.020 A 
ATOM     26  C   UNL     1      -4.792  -3.331   0.485  0.00  0.00    +0.008 A 
ATOM     27 CL   UNL     1      -7.196  -2.597   3.589  0.00  0.00    -0.084 Cl
ENDBRANCH  20  21
ENDBRANCH  19  20
ENDBRANCH  18  19
ENDBRANCH   9  13
BRANCH  11  28
ATOM     28  N   UNL     1      -3.970   2.334  -4.053  0.00  0.00    -0.358 N 
ATOM     29  H   UNL     1      -4.495   3.300  -4.047  0.00  0.00    +0.142 HD
ATOM     30  H   UNL     1      -4.259   1.555  -4.774  0.00  0.00    +0.142 HD
ENDBRANCH  11  28
BRANCH  12  31
ATOM     31  C   UNL     1      -3.322   4.340  -2.326  0.00  0.00    +0.101 C 
ATOM     32  N   UNL     1      -3.869   5.335  -2.354  0.00  0.00    -0.191 NA
ENDBRANCH  12  31
BRANCH  10  33
ATOM     33  C   UNL     1      -1.297   0.768  -4.311  0.00  0.00    +0.091 C 
ATOM     34  N   UNL     1      -0.545   0.767  -5.163  0.00  0.00    -0.194 NA
ENDBRANCH  10  33
BRANCH  10  35
ATOM     35  C   UNL     1      -3.273  -0.281  -3.452  0.00  0.00    +0.091 C 
ATOM     36  N   UNL     1      -4.046  -1.092  -3.640  0.00  0.00    -0.194 NA
ENDBRANCH  10  35
BRANCH   1  37
ATOM     37  O   UNL     1      -0.755   1.817   3.111  0.00  0.00    -0.451 OA
BRANCH  37  39
ATOM     38  C   UNL     1      -1.387   1.808   5.463  0.00  0.00    +0.048 C 
ATOM     39  C   UNL     1      -0.905   0.968   4.279  0.00  0.00    +0.230 C 
ENDBRANCH  37  39
ENDBRANCH   1  37
TORSDOF 10
