REMARK  Name = ZINC27990233
REMARK  10 active torsions:
REMARK  status: ('A' for Active; 'I' for Inactive)
REMARK    1  A    between atoms: C_1  and  C_2
REMARK    2  A    between atoms: C_5  and  C_8
REMARK    3  A    between atoms: C_10  and  C_13
REMARK    4  A    between atoms: C_13  and  C_14
REMARK    5  A    between atoms: C_14  and  N_15
REMARK    6  A    between atoms: C_16  and  C_18
REMARK    7  A    between atoms: C_18  and  C_20
REMARK    8  A    between atoms: C_18  and  O_21
REMARK    9  A    between atoms: O_21  and  C_22
REMARK   10  A    between atoms: C_26  and  C_28
REMARK                            x       y       z     vdW  Elec       q    Type
REMARK                         _______ _______ _______ _____ _____    ______ ____
ROOT
ATOM      1  N   UNL     1       1.336   1.265   2.597  0.00  0.00    -0.312 N 
ATOM      2  C   UNL     1       0.067   0.885   2.346  0.00  0.00    +0.254 C 
ATOM      3  O   UNL     1      -0.432  -0.018   2.982  0.00  0.00    -0.272 OA
ATOM      4  H   UNL     1       1.789   2.084   2.019  0.00  0.00    +0.149 HD
ENDROOT
BRANCH   2   5
ATOM      5  C   UNL     1      -0.730   1.582   1.274  0.00  0.00    +0.255 C 
ATOM      6  C   UNL     1      -0.091   1.318  -0.091  0.00  0.00    +0.062 C 
BRANCH   5   7
ATOM      7  O   UNL     1      -2.070   1.085   1.277  0.00  0.00    -0.480 OA
BRANCH   7   8
ATOM      8  C   UNL     1      -3.033   1.903   0.779  0.00  0.00    +0.122 A 
ATOM      9  C   UNL     1      -4.367   1.531   0.852  0.00  0.00    +0.047 A 
ATOM     10  C   UNL     1      -5.345   2.365   0.346  0.00  0.00    +0.024 A 
ATOM     11  C   UNL     1      -4.995   3.571  -0.234  0.00  0.00    +0.044 A 
ATOM     12  C   UNL     1      -3.665   3.945  -0.308  0.00  0.00    -0.029 A 
ATOM     13  C   UNL     1      -2.684   3.115   0.201  0.00  0.00    +0.050 A 
ATOM     14  C   UNL     1      -3.286   5.259  -0.940  0.00  0.00    +0.045 C 
ATOM     15 CL   UNL     1      -6.226   4.618  -0.870  0.00  0.00    -0.083 Cl
ENDBRANCH   7   8
ENDBRANCH   5   7
ENDBRANCH   2   5
BRANCH   1  16
ATOM     16  C   UNL     1       2.111   0.587   3.639  0.00  0.00    +0.110 C 
BRANCH  16  17
ATOM     17  C   UNL     1       3.508   1.206   3.720  0.00  0.00    +0.074 C 
BRANCH  17  20
ATOM     18  C   UNL     1       4.516  -0.178   6.976  0.00  0.00    +0.109 A 
ATOM     19  N   UNL     1       3.836   0.431   6.014  0.00  0.00    -0.244 NA
ATOM     20  C   UNL     1       4.305   0.508   4.791  0.00  0.00    +0.051 A 
ATOM     21  C   UNL     1       5.510  -0.047   4.492  0.00  0.00    +0.070 A 
ATOM     22  S   UNL     1       5.976  -0.705   6.088  0.00  0.00    -0.075 S 
BRANCH  18  27
ATOM     23  C   UNL     1       3.143  -0.920  12.515  0.00  0.00    +0.044 C 
ATOM     24  C   UNL     1       3.503  -0.726  11.064  0.00  0.00    -0.050 A 
ATOM     25  C   UNL     1       4.700  -1.222  10.579  0.00  0.00    +0.004 A 
ATOM     26  C   UNL     1       5.035  -1.047   9.252  0.00  0.00    +0.011 A 
ATOM     27  C   UNL     1       4.164  -0.368   8.399  0.00  0.00    +0.007 A 
ATOM     28  C   UNL     1       2.961   0.135   8.896  0.00  0.00    +0.011 A 
ATOM     29  C   UNL     1       2.635  -0.052  10.224  0.00  0.00    +0.004 A 
ENDBRANCH  18  27
ENDBRANCH  17  20
ENDBRANCH  16  17
ENDBRANCH   1  16
TORSDOF 7
