REMARK  Name = ZINC02841552
REMARK  3 active torsions:
REMARK  status: ('A' for Active; 'I' for Inactive)
REMARK    1  A    between atoms: C_8  and  C_11
REMARK    2  A    between atoms: N_13  and  C_14
REMARK    3  A    between atoms: C_15  and  C_23
REMARK                            x       y       z     vdW  Elec       q    Type
REMARK                         _______ _______ _______ _____ _____    ______ ____
ROOT
ATOM      1  C   UNL     1      -1.249  -0.783   0.010  0.00  0.00    +0.249 C 
ATOM      2  O   UNL     1      -1.209  -1.999   0.003  0.00  0.00    -0.270 OA
ATOM      3  N   UNL     1      -2.438  -0.148   0.024  0.00  0.00    -0.275 N 
ATOM      4  H   UNL     1      -2.470   0.821   0.030  0.00  0.00    +0.156 HD
ENDROOT
BRANCH   1  12
ATOM      5  C   UNL     1       2.758  -2.551  -0.040  0.00  0.00    +0.001 A 
ATOM      6  C   UNL     1       3.881  -1.722  -0.046  0.00  0.00    +0.004 A 
ATOM      7  C   UNL     1       3.737  -0.367  -0.036  0.00  0.00    -0.039 A 
ATOM      8  C   UNL     1       2.446   0.151  -0.021  0.00  0.00    -0.011 A 
ATOM      9  C   UNL     1       2.379   1.542  -0.012  0.00  0.00    -0.039 A 
ATOM     10  C   UNL     1       1.154   2.139   0.003  0.00  0.00    +0.005 A 
ATOM     11  C   UNL     1      -0.017   1.388   0.010  0.00  0.00    +0.014 A 
ATOM     12  C   UNL     1       0.002  -0.004   0.002  0.00  0.00    +0.045 A 
ATOM     13  C   UNL     1       1.304  -0.666  -0.014  0.00  0.00    -0.005 A 
ATOM     14  C   UNL     1       1.485  -2.054  -0.025  0.00  0.00    +0.009 A 
ATOM     15  C   UNL     1       3.799   2.059  -0.022  0.00  0.00    +0.040 C 
ATOM     16  C   UNL     1       4.693   0.800  -0.038  0.00  0.00    +0.040 C 
ENDBRANCH   1  12
BRANCH   3  17
ATOM     17  C   UNL     1      -3.615  -0.881   0.032  0.00  0.00    +0.090 A 
ATOM     18  C   UNL     1      -4.921  -0.414   0.047  0.00  0.00    +0.084 A 
ATOM     19  C   UNL     1      -5.988  -1.400   0.051  0.00  0.00    -0.018 A 
ATOM     20  C   UNL     1      -5.580  -2.688   0.041  0.00  0.00    -0.004 A 
ATOM     21  S   UNL     1      -3.812  -2.603   0.017  0.00  0.00    -0.077 S 
ATOM     22  C   UNL     1      -6.446  -3.910   0.043  0.00  0.00    +0.043 C 
ATOM     23  C   UNL     1      -7.870  -3.492   0.436  0.00  0.00    +0.005 C 
ATOM     24  C   UNL     1      -8.271  -2.267  -0.390  0.00  0.00    +0.005 C 
ATOM     25  C   UNL     1      -7.470  -1.046   0.066  0.00  0.00    +0.037 C 
BRANCH  18  26
ATOM     26  C   UNL     1      -5.208   0.989   0.057  0.00  0.00    +0.102 C 
ATOM     27  N   UNL     1      -5.435   2.102   0.064  0.00  0.00    -0.191 NA
ENDBRANCH  18  26
ENDBRANCH   3  17
TORSDOF 3
