REMARK  Name = ZINC58914681
REMARK  8 active torsions:
REMARK  status: ('A' for Active; 'I' for Inactive)
REMARK    1  A    between atoms: C_1  and  O_2
REMARK    2  A    between atoms: O_2  and  C_3
REMARK    3  A    between atoms: C_6  and  C_9
REMARK    4  A    between atoms: C_9  and  C_11
REMARK    5  A    between atoms: C_9  and  N_24
REMARK    6  A    between atoms: C_11  and  N_12
REMARK    7  A    between atoms: N_12  and  S_13
REMARK    8  A    between atoms: S_13  and  C_16
REMARK                            x       y       z     vdW  Elec       q    Type
REMARK                         _______ _______ _______ _____ _____    ______ ____
ROOT
ATOM      1  C   UNL     1      -4.900  -2.151  -0.081  0.00  0.00    -0.022 C 
ENDROOT
BRANCH   1   2
ATOM      2  N   UNL     1      -4.887  -3.193  -1.116  0.00  0.00    +0.385 N 
ATOM      3  C   UNL     1      -4.524  -2.594  -2.407  0.00  0.00    -0.078 C 
ATOM      4  C   UNL     1      -4.429  -3.688  -3.472  0.00  0.00    -0.019 C 
ATOM      5  C   UNL     1      -5.785  -4.390  -3.597  0.00  0.00    -0.004 C 
ATOM      6  C   UNL     1      -6.188  -4.947  -2.228  0.00  0.00    -0.019 C 
ATOM      7  C   UNL     1      -6.217  -3.806  -1.208  0.00  0.00    -0.078 C 
ATOM      8  H   UNL     1      -4.208  -3.898  -0.873  0.00  0.00    -0.081 HD
ENDBRANCH   1   2
BRANCH   1  12
ATOM      9  C   UNL     1      -1.083  -0.235   0.062  0.00  0.00    +0.120 A 
ATOM     10  C   UNL     1      -2.242   0.515   0.193  0.00  0.00    +0.046 A 
ATOM     11  C   UNL     1      -3.475  -0.106   0.146  0.00  0.00    +0.005 A 
ATOM     12  C   UNL     1      -3.554  -1.475  -0.031  0.00  0.00    -0.059 A 
ATOM     13  C   UNL     1      -2.400  -2.225  -0.162  0.00  0.00    +0.005 A 
ATOM     14  C   UNL     1      -1.165  -1.608  -0.122  0.00  0.00    +0.046 A 
BRANCH   9  16
ATOM     15  C   UNL     1       0.140   1.790   0.299  0.00  0.00    +0.277 C 
ATOM     16  O   UNL     1       0.131   0.374   0.107  0.00  0.00    -0.495 OA
ENDBRANCH   9  16
ENDBRANCH   1  12
BRANCH   1  17
ATOM     17  C   UNL     1      -5.203  -2.785   1.278  0.00  0.00    +0.095 C 
BRANCH  17  18
ATOM     18  N   UNL     1      -5.317  -1.735   2.293  0.00  0.00    -0.191 NA
ATOM     19  H   UNL     1      -4.968  -0.848   2.114  0.00  0.00    +0.148 HD
BRANCH  18  20
ATOM     20  S   UNL     1      -6.042  -2.063   3.745  0.00  0.00    +0.059 S 
ATOM     21  O   UNL     1      -5.946  -0.878   4.524  0.00  0.00    -0.153 OA
ATOM     22  O   UNL     1      -7.288  -2.679   3.447  0.00  0.00    -0.153 OA
BRANCH  20  23
ATOM     23  C   UNL     1      -5.059  -3.280   4.556  0.00  0.00    +0.119 A 
ATOM     24  C   UNL     1      -5.584  -4.532   4.814  0.00  0.00    +0.032 A 
ATOM     25  C   UNL     1      -4.814  -5.488   5.449  0.00  0.00    +0.040 A 
ATOM     26  C   UNL     1      -3.515  -5.190   5.827  0.00  0.00    +0.125 A 
ATOM     27  C   UNL     1      -2.990  -3.936   5.569  0.00  0.00    +0.055 A 
ATOM     28  C   UNL     1      -3.761  -2.983   4.928  0.00  0.00    +0.047 A 
ATOM     29 BR   UNL     1      -3.042  -1.271   4.569  0.00  0.00    -0.048 Br
ATOM     30  F   UNL     1      -2.762  -6.124   6.449  0.00  0.00    -0.205 F 
ENDBRANCH  20  23
ENDBRANCH  18  20
ENDBRANCH  17  18
ENDBRANCH   1  17
TORSDOF 7
