REMARK  Name = ZINC64480239
REMARK  8 active torsions:
REMARK  status: ('A' for Active; 'I' for Inactive)
REMARK    1  A    between atoms: C_1  and  C_2
REMARK    2  A    between atoms: C_2  and  C_3
REMARK    3  A    between atoms: C_3  and  C_4
REMARK    4  A    between atoms: C_11  and  O_16
REMARK    5  A    between atoms: C_13  and  C_15
REMARK    6  A    between atoms: O_16  and  C_17
REMARK    7  A    between atoms: C_17  and  C_18
REMARK    8  A    between atoms: N_20  and  C_21
REMARK                            x       y       z     vdW  Elec       q    Type
REMARK                         _______ _______ _______ _____ _____    ______ ____
ROOT
ATOM      1  O   UNL     1       2.505  -0.944   0.379  0.00  0.00    -0.482 OA
ENDROOT
BRANCH   1   9
ATOM      2  C   UNL     1       0.146  -2.091  -0.719  0.00  0.00    -0.026 A 
ATOM      3  C   UNL     1      -0.928  -2.733  -1.247  0.00  0.00    +0.096 A 
ATOM      4  C   UNL     1      -0.874  -4.124  -1.471  0.00  0.00    +0.337 A 
ATOM      5  O   UNL     1      -1.844  -4.688  -1.944  0.00  0.00    -0.245 OA
ATOM      6  O   UNL     1       0.221  -4.843  -1.176  0.00  0.00    -0.422 OA
ATOM      7  C   UNL     1       1.322  -4.266  -0.649  0.00  0.00    +0.143 A 
ATOM      8  C   UNL     1       1.338  -2.881  -0.405  0.00  0.00    +0.062 A 
ATOM      9  C   UNL     1       2.484  -2.279   0.137  0.00  0.00    +0.132 A 
ATOM     10  C   UNL     1       3.591  -3.057   0.422  0.00  0.00    +0.050 A 
ATOM     11  C   UNL     1       3.570  -4.420   0.174  0.00  0.00    -0.043 A 
ATOM     12  C   UNL     1       2.445  -5.025  -0.349  0.00  0.00    +0.050 A 
ATOM     13  C   UNL     1       4.785  -5.253   0.490  0.00  0.00    +0.044 C 
BRANCH   2  14
ATOM     14  C   UNL     1       0.115  -0.605  -0.470  0.00  0.00    +0.036 C 
BRANCH  14  16
ATOM     15  C   UNL     1      -0.408   1.165   1.214  0.00  0.00    +0.004 C 
ATOM     16  C   UNL     1      -0.259  -0.341   0.990  0.00  0.00    +0.001 C 
ENDBRANCH  14  16
ENDBRANCH   2  14
ENDBRANCH   1   9
BRANCH   1  17
ATOM     17  C   UNL     1       3.657  -0.424   1.047  0.00  0.00    +0.324 C 
BRANCH  17  18
ATOM     18  C   UNL     1       3.567   1.079   1.107  0.00  0.00    +0.253 C 
ATOM     19  O   UNL     1       2.664   1.656   0.538  0.00  0.00    -0.272 OA
ATOM     20  N   UNL     1       4.490   1.782   1.793  0.00  0.00    -0.276 N 
ATOM     21  H   UNL     1       5.211   1.321   2.248  0.00  0.00    +0.152 HD
BRANCH  20  22
ATOM     22  C   UNL     1       4.402   3.244   1.851  0.00  0.00    +0.269 C 
ATOM     23  N   UNL     1       4.895   3.828   0.598  0.00  0.00    -0.348 N 
ATOM     24  C   UNL     1       5.914   4.583   0.893  0.00  0.00    +0.061 A 
ATOM     25  C   UNL     1       6.810   5.415   0.078  0.00  0.00    +0.027 A 
ATOM     26  C   UNL     1       7.805   6.103   0.675  0.00  0.00    +0.002 A 
ATOM     27  C   UNL     1       8.029   6.061   2.062  0.00  0.00    +0.002 A 
ATOM     28  C   UNL     1       7.267   5.329   2.900  0.00  0.00    +0.027 A 
ATOM     29  C   UNL     1       6.152   4.538   2.362  0.00  0.00    +0.061 A 
ATOM     30  N   UNL     1       5.271   3.758   2.918  0.00  0.00    -0.348 N 
ATOM     31  H   UNL     1       4.529   3.679  -0.288  0.00  0.00    +0.163 HD
ATOM     32  H   UNL     1       5.200   3.554   3.863  0.00  0.00    +0.163 HD
ENDBRANCH  20  22
ENDBRANCH  17  18
ENDBRANCH   1  17
TORSDOF 6
