REMARK  Name = ZINC41288299
REMARK  8 active torsions:
REMARK  status: ('A' for Active; 'I' for Inactive)
REMARK    1  A    between atoms: C_1  and  C_2
REMARK    2  A    between atoms: C_9  and  C_29
REMARK    3  A    between atoms: C_10  and  C_11
REMARK    4  A    between atoms: C_11  and  C_12
REMARK    5  A    between atoms: N_14  and  C_15
REMARK    6  A    between atoms: C_15  and  C_16
REMARK    7  A    between atoms: C_16  and  C_18
REMARK    8  A    between atoms: C_16  and  N_24
REMARK                            x       y       z     vdW  Elec       q    Type
REMARK                         _______ _______ _______ _____ _____    ______ ____
ROOT
ATOM      1  C   UNL     1       1.491  -4.336   3.324  0.00  0.00    +0.219 C 
ATOM      2  O   UNL     1       2.383  -3.515   3.305  0.00  0.00    -0.275 OA
ATOM      3  N   UNL     1       1.769  -5.626   3.599  0.00  0.00    -0.316 N 
ATOM      4  H   UNL     1       1.055  -6.283   3.615  0.00  0.00    +0.149 HD
ENDROOT
BRANCH   1   5
ATOM      5  C   UNL     1       0.072  -3.915   3.041  0.00  0.00    +0.151 C 
BRANCH   5  15
ATOM      6  C   UNL     1       0.070   1.892   0.868  0.00  0.00    +0.047 C 
ATOM      7  C   UNL     1       0.175   0.403   0.658  0.00  0.00    -0.009 A 
ATOM      8  C   UNL     1       0.371  -0.102  -0.589  0.00  0.00    +0.008 A 
ATOM      9  C   UNL     1       0.468  -1.492  -0.770  0.00  0.00    +0.018 A 
ATOM     10  C   UNL     1       0.366  -2.325   0.288  0.00  0.00    +0.093 A 
ATOM     11  N   UNL     1       0.170  -1.831   1.545  0.00  0.00    -0.304 N 
ATOM     12  C   UNL     1       0.078  -0.479   1.753  0.00  0.00    +0.119 A 
ATOM     13  N   UNL     1      -0.103  -0.275   3.050  0.00  0.00    -0.343 N 
ATOM     14  C   UNL     1      -0.124  -1.452   3.680  0.00  0.00    +0.035 A 
ATOM     15  C   UNL     1       0.034  -2.434   2.765  0.00  0.00    +0.053 A 
ATOM     16  C   UNL     1      -0.308  -1.653   5.162  0.00  0.00    +0.065 C 
ATOM     17  H   UNL     1      -0.204   0.592   3.474  0.00  0.00    +0.167 HD
ENDBRANCH   5  15
ENDBRANCH   1   5
BRANCH   3  18
ATOM     18  C   UNL     1       3.148  -6.036   3.875  0.00  0.00    +0.093 C 
BRANCH  18  19
ATOM     19  C   UNL     1       3.170  -7.510   4.286  0.00  0.00    -0.020 C 
BRANCH  19  20
ATOM     20  C   UNL     1       2.446  -7.677   5.597  0.00  0.00    -0.059 A 
ATOM     21  C   UNL     1       3.084  -7.367   6.783  0.00  0.00    +0.002 A 
ATOM     22  C   UNL     1       2.420  -7.520   7.986  0.00  0.00    +0.000 A 
ATOM     23  C   UNL     1       1.117  -7.983   8.002  0.00  0.00    +0.000 A 
ATOM     24  C   UNL     1       0.478  -8.292   6.816  0.00  0.00    +0.000 A 
ATOM     25  C   UNL     1       1.141  -8.134   5.613  0.00  0.00    +0.002 A 
ENDBRANCH  19  20
BRANCH  19  26
ATOM     26  N   UNL     1       4.561  -7.956   4.435  0.00  0.00    +0.385 N 
ATOM     27  C   UNL     1       4.601  -9.390   4.819  0.00  0.00    -0.078 C 
ATOM     28  C   UNL     1       6.022  -9.833   4.390  0.00  0.00    -0.020 C 
ATOM     29  C   UNL     1       6.243  -9.055   3.072  0.00  0.00    -0.020 C 
ATOM     30  C   UNL     1       5.267  -7.866   3.138  0.00  0.00    -0.078 C 
ATOM     31  H   UNL     1       5.035  -7.396   5.128  0.00  0.00    -0.081 HD
ENDBRANCH  19  26
ENDBRANCH  18  19
ENDBRANCH   3  18
TORSDOF 6
