REMARK  Name = ZINC35132928
REMARK  8 active torsions:
REMARK  status: ('A' for Active; 'I' for Inactive)
REMARK    1  A    between atoms: C_1  and  C_2
REMARK    2  A    between atoms: C_2  and  C_3
REMARK    3  A    between atoms: C_2  and  C_4
REMARK    4  A    between atoms: C_2  and  C_5
REMARK    5  A    between atoms: C_8  and  O_21
REMARK    6  A    between atoms: C_9  and  N_11
REMARK    7  A    between atoms: N_11  and  S_12
REMARK    8  A    between atoms: S_12  and  C_15
REMARK                            x       y       z     vdW  Elec       q    Type
REMARK                         _______ _______ _______ _____ _____    ______ ____
ROOT
ATOM      1  C   UNL     1       0.774  -0.983  -1.256  0.00  0.00    -0.040 A 
ATOM      2  C   UNL     1       0.225  -1.854  -2.178  0.00  0.00    +0.008 A 
ATOM      3  C   UNL     1       0.927  -2.191  -3.321  0.00  0.00    +0.047 A 
ATOM      4  C   UNL     1       2.185  -1.655  -3.543  0.00  0.00    +0.139 A 
ATOM      5  C   UNL     1       2.740  -0.778  -2.615  0.00  0.00    +0.090 A 
ATOM      6  C   UNL     1       2.027  -0.440  -1.473  0.00  0.00    +0.032 A 
ENDROOT
BRANCH   1   8
ATOM      7  C   UNL     1      -0.237   0.892   0.014  0.00  0.00    +0.015 C 
ATOM      8  C   UNL     1       0.003  -0.619  -0.013  0.00  0.00    -0.013 C 
ATOM      9  C   UNL     1       0.805  -1.030   1.223  0.00  0.00    +0.015 C 
ATOM     10  C   UNL     1      -1.341  -1.349  -0.015  0.00  0.00    +0.015 C 
ENDBRANCH   1   8
BRANCH   5  11
ATOM     11  N   UNL     1       4.011  -0.234  -2.834  0.00  0.00    -0.212 N 
ATOM     12  H   UNL     1       4.296  -0.017  -3.736  0.00  0.00    +0.174 HD
BRANCH  11  13
ATOM     13  S   UNL     1       5.028   0.037  -1.556  0.00  0.00    +0.079 S 
ATOM     14  O   UNL     1       6.268   0.459  -2.106  0.00  0.00    -0.149 OA
ATOM     15  O   UNL     1       4.303   0.823  -0.620  0.00  0.00    -0.149 OA
BRANCH  13  16
ATOM     16  C   UNL     1       5.322  -1.520  -0.785  0.00  0.00    +0.147 A 
ATOM     17  C   UNL     1       6.298  -2.425  -1.036  0.00  0.00    +0.038 A 
ATOM     18  C   UNL     1       6.336  -3.594  -0.297  0.00  0.00    +0.025 A 
ATOM     19  C   UNL     1       5.393  -3.799   0.656  0.00  0.00    +0.057 A 
ATOM     20  S   UNL     1       4.416  -2.310   0.535  0.00  0.00    -0.061 S 
ATOM     21 BR   UNL     1       5.176  -5.275   1.818  0.00  0.00    -0.043 Br
ENDBRANCH  13  16
ENDBRANCH  11  13
ENDBRANCH   5  11
BRANCH   4  22
ATOM     22  O   UNL     1       2.878  -1.986  -4.666  0.00  0.00    -0.505 OA
ATOM     23  H   UNL     1       2.712  -1.400  -5.418  0.00  0.00    +0.292 HD
ENDBRANCH   4  22
TORSDOF 5
