REMARK  Name = ZINC03355218
REMARK  5 active torsions:
REMARK  status: ('A' for Active; 'I' for Inactive)
REMARK    1  A    between atoms: C_1  and  C_2
REMARK    2  A    between atoms: C_6  and  C_13
REMARK    3  A    between atoms: C_13  and  S_14
REMARK    4  A    between atoms: S_14  and  C_15
REMARK    5  A    between atoms: N_28  and  C_29
REMARK                            x       y       z     vdW  Elec       q    Type
REMARK                         _______ _______ _______ _____ _____    ______ ____
ROOT
ATOM      1  C   UNL     1       2.660  -2.731  -1.452  0.00  0.00    +0.173 A 
ATOM      2  N   UNL     1       2.696  -3.189  -0.217  0.00  0.00    -0.216 NA
ATOM      3  C   UNL     1       2.763  -4.493   0.023  0.00  0.00    +0.117 A 
ATOM      4  C   UNL     1       2.801  -5.443  -1.011  0.00  0.00    +0.076 A 
ATOM      5  C   UNL     1       2.875  -6.843  -0.591  0.00  0.00    -0.023 A 
ATOM      6  C   UNL     1       2.900  -7.084   0.735  0.00  0.00    -0.004 A 
ATOM      7  S   UNL     1       2.827  -5.484   1.495  0.00  0.00    -0.073 S 
ATOM      8  C   UNL     1       2.973  -8.418   1.415  0.00  0.00    +0.043 C 
ATOM      9  C   UNL     1       2.644  -9.506   0.383  0.00  0.00    +0.005 C 
ATOM     10  C   UNL     1       3.458  -9.241  -0.888  0.00  0.00    +0.005 C 
ATOM     11  C   UNL     1       2.925  -7.993  -1.594  0.00  0.00    +0.037 C 
ATOM     12  C   UNL     1       2.762  -4.917  -2.342  0.00  0.00    +0.263 A 
ATOM     13  O   UNL     1       2.790  -5.666  -3.303  0.00  0.00    -0.267 OA
ATOM     14  N   UNL     1       2.688  -3.585  -2.517  0.00  0.00    -0.290 N 
ATOM     15  C   UNL     1       2.641  -3.040  -3.876  0.00  0.00    +0.154 C 
ENDROOT
BRANCH   1  16
ATOM     16  S   UNL     1       2.570  -0.994  -1.733  0.00  0.00    -0.083 S 
BRANCH  16  17
ATOM     17  C   UNL     1       2.557  -0.400  -0.024  0.00  0.00    +0.113 C 
BRANCH  17  23
ATOM     18  C   UNL     1      -2.555   3.853   0.047  0.00  0.00    +0.044 C 
ATOM     19  C   UNL     1      -1.231   3.133   0.031  0.00  0.00    -0.047 A 
ATOM     20  C   UNL     1      -1.204   1.746   0.017  0.00  0.00    +0.004 A 
ATOM     21  C   UNL     1      -0.013   1.076   0.008  0.00  0.00    +0.012 A 
ATOM     22  C   UNL     1       1.187   1.794   0.000  0.00  0.00    +0.022 A 
ATOM     23  C   UNL     1       2.481   1.105  -0.016  0.00  0.00    -0.020 A 
ATOM     24  C   UNL     1       3.609   1.860  -0.024  0.00  0.00    +0.097 A 
ATOM     25  C   UNL     1       3.510   3.269  -0.016  0.00  0.00    +0.338 A 
ATOM     26  O   UNL     1       4.530   3.935  -0.023  0.00  0.00    -0.245 OA
ATOM     27  O   UNL     1       2.322   3.892  -0.001  0.00  0.00    -0.422 OA
ATOM     28  C   UNL     1       1.163   3.200   0.008  0.00  0.00    +0.140 A 
ATOM     29  C   UNL     1      -0.059   3.860   0.023  0.00  0.00    +0.050 A 
ENDBRANCH  17  23
ENDBRANCH  16  17
ENDBRANCH   1  16
TORSDOF 3
