REMARK  Name = ZINC03283424
REMARK  11 active torsions:
REMARK  status: ('A' for Active; 'I' for Inactive)
REMARK    1  A    between atoms: C_1  and  O_2
REMARK    2  A    between atoms: O_2  and  C_3
REMARK    3  A    between atoms: C_8  and  C_9
REMARK    4  A    between atoms: C_12  and  S_15
REMARK    5  A    between atoms: N_13  and  N_14
REMARK    6  A    between atoms: S_15  and  C_16
REMARK    7  A    between atoms: C_16  and  C_17
REMARK    8  A    between atoms: N_19  and  C_20
REMARK    9  A    between atoms: C_21  and  C_30
REMARK   10  A    between atoms: C_30  and  O_32
REMARK   11  A    between atoms: O_32  and  C_33
REMARK                            x       y       z     vdW  Elec       q    Type
REMARK                         _______ _______ _______ _____ _____    ______ ____
ROOT
ATOM      1  C   UNL     1       1.606  -6.959  -0.048  0.00  0.00    +0.173 C 
ENDROOT
BRANCH   1   2
ATOM      2  C   UNL     1       2.232  -8.330  -0.061  0.00  0.00    +0.228 C 
ATOM      3  O   UNL     1       3.439  -8.445  -0.073  0.00  0.00    -0.275 OA
ATOM      4  N   UNL     1       1.450  -9.427  -0.059  0.00  0.00    -0.279 N 
ATOM      5  H   UNL     1       0.484  -9.335  -0.050  0.00  0.00    +0.155 HD
BRANCH   4   6
ATOM      6  C   UNL     1       2.025 -10.688  -0.071  0.00  0.00    +0.086 A 
ATOM      7  C   UNL     1       1.395 -11.924  -0.065  0.00  0.00    +0.091 A 
ATOM      8  C   UNL     1       2.236 -13.113  -0.089  0.00  0.00    -0.021 A 
ATOM      9  C   UNL     1       3.564 -12.871  -0.095  0.00  0.00    -0.004 A 
ATOM     10  S   UNL     1       3.706 -11.105  -0.088  0.00  0.00    -0.077 S 
ATOM     11  C   UNL     1       4.677 -13.872  -0.093  0.00  0.00    +0.043 C 
ATOM     12  C   UNL     1       4.411 -14.928  -1.174  0.00  0.00    +0.005 C 
ATOM     13  C   UNL     1       3.592 -16.056  -0.555  0.00  0.00    +0.001 C 
ATOM     14  C   UNL     1       2.655 -15.499   0.515  0.00  0.00    +0.005 C 
ATOM     15  C   UNL     1       1.660 -14.524  -0.104  0.00  0.00    +0.037 C 
BRANCH   7  16
ATOM     16  C   UNL     1      -0.065 -12.029  -0.041  0.00  0.00    +0.342 C 
ATOM     17  O   UNL     1      -0.689 -12.069  -1.085  0.00  0.00    -0.245 OA
BRANCH  16  18
ATOM     18  O   UNL     1      -0.719 -12.082   1.138  0.00  0.00    -0.464 OA
ATOM     19  C   UNL     1      -2.166 -12.186   1.085  0.00  0.00    +0.280 C 
ENDBRANCH  16  18
ENDBRANCH   7  16
ENDBRANCH   4   6
ENDBRANCH   1   2
BRANCH   1  20
ATOM     20  S   UNL     1       2.908  -5.701  -0.054  0.00  0.00    -0.075 S 
BRANCH  20  24
ATOM     21  C   UNL     1       1.258  -2.159  -0.021  0.00  0.00    +0.185 A 
ATOM     22  N   UNL     1       0.219  -2.962  -0.009  0.00  0.00    -0.127 NA
ATOM     23  N   UNL     1       0.610  -4.186  -0.025  0.00  0.00    -0.121 NA
ATOM     24  C   UNL     1       1.923  -4.241  -0.038  0.00  0.00    +0.209 A 
ATOM     25  N   UNL     1       2.382  -2.954  -0.036  0.00  0.00    -0.224 N 
BRANCH  21  31
ATOM     26  C   UNL     1       0.002  -0.004   0.002  0.00  0.00    +0.131 A 
ATOM     27  C   UNL     1      -0.017   1.381   0.010  0.00  0.00    +0.046 A 
ATOM     28  C   UNL     1       1.170   2.090   0.002  0.00  0.00    +0.004 A 
ATOM     29  C   UNL     1       2.383   1.424  -0.013  0.00  0.00    +0.001 A 
ATOM     30  C   UNL     1       2.418   0.045  -0.021  0.00  0.00    +0.015 A 
ATOM     31  C   UNL     1       1.227  -0.682  -0.013  0.00  0.00    +0.062 A 
BRANCH  26  33
ATOM     32  C   UNL     1      -2.374   0.057   0.026  0.00  0.00    +0.277 C 
ATOM     33  O   UNL     1      -1.163  -0.702   0.010  0.00  0.00    -0.494 OA
ENDBRANCH  26  33
ENDBRANCH  21  31
BRANCH  25  34
ATOM     34  N   UNL     1       3.684  -2.541  -0.046  0.00  0.00    -0.295 N 
ATOM     35  H   UNL     1       4.038  -2.437   0.893  0.00  0.00    +0.163 HD
ATOM     36  H   UNL     1       4.259  -3.174  -0.581  0.00  0.00    +0.163 HD
ENDBRANCH  25  34
ENDBRANCH  20  24
ENDBRANCH   1  20
TORSDOF 9
