REMARK  Name = ZINC22609246
REMARK  8 active torsions:
REMARK  status: ('A' for Active; 'I' for Inactive)
REMARK    1  A    between atoms: C_1  and  C_2
REMARK    2  A    between atoms: C_9  and  C_11
REMARK    3  A    between atoms: C_14  and  N_17
REMARK    4  A    between atoms: C_21  and  N_25
REMARK    5  A    between atoms: C_30  and  O_37
REMARK    6  A    between atoms: C_31  and  O_35
REMARK    7  A    between atoms: O_35  and  C_36
REMARK    8  A    between atoms: O_37  and  C_38
REMARK                            x       y       z     vdW  Elec       q    Type
REMARK                         _______ _______ _______ _____ _____    ______ ____
ROOT
ATOM      1  N   UNL     1       0.150 -10.278   2.434  0.00  0.00    -0.209 N 
ATOM      2  C   UNL     1       0.250 -10.752   3.682  0.00  0.00    +0.228 C 
ATOM      3  O   UNL     1       0.333 -10.076   4.685  0.00  0.00    -0.275 OA
ATOM      4  C   UNL     1       0.243 -12.264   3.642  0.00  0.00    +0.125 C 
ATOM      5  C   UNL     1       0.120 -12.586   2.138  0.00  0.00    +0.153 C 
ATOM      6  C   UNL     1       0.065 -11.221   1.487  0.00  0.00    +0.244 C 
ATOM      7  O   UNL     1      -0.037 -11.014   0.297  0.00  0.00    -0.273 OA
ENDROOT
BRANCH   5   8
ATOM      8  N   UNL     1      -1.114 -13.335   1.869  0.00  0.00    -0.287 NA
ATOM      9  C   UNL     1      -1.138 -13.832   0.483  0.00  0.00    +0.090 C 
ATOM     10  C   UNL     1      -2.234 -14.890   0.366  0.00  0.00    +0.051 C 
ATOM     11  C   UNL     1      -3.526 -14.359   0.934  0.00  0.00    -0.038 A 
ATOM     12  C   UNL     1      -4.707 -15.009   0.606  0.00  0.00    +0.053 A 
ATOM     13  C   UNL     1      -5.915 -14.559   1.107  0.00  0.00    +0.162 A 
ATOM     14  C   UNL     1      -5.943 -13.448   1.945  0.00  0.00    +0.162 A 
ATOM     15  C   UNL     1      -4.763 -12.803   2.267  0.00  0.00    +0.054 A 
ATOM     16  C   UNL     1      -3.553 -13.256   1.760  0.00  0.00    -0.026 A 
ATOM     17  C   UNL     1      -2.298 -12.512   2.133  0.00  0.00    +0.120 C 
BRANCH  14  18
ATOM     18  O   UNL     1      -7.125 -12.998   2.444  0.00  0.00    -0.491 OA
ATOM     19  C   UNL     1      -7.076 -11.853   3.297  0.00  0.00    +0.277 C 
ENDBRANCH  14  18
BRANCH  13  20
ATOM     20  O   UNL     1      -7.070 -15.198   0.781  0.00  0.00    -0.491 OA
ATOM     21  C   UNL     1      -6.964 -16.331  -0.084  0.00  0.00    +0.277 C 
ENDBRANCH  13  20
ENDBRANCH   5   8
BRANCH   1  25
ATOM     22  C   UNL     1       0.091  -6.198   1.567  0.00  0.00    +0.007 A 
ATOM     23  C   UNL     1       1.251  -6.790   2.071  0.00  0.00    +0.012 A 
ATOM     24  C   UNL     1       1.267  -8.137   2.357  0.00  0.00    +0.024 A 
ATOM     25  C   UNL     1       0.130  -8.908   2.143  0.00  0.00    +0.044 A 
ATOM     26  C   UNL     1      -1.026  -8.323   1.641  0.00  0.00    +0.024 A 
ATOM     27  C   UNL     1      -1.051  -6.975   1.358  0.00  0.00    +0.012 A 
BRANCH  22  36
ATOM     28  C   UNL     1       0.053   1.492  -0.045  0.00  0.00    +0.044 C 
ATOM     29  C   UNL     1      -0.232   0.027   0.166  0.00  0.00    -0.049 A 
ATOM     30  C   UNL     1      -1.484  -0.493  -0.131  0.00  0.00    +0.005 A 
ATOM     31  C   UNL     1      -1.772  -1.810   0.050  0.00  0.00    +0.029 A 
ATOM     32  C   UNL     1      -0.795  -2.703   0.552  0.00  0.00    +0.079 A 
ATOM     33  C   UNL     1       0.470  -2.143   0.846  0.00  0.00    +0.040 A 
ATOM     34  C   UNL     1       0.752  -0.812   0.654  0.00  0.00    +0.020 A 
ATOM     35  S   UNL     1       1.381  -3.550   1.433  0.00  0.00    -0.067 S 
ATOM     36  C   UNL     1       0.070  -4.753   1.259  0.00  0.00    +0.109 A 
ATOM     37  N   UNL     1      -0.918  -4.024   0.787  0.00  0.00    -0.239 NA
ENDBRANCH  22  36
ENDBRANCH   1  25
TORSDOF 5
