REMARK  Name = ZINC38684140
REMARK  15 active torsions:
REMARK  status: ('A' for Active; 'I' for Inactive)
REMARK    1  A    between atoms: C_1  and  C_2
REMARK    2  A    between atoms: C_2  and  C_3
REMARK    3  A    between atoms: C_2  and  C_4
REMARK    4  A    between atoms: C_4  and  O_5
REMARK    5  A    between atoms: O_5  and  C_6
REMARK    6  A    between atoms: C_9  and  C_14
REMARK    7  A    between atoms: C_11  and  O_12
REMARK    8  A    between atoms: O_12  and  C_13
REMARK    9  A    between atoms: C_19  and  O_28
REMARK   10  A    between atoms: C_23  and  N_27
REMARK   11  A    between atoms: C_24  and  C_25
REMARK   12  A    between atoms: O_28  and  C_29
REMARK   13  A    between atoms: C_29  and  C_31
REMARK   14  A    between atoms: C_31  and  O_32
REMARK   15  A    between atoms: O_32  and  C_33
REMARK                            x       y       z     vdW  Elec       q    Type
REMARK                         _______ _______ _______ _____ _____    ______ ____
ROOT
ATOM      1  C   UNL     1      -6.457  -4.563  -0.104  0.00  0.00    +0.098 C 
ATOM      2  C   UNL     1      -7.258  -4.075  -1.282  0.00  0.00    +0.008 A 
ATOM      3  C   UNL     1      -6.894  -4.463  -2.560  0.00  0.00    +0.012 A 
ATOM      4  C   UNL     1      -7.616  -4.026  -3.652  0.00  0.00    +0.047 A 
ATOM      5  C   UNL     1      -8.712  -3.194  -3.471  0.00  0.00    +0.135 A 
ATOM      6  C   UNL     1      -9.079  -2.803  -2.193  0.00  0.00    +0.093 A 
ATOM      7  C   UNL     1      -8.351  -3.244  -1.096  0.00  0.00    +0.138 A 
ATOM      8  O   UNL     1      -8.723  -2.853   0.148  0.00  0.00    -0.441 OA
ATOM      9  C   UNL     1      -8.305  -3.545   1.221  0.00  0.00    +0.199 C 
ATOM     10  C   UNL     1      -7.237  -4.371   1.166  0.00  0.00    +0.098 C 
ENDROOT
BRANCH   1  14
ATOM     11  C   UNL     1      -2.804  -2.353   0.135  0.00  0.00    +0.162 A 
ATOM     12  C   UNL     1      -4.021  -1.696   0.223  0.00  0.00    +0.050 A 
ATOM     13  C   UNL     1      -5.200  -2.414   0.145  0.00  0.00    +0.008 A 
ATOM     14  C   UNL     1      -5.168  -3.786  -0.020  0.00  0.00    -0.031 A 
ATOM     15  C   UNL     1      -3.958  -4.447  -0.109  0.00  0.00    +0.054 A 
ATOM     16  C   UNL     1      -2.772  -3.733  -0.037  0.00  0.00    +0.162 A 
BRANCH  16  17
ATOM     17  O   UNL     1      -1.580  -4.381  -0.130  0.00  0.00    -0.491 OA
ATOM     18  C   UNL     1      -1.624  -5.799  -0.306  0.00  0.00    +0.277 C 
ENDBRANCH  16  17
BRANCH  11  19
ATOM     19  O   UNL     1      -1.642  -1.649   0.211  0.00  0.00    -0.488 OA
BRANCH  19  20
ATOM     20  C   UNL     1      -1.752  -0.235   0.388  0.00  0.00    +0.232 C 
BRANCH  20  22
ATOM     21  C   UNL     1      -0.468   1.905   0.515  0.00  0.00    +0.010 C 
ATOM     22  C   UNL     1      -0.352   0.381   0.451  0.00  0.00    +0.020 C 
ATOM     23  C   UNL     1       0.374  -0.129   1.698  0.00  0.00    +0.010 C 
ENDBRANCH  20  22
ENDBRANCH  19  20
ENDBRANCH  11  19
ENDBRANCH   1  14
BRANCH   9  24
ATOM     24  N   UNL     1      -8.982  -3.408   2.407  0.00  0.00    -0.328 N 
ATOM     25  H   UNL     1      -9.750  -2.818   2.462  0.00  0.00    +0.145 HD
ATOM     26  H   UNL     1      -8.693  -3.901   3.191  0.00  0.00    +0.145 HD
ENDBRANCH   9  24
BRANCH  10  27
ATOM     27  C   UNL     1      -6.843  -5.080   2.346  0.00  0.00    +0.101 C 
ATOM     28  N   UNL     1      -6.530  -5.642   3.282  0.00  0.00    -0.191 NA
ENDBRANCH  10  27
BRANCH   5  29
ATOM     29  O   UNL     1      -9.424  -2.762  -4.545  0.00  0.00    -0.423 OA
BRANCH  29  30
ATOM     30  C   UNL     1      -9.351  -1.461  -4.869  0.00  0.00    +0.350 C 
ATOM     31  O   UNL     1      -8.587  -0.734  -4.278  0.00  0.00    -0.247 OA
BRANCH  30  32
ATOM     32  C   UNL     1     -10.220  -0.908  -5.969  0.00  0.00    +0.349 C 
BRANCH  32  33
ATOM     33  O   UNL     1      -9.960   0.489  -6.124  0.00  0.00    -0.481 OA
BRANCH  33  34
ATOM     34  C   UNL     1     -10.666   1.145  -7.082  0.00  0.00    +0.121 A 
ATOM     35  C   UNL     1     -11.594   0.460  -7.852  0.00  0.00    +0.045 A 
ATOM     36  C   UNL     1     -12.311   1.129  -8.825  0.00  0.00    +0.004 A 
ATOM     37  C   UNL     1     -12.105   2.481  -9.031  0.00  0.00    +0.000 A 
ATOM     38  C   UNL     1     -11.180   3.166  -8.264  0.00  0.00    +0.004 A 
ATOM     39  C   UNL     1     -10.465   2.502  -7.286  0.00  0.00    +0.045 A 
ENDBRANCH  33  34
ENDBRANCH  32  33
ENDBRANCH  30  32
ENDBRANCH  29  30
ENDBRANCH   5  29
TORSDOF 12
