REMARK  Name = ZINC12140960
REMARK  11 active torsions:
REMARK  status: ('A' for Active; 'I' for Inactive)
REMARK    1  A    between atoms: C_1  and  C_2
REMARK    2  A    between atoms: C_2  and  C_3
REMARK    3  A    between atoms: N_12  and  C_13
REMARK    4  A    between atoms: C_13  and  C_14
REMARK    5  A    between atoms: C_14  and  C_15
REMARK    6  A    between atoms: C_15  and  N_69
REMARK    7  A    between atoms: C_16  and  N_69
REMARK    8  A    between atoms: C_17  and  N_69
REMARK    9  A    between atoms: C_18  and  C_20
REMARK   10  A    between atoms: C_23  and  S_26
REMARK   11  A    between atoms: S_26  and  N_29
REMARK                            x       y       z     vdW  Elec       q    Type
REMARK                         _______ _______ _______ _____ _____    ______ ____
ROOT
ATOM      1  C   UNL     1      -4.780  -3.835   0.874  0.00  0.00    -0.046 A 
ATOM      2  C   UNL     1      -3.875  -4.561   0.114  0.00  0.00    +0.006 A 
ATOM      3  C   UNL     1      -2.728  -3.989  -0.372  0.00  0.00    +0.029 A 
ATOM      4  C   UNL     1      -2.430  -2.631  -0.111  0.00  0.00    +0.080 A 
ATOM      5  C   UNL     1      -3.375  -1.924   0.667  0.00  0.00    +0.041 A 
ATOM      6  C   UNL     1      -4.521  -2.505   1.149  0.00  0.00    +0.021 A 
ATOM      7  S   UNL     1      -2.646  -0.307   0.768  0.00  0.00    -0.052 S 
ATOM      8  C   UNL     1      -1.188  -0.656  -0.204  0.00  0.00    +0.168 A 
ATOM      9  N   UNL     1      -1.353  -1.922  -0.512  0.00  0.00    -0.224 NA
ATOM     10  N   UNL     1      -0.146   0.190  -0.541  0.00  0.00    -0.246 N 
ATOM     11  C   UNL     1      -0.157   1.472  -0.124  0.00  0.00    +0.252 C 
ATOM     12  O   UNL     1      -1.109   1.901   0.497  0.00  0.00    -0.270 OA
ENDROOT
BRANCH  11  13
ATOM     13  C   UNL     1       0.987   2.357  -0.427  0.00  0.00    +0.037 A 
ATOM     14  C   UNL     1       2.265   1.821  -0.591  0.00  0.00    +0.015 A 
ATOM     15  C   UNL     1       3.328   2.652  -0.879  0.00  0.00    +0.029 A 
ATOM     16  C   UNL     1       3.130   4.017  -0.995  0.00  0.00    +0.106 A 
ATOM     17  C   UNL     1       1.867   4.556  -0.829  0.00  0.00    +0.029 A 
ATOM     18  C   UNL     1       0.795   3.735  -0.546  0.00  0.00    +0.015 A 
BRANCH  16  19
ATOM     19  S   UNL     1       4.494   5.073  -1.357  0.00  0.00    +0.061 S 
ATOM     20  O   UNL     1       5.470   4.268  -2.005  0.00  0.00    -0.153 OA
ATOM     21  O   UNL     1       3.954   6.244  -1.953  0.00  0.00    -0.153 OA
BRANCH  19  22
ATOM     22  N   UNL     1       5.149   5.538   0.091  0.00  0.00    -0.177 NA
ATOM     23  C   UNL     1       4.681   6.754   0.769  0.00  0.00    +0.109 C 
ATOM     24  C   UNL     1       4.276   6.388   2.205  0.00  0.00    +0.017 C 
ATOM     25  C   UNL     1       5.450   5.695   2.899  0.00  0.00    +0.003 C 
ATOM     26  C   UNL     1       5.797   4.405   2.153  0.00  0.00    +0.017 C 
ATOM     27  C   UNL     1       6.215   4.745   0.719  0.00  0.00    +0.109 C 
ENDBRANCH  19  22
ENDBRANCH  16  19
ENDBRANCH  11  13
BRANCH   1  29
ATOM     28  C   UNL     1      -7.158  -4.327   0.372  0.00  0.00    +0.009 C 
ATOM     29  C   UNL     1      -6.033  -4.490   1.396  0.00  0.00    +0.032 C 
ENDBRANCH   1  29
BRANCH  10  30
ATOM     30  C   UNL     1       0.969  -0.307  -1.351  0.00  0.00    +0.114 C 
BRANCH  30  31
ATOM     31  C   UNL     1       1.844  -1.231  -0.502  0.00  0.00    +0.001 C 
BRANCH  31  32
ATOM     32  C   UNL     1       3.008  -1.751  -1.348  0.00  0.00    -0.078 C 
BRANCH  32  35
ATOM     33  C   UNL     1       3.118  -3.857  -0.158  0.00  0.00    -0.097 C 
ATOM     34  C   UNL     1       5.098  -2.967  -1.231  0.00  0.00    -0.097 C 
ATOM     35  N   UNL     1       3.855  -2.624  -0.509  0.00  0.00    +0.376 N 
ATOM     36  H   UNL     1       4.098  -2.124   0.354  0.00  0.00    -0.083 HD
ENDBRANCH  32  35
ENDBRANCH  31  32
ENDBRANCH  30  31
ENDBRANCH  10  30
TORSDOF 8
