REMARK  Name = ZINC43528232
REMARK  5 active torsions:
REMARK  status: ('A' for Active; 'I' for Inactive)
REMARK    1  A    between atoms: C_3  and  C_6
REMARK    2  A    between atoms: C_6  and  C_8
REMARK    3  A    between atoms: C_6  and  N_21
REMARK    4  A    between atoms: C_8  and  N_9
REMARK    5  A    between atoms: N_12  and  C_13
REMARK                            x       y       z     vdW  Elec       q    Type
REMARK                         _______ _______ _______ _____ _____    ______ ____
ROOT
ATOM      1  N   UNL     1       3.489   1.631  -2.271  0.00  0.00    -0.300 N 
ATOM      2  C   UNL     1       3.667   1.708  -3.605  0.00  0.00    +0.304 C 
ATOM      3  O   UNL     1       4.248   0.817  -4.193  0.00  0.00    -0.253 OA
ATOM      4  N   UNL     1       3.202   2.774  -4.286  0.00  0.00    -0.267 N 
ATOM      5  H   UNL     1       3.025   2.341  -1.802  0.00  0.00    +0.150 HD
ATOM      6  H   UNL     1       2.676   3.450  -3.830  0.00  0.00    +0.156 HD
ENDROOT
BRANCH   4   7
ATOM      7  C   UNL     1       3.476   2.905  -5.653  0.00  0.00    +0.072 A 
ATOM      8  C   UNL     1       3.577   1.777  -6.454  0.00  0.00    +0.046 A 
ATOM      9  C   UNL     1       3.848   1.910  -7.803  0.00  0.00    +0.043 A 
ATOM     10  C   UNL     1       4.019   3.167  -8.356  0.00  0.00    +0.023 A 
ATOM     11  C   UNL     1       3.919   4.294  -7.561  0.00  0.00    +0.041 A 
ATOM     12  C   UNL     1       3.643   4.168  -6.212  0.00  0.00    +0.145 A 
ATOM     13  F   UNL     1       3.539   5.270  -5.437  0.00  0.00    -0.204 F 
ATOM     14 CL   UNL     1       3.975   0.498  -8.806  0.00  0.00    -0.083 Cl
ENDBRANCH   4   7
BRANCH   1  15
ATOM     15  C   UNL     1       3.995   0.472  -1.531  0.00  0.00    +0.098 C 
BRANCH  15  16
ATOM     16  C   UNL     1       3.552   0.568  -0.069  0.00  0.00    +0.016 C 
BRANCH  16  17
ATOM     17  N   UNL     1       4.162  -0.525   0.700  0.00  0.00    +0.387 N 
ATOM     18  C   UNL     1       5.633  -0.333   0.784  0.00  0.00    -0.078 C 
ATOM     19  C   UNL     1       6.029  -1.169   2.026  0.00  0.00    -0.020 C 
ATOM     20  C   UNL     1       4.846  -0.934   2.993  0.00  0.00    -0.020 C 
ATOM     21  C   UNL     1       3.672  -0.501   2.095  0.00  0.00    -0.078 C 
ATOM     22  H   UNL     1       3.950  -1.413   0.271  0.00  0.00    -0.081 HD
ENDBRANCH  16  17
BRANCH  16  25
ATOM     23  C   UNL     1      -0.107   0.936   0.173  0.00  0.00    +0.041 A 
ATOM     24  C   UNL     1       1.194   1.488   0.143  0.00  0.00    +0.043 A 
ATOM     25  C   UNL     1       2.051   0.460   0.009  0.00  0.00    +0.093 A 
ATOM     26  O   UNL     1       1.341  -0.679  -0.044  0.00  0.00    -0.469 OA
ATOM     27  C   UNL     1       0.032  -0.397   0.054  0.00  0.00    +0.195 A 
ENDBRANCH  16  25
ENDBRANCH  15  16
ENDBRANCH   1  15
TORSDOF 5
