REMARK  Name = ZINC06949209
REMARK  6 active torsions:
REMARK  status: ('A' for Active; 'I' for Inactive)
REMARK    1  A    between atoms: C_1  and  C_2
REMARK    2  A    between atoms: C_2  and  CA_3
REMARK    3  A    between atoms: CA_3  and  C_5
REMARK    4  A    between atoms: CA_3  and  N_7
REMARK    5  A    between atoms: C_5  and  O_6
REMARK    6  A    between atoms: C_15  and  C_17
REMARK                            x       y       z     vdW  Elec       q    Type
REMARK                         _______ _______ _______ _____ _____    ______ ____
ROOT
ATOM      1  N   UNL     1      -0.011   0.966   0.007  0.00  0.00    -0.323 N 
ATOM      2  C   UNL     1       1.177   1.674  -0.000  0.00  0.00    +0.131 A 
ATOM      3  C   UNL     1       2.423   0.991   0.097  0.00  0.00    +0.051 A 
ATOM      4  C   UNL     1       2.671  -0.447   0.213  0.00  0.00    -0.025 A 
ATOM      5  C   UNL     1       3.958  -0.842   0.290  0.00  0.00    -0.004 A 
ATOM      6  S   UNL     1       4.907   0.652   0.202  0.00  0.00    -0.073 S 
ATOM      7  C   UNL     1       3.570   1.811   0.074  0.00  0.00    +0.114 A 
ATOM      8  N   UNL     1       3.480   3.122  -0.020  0.00  0.00    -0.220 NA
ATOM      9  C   UNL     1       2.291   3.706  -0.103  0.00  0.00    +0.164 A 
ATOM     10  N   UNL     1       1.169   2.992  -0.092  0.00  0.00    -0.212 NA
ATOM     11  C   UNL     1       4.471  -2.245   0.413  0.00  0.00    +0.043 C 
ATOM     12  C   UNL     1       3.301  -3.155   0.815  0.00  0.00    +0.005 C 
ATOM     13  C   UNL     1       2.106  -2.847  -0.092  0.00  0.00    +0.005 C 
ATOM     14  C   UNL     1       1.538  -1.469   0.248  0.00  0.00    +0.037 C 
ATOM     15  H   UNL     1      -0.004   0.008   0.159  0.00  0.00    +0.148 HD
ENDROOT
BRANCH   9  16
ATOM     16  C   UNL     1       2.212   5.183  -0.207  0.00  0.00    +0.037 A 
ATOM     17  C   UNL     1       3.376   5.958  -0.215  0.00  0.00    +0.014 A 
ATOM     18  C   UNL     1       3.248   7.332  -0.319  0.00  0.00    +0.020 A 
ATOM     19  C   UNL     1       1.985   7.890  -0.402  0.00  0.00    +0.111 A 
ATOM     20  N   UNL     1       0.905   7.133  -0.388  0.00  0.00    -0.263 NA
ATOM     21  C   UNL     1       0.976   5.821  -0.295  0.00  0.00    +0.122 A 
ENDBRANCH   9  16
BRANCH   1  22
ATOM     22  CA  UNL     1      -1.280   1.662  -0.219  0.00  0.00    +0.097 C 
BRANCH  22  24
ATOM     23  C   UNL     1      -2.236   0.844   1.940  0.00  0.00    +0.006 C 
ATOM     24  C   UNL     1      -2.420   0.867   0.421  0.00  0.00    +0.021 C 
ENDBRANCH  22  24
BRANCH  22  25
ATOM     25  C   UNL     1      -1.530   1.792  -1.723  0.00  0.00    +0.178 C 
BRANCH  25  26
ATOM     26  O   UNL     1      -1.706   0.492  -2.290  0.00  0.00    -0.393 OA
ATOM     27  H   UNL     1      -1.868   0.497  -3.243  0.00  0.00    +0.209 HD
ENDBRANCH  25  26
ENDBRANCH  22  25
ENDBRANCH   1  22
TORSDOF 5
