REMARK  Name = ZINC12546825
REMARK  6 active torsions:
REMARK  status: ('A' for Active; 'I' for Inactive)
REMARK    1  A    between atoms: C_6  and  C_7
REMARK    2  A    between atoms: C_10  and  S_19
REMARK    3  A    between atoms: N_11  and  C_12
REMARK    4  A    between atoms: S_19  and  C_20
REMARK    5  A    between atoms: C_20  and  C_21
REMARK    6  A    between atoms: N_23  and  C_24
REMARK                            x       y       z     vdW  Elec       q    Type
REMARK                         _______ _______ _______ _____ _____    ______ ____
ROOT
ATOM      1  C   UNL     1      -2.392   0.919   0.278  0.00  0.00    +0.169 A 
ATOM      2  N   UNL     1      -2.731  -0.350   0.294  0.00  0.00    -0.128 NA
ATOM      3  N   UNL     1      -4.009  -0.463   0.353  0.00  0.00    -0.122 NA
ATOM      4  C   UNL     1      -4.568   0.727   0.378  0.00  0.00    +0.197 A 
ATOM      5  N   UNL     1      -3.558   1.649   0.337  0.00  0.00    -0.270 N 
ENDROOT
BRANCH   1  11
ATOM      6  C   UNL     1      -0.805   2.787  -0.165  0.00  0.00    +0.013 A 
ATOM      7  C   UNL     1       0.479   3.289  -0.217  0.00  0.00    +0.021 A 
ATOM      8  C   UNL     1       1.556   2.478   0.101  0.00  0.00    +0.041 A 
ATOM      9  C   UNL     1       1.351   1.159   0.472  0.00  0.00    +0.021 A 
ATOM     10  C   UNL     1       0.071   0.646   0.528  0.00  0.00    +0.013 A 
ATOM     11  C   UNL     1      -1.018   1.460   0.214  0.00  0.00    +0.020 A 
ATOM     12 CL   UNL     1       3.168   3.116   0.034  0.00  0.00    -0.084 Cl
ENDBRANCH   1  11
BRANCH   5  13
ATOM     13  C   UNL     1      -3.685   3.045   0.349  0.00  0.00    +0.051 A 
ATOM     14  C   UNL     1      -3.244   3.774   1.445  0.00  0.00    +0.028 A 
ATOM     15  C   UNL     1      -3.365   5.150   1.453  0.00  0.00    +0.022 A 
ATOM     16  C   UNL     1      -3.936   5.801   0.373  0.00  0.00    +0.041 A 
ATOM     17  C   UNL     1      -4.381   5.077  -0.718  0.00  0.00    +0.022 A 
ATOM     18  C   UNL     1      -4.257   3.701  -0.733  0.00  0.00    +0.028 A 
ATOM     19 CL   UNL     1      -4.093   7.530   0.389  0.00  0.00    -0.084 Cl
ENDBRANCH   5  13
BRANCH   4  20
ATOM     20  S   UNL     1      -6.295   1.069   0.456  0.00  0.00    -0.076 S 
BRANCH  20  21
ATOM     21  C   UNL     1      -6.949  -0.619   0.487  0.00  0.00    +0.173 C 
BRANCH  21  22
ATOM     22  C   UNL     1      -8.454  -0.573   0.555  0.00  0.00    +0.227 C 
ATOM     23  O   UNL     1      -9.027   0.495   0.581  0.00  0.00    -0.275 OA
ATOM     24  N   UNL     1      -9.162  -1.719   0.589  0.00  0.00    -0.285 N 
ATOM     25  H   UNL     1      -8.702  -2.572   0.639  0.00  0.00    +0.155 HD
BRANCH  24  26
ATOM     26  C   UNL     1     -10.560  -1.679   0.551  0.00  0.00    +0.034 A 
ATOM     27  C   UNL     1     -11.209  -0.683  -0.168  0.00  0.00    +0.023 A 
ATOM     28  C   UNL     1     -12.588  -0.649  -0.202  0.00  0.00    +0.006 A 
ATOM     29  C   UNL     1     -13.328  -1.603   0.478  0.00  0.00    -0.044 A 
ATOM     30  C   UNL     1     -12.685  -2.595   1.194  0.00  0.00    -0.042 A 
ATOM     31  C   UNL     1     -11.302  -2.637   1.226  0.00  0.00    +0.027 A 
ATOM     32  C   UNL     1     -13.708  -3.505   1.840  0.00  0.00    +0.036 C 
ATOM     33  C   UNL     1     -15.027  -3.227   1.090  0.00  0.00    +0.009 C 
ATOM     34  C   UNL     1     -14.828  -1.779   0.594  0.00  0.00    +0.036 C 
ENDBRANCH  24  26
ENDBRANCH  21  22
ENDBRANCH  20  21
ENDBRANCH   4  20
TORSDOF 6
