REMARK  Name = ZINC57530892
REMARK  14 active torsions:
REMARK  status: ('A' for Active; 'I' for Inactive)
REMARK    1  A    between atoms: C_1  and  C_2
REMARK    2  A    between atoms: C_2  and  C_3
REMARK    3  A    between atoms: C_3  and  C_4
REMARK    4  A    between atoms: C_3  and  C_5
REMARK    5  A    between atoms: C_3  and  N_6
REMARK    6  A    between atoms: C_7  and  C_11
REMARK    7  A    between atoms: C_11  and  C_13
REMARK    8  A    between atoms: C_11  and  N_27
REMARK    9  A    between atoms: C_17  and  C_26
REMARK   10  A    between atoms: C_19  and  C_25
REMARK   11  A    between atoms: N_27  and  C_28
REMARK   12  A    between atoms: N_27  and  C_36
REMARK   13  A    between atoms: C_28  and  C_29
REMARK   14  A    between atoms: C_36  and  C_37
REMARK                            x       y       z     vdW  Elec       q    Type
REMARK                         _______ _______ _______ _____ _____    ______ ____
ROOT
ATOM      1  C   UNL     1       3.305  -1.163   4.416  0.00  0.00    +0.163 C 
ENDROOT
BRANCH   1   2
ATOM      2  C   UNL     1       3.745  -1.045   5.853  0.00  0.00    +0.042 A 
ATOM      3  C   UNL     1       3.564   0.121   6.521  0.00  0.00    +0.021 A 
ATOM      4  C   UNL     1       4.002   0.203   7.915  0.00  0.00    -0.001 A 
ATOM      5  C   UNL     1       3.842   1.378   8.656  0.00  0.00    +0.013 A 
ATOM      6  C   UNL     1       4.260   1.422   9.956  0.00  0.00    -0.050 A 
ATOM      7  C   UNL     1       4.842   0.309  10.549  0.00  0.00    +0.008 A 
ATOM      8  C   UNL     1       5.010  -0.859   9.838  0.00  0.00    -0.026 A 
ATOM      9  C   UNL     1       4.591  -0.927   8.513  0.00  0.00    +0.052 A 
ATOM     10  N   UNL     1       4.746  -2.084   7.779  0.00  0.00    -0.322 N 
ATOM     11  H   UNL     1       5.153  -2.862   8.192  0.00  0.00    +0.169 HD
ATOM     12  C   UNL     1       4.337  -2.151   6.500  0.00  0.00    +0.254 A 
ATOM     13  O   UNL     1       4.484  -3.191   5.882  0.00  0.00    -0.268 OA
ATOM     14  C   UNL     1       5.645  -2.058  10.493  0.00  0.00    +0.046 C 
ATOM     15  C   UNL     1       4.087   2.689  10.754  0.00  0.00    +0.044 C 
ENDBRANCH   1   2
BRANCH   1  17
ATOM     16  N   UNL     1       0.874  -1.897   4.183  0.00  0.00    -0.222 N 
ATOM     17  C   UNL     1       2.187  -2.167   4.313  0.00  0.00    +0.174 A 
ATOM     18  N   UNL     1       2.302  -3.473   4.333  0.00  0.00    -0.111 NA
ATOM     19  N   UNL     1       1.123  -3.978   4.220  0.00  0.00    -0.023 NA
ATOM     20  N   UNL     1       0.257  -3.029   4.135  0.00  0.00    -0.043 NA
BRANCH  16  21
ATOM     21  C   UNL     1       0.262  -0.569   4.114  0.00  0.00    +0.062 C 
ATOM     22  C   UNL     1       0.771   0.164   2.871  0.00  0.00    +0.036 C 
ATOM     23  C   UNL     1       0.634   0.230   5.365  0.00  0.00    +0.036 C 
BRANCH  21  25
ATOM     24  C   UNL     1      -1.900   0.676   3.962  0.00  0.00    +0.006 C 
ATOM     25  C   UNL     1      -1.260  -0.712   4.034  0.00  0.00    +0.026 C 
ENDBRANCH  21  25
ENDBRANCH  16  21
ENDBRANCH   1  17
BRANCH   1  26
ATOM     26  N   UNL     1       4.438  -1.606   3.592  0.00  0.00    -0.277 NA
BRANCH  26  27
ATOM     27  C   UNL     1       4.102  -1.555   2.163  0.00  0.00    +0.121 C 
BRANCH  27  28
ATOM     28  C   UNL     1       3.400  -2.828   1.767  0.00  0.00    -0.033 A 
ATOM     29  C   UNL     1       4.095  -4.023   1.745  0.00  0.00    +0.008 A 
ATOM     30  C   UNL     1       3.452  -5.191   1.382  0.00  0.00    +0.038 A 
ATOM     31  C   UNL     1       2.111  -5.165   1.040  0.00  0.00    +0.123 A 
ATOM     32  C   UNL     1       1.415  -3.968   1.063  0.00  0.00    +0.038 A 
ATOM     33  C   UNL     1       2.059  -2.802   1.431  0.00  0.00    +0.008 A 
ATOM     34  F   UNL     1       1.481  -6.306   0.685  0.00  0.00    -0.205 F 
ENDBRANCH  27  28
ENDBRANCH  26  27
BRANCH  26  35
ATOM     35  C   UNL     1       5.640  -0.811   3.879  0.00  0.00    +0.160 C 
BRANCH  35  36
ATOM     36  C   UNL     1       6.851  -1.513   3.320  0.00  0.00    +0.119 A 
ATOM     37  C   UNL     1       7.428  -1.260   2.131  0.00  0.00    +0.046 A 
ATOM     38  C   UNL     1       8.526  -2.143   2.013  0.00  0.00    +0.041 A 
ATOM     39  C   UNL     1       8.554  -2.883   3.136  0.00  0.00    +0.195 A 
ATOM     40  O   UNL     1       7.541  -2.493   3.927  0.00  0.00    -0.467 OA
ENDBRANCH  35  36
ENDBRANCH  26  35
ENDBRANCH   1  26
TORSDOF 9
