REMARK  Name = ZINC05635891
REMARK  8 active torsions:
REMARK  status: ('A' for Active; 'I' for Inactive)
REMARK    1  A    between atoms: C_1  and  C_2
REMARK    2  A    between atoms: C_4  and  C_15
REMARK    3  A    between atoms: C_5  and  C_14
REMARK    4  A    between atoms: N_6  and  C_7
REMARK    5  A    between atoms: C_15  and  C_17
REMARK    6  A    between atoms: C_17  and  C_19
REMARK    7  A    between atoms: C_17  and  S_20
REMARK    8  A    between atoms: S_20  and  C_21
REMARK                            x       y       z     vdW  Elec       q    Type
REMARK                         _______ _______ _______ _____ _____    ______ ____
ROOT
ATOM      1  C   UNL     1      -5.290   3.318   0.193  0.00  0.00    +0.178 C 
ATOM      2  O   UNL     1      -5.569   4.444  -0.164  0.00  0.00    -0.291 OA
ENDROOT
BRANCH   1   6
ATOM      3  C   UNL     1      -7.685  -0.683   2.247  0.00  0.00    +0.064 C 
ATOM      4  C   UNL     1      -7.368   0.672   1.667  0.00  0.00    +0.022 A 
ATOM      5  C   UNL     1      -6.161   1.070   1.232  0.00  0.00    +0.034 A 
ATOM      6  C   UNL     1      -6.325   2.451   0.759  0.00  0.00    +0.040 A 
ATOM      7  C   UNL     1      -7.658   2.763   0.953  0.00  0.00    +0.031 A 
ATOM      8  N   UNL     1      -8.265   1.690   1.495  0.00  0.00    -0.317 N 
ATOM      9  C   UNL     1      -8.317   4.075   0.615  0.00  0.00    +0.064 C 
BRANCH   8  10
ATOM     10  C   UNL     1      -9.623   1.625   1.835  0.00  0.00    +0.047 A 
ATOM     11  C   UNL     1     -10.128   2.438   2.840  0.00  0.00    +0.027 A 
ATOM     12  C   UNL     1     -11.468   2.376   3.170  0.00  0.00    +0.022 A 
ATOM     13  C   UNL     1     -12.305   1.496   2.506  0.00  0.00    +0.041 A 
ATOM     14  C   UNL     1     -11.803   0.681   1.507  0.00  0.00    +0.022 A 
ATOM     15  C   UNL     1     -10.465   0.743   1.170  0.00  0.00    +0.027 A 
ATOM     16 CL   UNL     1     -13.987   1.416   2.927  0.00  0.00    -0.084 Cl
ENDBRANCH   8  10
ENDBRANCH   1   6
BRANCH   1  17
ATOM     17  C   UNL     1      -3.877   2.813   0.053  0.00  0.00    +0.122 C 
ATOM     18  C   UNL     1      -3.739   2.039  -1.259  0.00  0.00    +0.028 C 
BRANCH  17  19
ATOM     19  S   UNL     1      -2.732   4.215   0.050  0.00  0.00    -0.075 S 
BRANCH  19  20
ATOM     20  C   UNL     1      -1.195   3.355   0.031  0.00  0.00    +0.195 A 
ATOM     21  N   UNL     1      -1.177   2.025   0.019  0.00  0.00    -0.189 NA
ATOM     22  C   UNL     1      -0.017   1.376   0.010  0.00  0.00    +0.218 A 
ATOM     23  N   UNL     1       1.126   2.056   0.002  0.00  0.00    -0.181 NA
ATOM     24  C   UNL     1       1.108   3.386   0.010  0.00  0.00    +0.218 A 
ATOM     25  N   UNL     1      -0.052   4.035   0.024  0.00  0.00    -0.189 NA
ATOM     26  N   UNL     1       2.294   4.091   0.002  0.00  0.00    -0.327 N 
ATOM     27  N   UNL     1       0.002  -0.004   0.002  0.00  0.00    -0.327 N 
ATOM     28  H   UNL     1       3.140   3.618  -0.009  0.00  0.00    +0.145 HD
ATOM     29  H   UNL     1       2.281   5.061   0.007  0.00  0.00    +0.145 HD
ATOM     30  H   UNL     1       0.849  -0.478  -0.009  0.00  0.00    +0.145 HD
ATOM     31  H   UNL     1      -0.831  -0.500   0.007  0.00  0.00    +0.145 HD
ENDBRANCH  19  20
ENDBRANCH  17  19
ENDBRANCH   1  17
TORSDOF 5
