REMARK  Name = ZINC04297108
REMARK  6 active torsions:
REMARK  status: ('A' for Active; 'I' for Inactive)
REMARK    1  A    between atoms: C_1  and  C_2
REMARK    2  A    between atoms: C_2  and  C_3
REMARK    3  A    between atoms: N_11  and  C_15
REMARK    4  A    between atoms: C_15  and  C_16
REMARK    5  A    between atoms: N_18  and  C_19
REMARK    6  A    between atoms: C_22  and  N_25
REMARK                            x       y       z     vdW  Elec       q    Type
REMARK                         _______ _______ _______ _____ _____    ______ ____
ROOT
ATOM      1  C   UNL     1       2.460   1.006   0.105  0.00  0.00    +0.214 C 
ENDROOT
BRANCH   1  10
ATOM      2  C   UNL     1       6.126   4.767   3.123  0.00  0.00    -0.011 C 
ATOM      3  C   UNL     1       4.746   5.133   2.573  0.00  0.00    +0.006 C 
ATOM      4  C   UNL     1       4.750   4.985   1.050  0.00  0.00    +0.035 C 
ATOM      5  C   UNL     1       5.099   3.548   0.678  0.00  0.00    +0.113 C 
ATOM      6  C   UNL     1       6.464   3.163   1.238  0.00  0.00    +0.035 C 
ATOM      7  C   UNL     1       6.454   3.317   2.761  0.00  0.00    +0.006 C 
ATOM      8  C   UNL     1       4.036   2.600   1.183  0.00  0.00    +0.247 C 
ATOM      9  O   UNL     1       3.708   2.411   2.335  0.00  0.00    -0.273 OA
ATOM     10  N   UNL     1       3.528   2.008   0.082  0.00  0.00    -0.215 N 
ATOM     11  C   UNL     1       4.125   2.446  -1.033  0.00  0.00    +0.310 C 
ATOM     12  O   UNL     1       3.843   2.056  -2.149  0.00  0.00    -0.252 OA
ATOM     13  N   UNL     1       5.072   3.371  -0.779  0.00  0.00    -0.285 N 
ATOM     14  H   UNL     1       5.628   3.827  -1.430  0.00  0.00    +0.151 HD
BRANCH   2  16
ATOM     15  C   UNL     1       7.538   4.681   5.183  0.00  0.00    +0.004 C 
ATOM     16  C   UNL     1       6.126   4.925   4.645  0.00  0.00    -0.000 C 
ENDBRANCH   2  16
ENDBRANCH   1  10
BRANCH   1  17
ATOM     17  C   UNL     1       1.123   1.694   0.006  0.00  0.00    +0.235 C 
ATOM     18  O   UNL     1       1.068   2.903  -0.076  0.00  0.00    -0.274 OA
ATOM     19  N   UNL     1      -0.011   0.966   0.007  0.00  0.00    -0.284 N 
ATOM     20  H   UNL     1       0.034  -0.003   0.005  0.00  0.00    +0.155 HD
BRANCH  19  21
ATOM     21  C   UNL     1      -1.256   1.609   0.007  0.00  0.00    +0.034 A 
ATOM     22  C   UNL     1      -2.326   1.051   0.695  0.00  0.00    +0.025 A 
ATOM     23  C   UNL     1      -3.551   1.687   0.699  0.00  0.00    +0.025 A 
ATOM     24  C   UNL     1      -3.717   2.879   0.006  0.00  0.00    +0.030 A 
ATOM     25  C   UNL     1      -2.649   3.434  -0.686  0.00  0.00    +0.025 A 
ATOM     26  C   UNL     1      -1.422   2.801  -0.686  0.00  0.00    +0.025 A 
BRANCH  24  27
ATOM     27  N   UNL     1      -4.960   3.522   0.007  0.00  0.00    -0.330 N 
ATOM     28  C   UNL     1      -4.839   4.903   0.490  0.00  0.00    +0.105 C 
ATOM     29  C   UNL     1      -6.184   5.617   0.340  0.00  0.00    +0.019 C 
ATOM     30  C   UNL     1      -7.247   4.866   1.146  0.00  0.00    +0.003 C 
ATOM     31  C   UNL     1      -7.320   3.418   0.655  0.00  0.00    +0.019 C 
ATOM     32  C   UNL     1      -5.942   2.767   0.796  0.00  0.00    +0.105 C 
ENDBRANCH  24  27
ENDBRANCH  19  21
ENDBRANCH   1  17
TORSDOF 5
