REMARK  Name = ZINC35158895
REMARK  13 active torsions:
REMARK  status: ('A' for Active; 'I' for Inactive)
REMARK    1  A    between atoms: C_1  and  C_2
REMARK    2  A    between atoms: C_2  and  C_3
REMARK    3  A    between atoms: C_3  and  C_4
REMARK    4  A    between atoms: C_4  and  C_6
REMARK    5  A    between atoms: C_4  and  S_16
REMARK    6  A    between atoms: N_8  and  C_9
REMARK    7  A    between atoms: C_9  and  C_10
REMARK    8  A    between atoms: C_10  and  N_11
REMARK    9  A    between atoms: S_16  and  C_17
REMARK   10  A    between atoms: C_19  and  C_33
REMARK   11  A    between atoms: C_20  and  C_25
REMARK   12  A    between atoms: N_23  and  C_24
REMARK   13  A    between atoms: C_25  and  C_26
REMARK                            x       y       z     vdW  Elec       q    Type
REMARK                         _______ _______ _______ _____ _____    ______ ____
ROOT
ATOM      1  S   UNL     1      -0.613  -2.518  -1.681  0.00  0.00    -0.075 S 
ENDROOT
BRANCH   1   2
ATOM      2  C   UNL     1      -0.671  -4.279  -1.687  0.00  0.00    +0.172 A 
ATOM      3  N   UNL     1      -1.140  -4.916  -0.631  0.00  0.00    -0.228 NA
ATOM      4  C   UNL     1      -1.201  -6.245  -0.595  0.00  0.00    +0.050 A 
ATOM      5  C   UNL     1      -0.774  -6.980  -1.663  0.00  0.00    +0.042 A 
ATOM      6  C   UNL     1      -0.273  -6.309  -2.793  0.00  0.00    +0.258 A 
ATOM      7  O   UNL     1       0.117  -6.935  -3.765  0.00  0.00    -0.267 OA
ATOM      8  N   UNL     1      -0.236  -4.960  -2.784  0.00  0.00    -0.291 N 
ATOM      9  C   UNL     1       0.275  -4.230  -3.947  0.00  0.00    +0.154 C 
ATOM     10  C   UNL     1      -1.743  -6.939   0.628  0.00  0.00    +0.066 C 
BRANCH   5  11
ATOM     11  C   UNL     1      -0.839  -8.485  -1.632  0.00  0.00    +0.077 C 
BRANCH  11  12
ATOM     12  C   UNL     1      -2.115  -8.947  -2.287  0.00  0.00    -0.043 A 
ATOM     13  C   UNL     1      -3.261  -9.107  -1.530  0.00  0.00    +0.005 A 
ATOM     14  C   UNL     1      -4.431  -9.531  -2.131  0.00  0.00    +0.015 A 
ATOM     15  C   UNL     1      -4.456  -9.794  -3.488  0.00  0.00    +0.018 A 
ATOM     16  C   UNL     1      -3.309  -9.633  -4.245  0.00  0.00    +0.015 A 
ATOM     17  C   UNL     1      -2.140  -9.205  -3.644  0.00  0.00    +0.005 A 
ATOM     18 BR   UNL     1      -6.058 -10.374  -4.310  0.00  0.00    -0.050 Br
ENDBRANCH  11  12
ENDBRANCH   5  11
ENDBRANCH   1   2
BRANCH   1  19
ATOM     19  C   UNL     1      -1.429  -2.057  -0.128  0.00  0.00    +0.140 C 
BRANCH  19  20
ATOM     20  C   UNL     1      -2.891  -2.414  -0.204  0.00  0.00    +0.226 C 
ATOM     21  O   UNL     1      -3.420  -2.582  -1.283  0.00  0.00    -0.275 OA
ATOM     22  N   UNL     1      -3.612  -2.548   0.927  0.00  0.00    -0.316 N 
ATOM     23  H   UNL     1      -3.189  -2.414   1.790  0.00  0.00    +0.149 HD
BRANCH  22  24
ATOM     24  C   UNL     1      -5.033  -2.895   0.853  0.00  0.00    +0.085 C 
BRANCH  24  25
ATOM     25  C   UNL     1      -5.611  -2.983   2.268  0.00  0.00    -0.060 C 
BRANCH  25  26
ATOM     26  N   UNL     1      -7.036  -3.332   2.194  0.00  0.00    +0.381 N 
ATOM     27  C   UNL     1      -7.198  -4.725   1.706  0.00  0.00    -0.079 C 
ATOM     28  C   UNL     1      -8.611  -5.115   2.210  0.00  0.00    -0.020 C 
ATOM     29  C   UNL     1      -8.684  -4.433   3.596  0.00  0.00    -0.020 C 
ATOM     30  C   UNL     1      -7.638  -3.304   3.544  0.00  0.00    -0.079 C 
ATOM     31  H   UNL     1      -7.520  -2.690   1.583  0.00  0.00    -0.082 HD
ENDBRANCH  25  26
ENDBRANCH  24  25
ENDBRANCH  22  24
ENDBRANCH  19  20
BRANCH  19  32
ATOM     32  C   UNL     1      -1.283  -0.551   0.097  0.00  0.00    +0.024 C 
BRANCH  32  34
ATOM     33  C   UNL     1       0.353   1.309   0.421  0.00  0.00    +0.004 C 
ATOM     34  C   UNL     1       0.192  -0.208   0.312  0.00  0.00    -0.002 C 
ENDBRANCH  32  34
ENDBRANCH  19  32
ENDBRANCH   1  19
TORSDOF 10
