REMARK  Name = ZINC08851109
REMARK  4 active torsions:
REMARK  status: ('A' for Active; 'I' for Inactive)
REMARK    1  A    between atoms: C_5  and  S_7
REMARK    2  A    between atoms: S_7  and  N_10
REMARK    3  A    between atoms: N_10  and  N_11
REMARK    4  A    between atoms: C_15  and  C_18
REMARK                            x       y       z     vdW  Elec       q    Type
REMARK                         _______ _______ _______ _____ _____    ______ ____
ROOT
ATOM      1  N   UNL     1      -3.360   1.677   2.458  0.00  0.00    -0.245 N 
ATOM      2  C   UNL     1      -4.559   1.789   3.153  0.00  0.00    +0.152 A 
ATOM      3  C   UNL     1      -4.764   2.870   4.006  0.00  0.00    +0.082 A 
ATOM      4  C   UNL     1      -5.964   2.972   4.687  0.00  0.00    +0.037 A 
ATOM      5  C   UNL     1      -6.918   1.980   4.500  0.00  0.00    +0.074 A 
ATOM      6  C   UNL     1      -6.646   0.933   3.643  0.00  0.00    +0.125 A 
ATOM      7  N   UNL     1      -5.494   0.864   3.002  0.00  0.00    -0.237 NA
ATOM      8 CL   UNL     1      -3.533   4.078   4.207  0.00  0.00    -0.080 Cl
ATOM      9  H   UNL     1      -2.672   2.352   2.565  0.00  0.00    +0.169 HD
ENDROOT
BRANCH   5  10
ATOM     10  C   UNL     1      -8.237   2.046   5.226  0.00  0.00    +0.419 C 
ATOM     11  F   UNL     1      -9.020   0.942   4.872  0.00  0.00    -0.166 F 
ATOM     12  F   UNL     1      -8.012   2.036   6.606  0.00  0.00    -0.166 F 
ATOM     13  F   UNL     1      -8.905   3.224   4.871  0.00  0.00    -0.166 F 
ENDBRANCH   5  10
BRANCH   1  14
ATOM     14  N   UNL     1      -3.146   0.588   1.602  0.00  0.00    -0.109 NA
ATOM     15  H   UNL     1      -3.239  -0.318   1.937  0.00  0.00    +0.172 HD
BRANCH  14  16
ATOM     16  S   UNL     1      -2.733   0.848   0.020  0.00  0.00    +0.074 S 
ATOM     17  O   UNL     1      -3.722   1.712  -0.522  0.00  0.00    -0.152 OA
ATOM     18  O   UNL     1      -2.446  -0.427  -0.539  0.00  0.00    -0.152 OA
BRANCH  16  23
ATOM     19  C   UNL     1       1.175   1.783   0.000  0.00  0.00    +0.005 A 
ATOM     20  C   UNL     1       1.158   3.165   0.007  0.00  0.00    +0.038 A 
ATOM     21  C   UNL     1      -0.050   3.841   0.023  0.00  0.00    +0.125 A 
ATOM     22  C   UNL     1      -1.240   3.132   0.031  0.00  0.00    +0.067 A 
ATOM     23  C   UNL     1      -1.220   1.750   0.017  0.00  0.00    +0.110 A 
ATOM     24  C   UNL     1      -0.013   1.076   0.008  0.00  0.00    +0.029 A 
ATOM     25  F   UNL     1      -0.068   5.192   0.029  0.00  0.00    -0.205 F 
ENDBRANCH  16  23
ENDBRANCH  14  16
ENDBRANCH   1  14
TORSDOF 4
