REMARK  Name = ZINC48445148
REMARK  6 active torsions:
REMARK  status: ('A' for Active; 'I' for Inactive)
REMARK    1  A    between atoms: C_1  and  C_2
REMARK    2  A    between atoms: C_2  and  O_3
REMARK    3  A    between atoms: O_3  and  C_4
REMARK    4  A    between atoms: N_6  and  C_7
REMARK    5  A    between atoms: N_12  and  S_14
REMARK    6  A    between atoms: S_14  and  C_17
REMARK                            x       y       z     vdW  Elec       q    Type
REMARK                         _______ _______ _______ _____ _____    ______ ____
ROOT
ATOM      1  C   UNL     1      -2.907  -3.823   0.009  0.00  0.00    +0.092 C 
ATOM      2  C   UNL     1      -2.858  -4.337  -1.431  0.00  0.00    +0.025 C 
ATOM      3  C   UNL     1      -3.005  -5.860  -1.437  0.00  0.00    +0.019 C 
ATOM      4  C   UNL     1      -4.361  -6.240  -0.834  0.00  0.00    +0.109 C 
ATOM      5  N   UNL     1      -4.476  -5.627   0.497  0.00  0.00    -0.174 NA
ATOM      6  C   UNL     1      -4.262  -4.180   0.629  0.00  0.00    +0.131 C 
ENDROOT
BRANCH   1   9
ATOM      7  C   UNL     1      -1.497  -1.836   0.006  0.00  0.00    +0.401 C 
ATOM      8  O   UNL     1      -0.523  -2.563  -0.007  0.00  0.00    -0.226 OA
ATOM      9  N   UNL     1      -2.735  -2.368   0.015  0.00  0.00    -0.277 N 
ATOM     10  H   UNL     1      -3.512  -1.787   0.026  0.00  0.00    +0.152 HD
BRANCH   7  11
ATOM     11  O   UNL     1      -1.339  -0.499   0.012  0.00  0.00    -0.451 OA
BRANCH  11  13
ATOM     12  C   UNL     1      -0.019   1.526   0.010  0.00  0.00    +0.048 C 
ATOM     13  C   UNL     1       0.002  -0.004   0.002  0.00  0.00    +0.230 C 
ENDBRANCH  11  13
ENDBRANCH   7  11
ENDBRANCH   1   9
BRANCH   5  14
ATOM     14  S   UNL     1      -4.839  -6.551   1.823  0.00  0.00    +0.068 S 
ATOM     15  O   UNL     1      -5.416  -5.675   2.781  0.00  0.00    -0.152 OA
ATOM     16  O   UNL     1      -5.514  -7.705   1.341  0.00  0.00    -0.152 OA
BRANCH  14  17
ATOM     17  C   UNL     1      -3.312  -7.108   2.504  0.00  0.00    +0.157 A 
ATOM     18  C   UNL     1      -3.097  -7.894   3.587  0.00  0.00    +0.051 A 
ATOM     19  C   UNL     1      -1.797  -8.206   3.941  0.00  0.00    +0.025 A 
ATOM     20  C   UNL     1      -0.777  -7.717   3.194  0.00  0.00    +0.048 A 
ATOM     21  S   UNL     1      -1.648  -6.790   1.942  0.00  0.00    -0.076 S 
ATOM     22 BR   UNL     1      -4.552  -8.552   4.600  0.00  0.00    -0.048 Br
ENDBRANCH  14  17
ENDBRANCH   5  14
TORSDOF 5
