REMARK  Name = ZINC57478463
REMARK  10 active torsions:
REMARK  status: ('A' for Active; 'I' for Inactive)
REMARK    1  A    between atoms: C_1  and  C_2
REMARK    2  A    between atoms: C_2  and  C_3
REMARK    3  A    between atoms: C_6  and  C_9
REMARK    4  A    between atoms: C_11  and  C_31
REMARK    5  A    between atoms: C_12  and  C_17
REMARK    6  A    between atoms: C_17  and  N_18
REMARK    7  A    between atoms: N_21  and  C_24
REMARK    8  A    between atoms: C_31  and  O_33
REMARK    9  A    between atoms: O_33  and  C_34
REMARK   10  A    between atoms: C_34  and  C_35
REMARK                            x       y       z     vdW  Elec       q    Type
REMARK                         _______ _______ _______ _____ _____    ______ ____
ROOT
ATOM      1  C   UNL     1      -5.330  -1.743   0.035  0.00  0.00    +0.144 C 
ATOM      2  C   UNL     1      -6.333  -0.656  -0.291  0.00  0.00    +0.079 C 
ATOM      3  C   UNL     1      -7.266  -0.922  -1.231  0.00  0.00    +0.038 C 
ATOM      4  N   UNL     1      -7.301  -2.131  -1.866  0.00  0.00    -0.271 N 
ATOM      5  C   UNL     1      -6.440  -3.126  -1.617  0.00  0.00    +0.304 C 
ATOM      6  O   UNL     1      -6.551  -4.167  -2.234  0.00  0.00    -0.252 OA
ATOM      7  N   UNL     1      -5.455  -3.010  -0.706  0.00  0.00    -0.288 N 
ATOM      8  H   UNL     1      -7.989  -2.277  -2.534  0.00  0.00    +0.156 HD
ATOM      9  H   UNL     1      -4.842  -3.743  -0.542  0.00  0.00    +0.151 HD
ENDROOT
BRANCH   1  13
ATOM     10  C   UNL     1      -1.417  -0.183  -0.675  0.00  0.00    -0.048 A 
ATOM     11  C   UNL     1      -1.947  -0.167   0.601  0.00  0.00    +0.004 A 
ATOM     12  C   UNL     1      -3.213  -0.671   0.831  0.00  0.00    +0.006 A 
ATOM     13  C   UNL     1      -3.950  -1.192  -0.216  0.00  0.00    -0.022 A 
ATOM     14  C   UNL     1      -3.421  -1.208  -1.493  0.00  0.00    +0.006 A 
ATOM     15  C   UNL     1      -2.156  -0.700  -1.723  0.00  0.00    +0.004 A 
BRANCH  10  17
ATOM     16  C   UNL     1      -0.134   1.857  -1.256  0.00  0.00    +0.009 C 
ATOM     17  C   UNL     1      -0.037   0.367  -0.926  0.00  0.00    +0.032 C 
ENDBRANCH  10  17
ENDBRANCH   1  13
BRANCH   2  18
ATOM     18  C   UNL     1      -6.296   0.596   0.367  0.00  0.00    +0.339 C 
ATOM     19  O   UNL     1      -7.030   1.496   0.006  0.00  0.00    -0.245 OA
BRANCH  18  20
ATOM     20  O   UNL     1      -5.445   0.791   1.396  0.00  0.00    -0.462 OA
BRANCH  20  21
ATOM     21  C   UNL     1      -5.460   2.079   2.015  0.00  0.00    +0.229 C 
ATOM     22  C   UNL     1      -4.437   2.111   3.152  0.00  0.00    +0.048 C 
ENDBRANCH  20  21
ENDBRANCH  18  20
ENDBRANCH   2  18
BRANCH   3  23
ATOM     23  C   UNL     1      -8.283   0.131  -1.586  0.00  0.00    +0.136 C 
BRANCH  23  24
ATOM     24  N   UNL     1      -7.721   1.033  -2.600  0.00  0.00    -0.294 NA
ATOM     25  C   UNL     1      -7.614   0.361  -3.901  0.00  0.00    +0.103 C 
ATOM     26  C   UNL     1      -6.861   1.268  -4.881  0.00  0.00    +0.120 C 
ATOM     27  N   UNL     1      -7.528   2.578  -4.911  0.00  0.00    -0.327 N 
ATOM     28  C   UNL     1      -7.794   3.253  -3.632  0.00  0.00    +0.120 C 
ATOM     29  C   UNL     1      -8.510   2.268  -2.701  0.00  0.00    +0.103 C 
BRANCH  27  30
ATOM     30  C   UNL     1      -7.898   3.167  -6.124  0.00  0.00    +0.030 A 
ATOM     31  C   UNL     1      -8.626   4.350  -6.129  0.00  0.00    +0.026 A 
ATOM     32  C   UNL     1      -8.991   4.930  -7.328  0.00  0.00    +0.040 A 
ATOM     33  C   UNL     1      -8.631   4.333  -8.525  0.00  0.00    +0.124 A 
ATOM     34  C   UNL     1      -7.905   3.154  -8.522  0.00  0.00    +0.040 A 
ATOM     35  C   UNL     1      -7.534   2.573  -7.325  0.00  0.00    +0.026 A 
ATOM     36  F   UNL     1      -8.989   4.902  -9.697  0.00  0.00    -0.205 F 
ENDBRANCH  27  30
ENDBRANCH  23  24
ENDBRANCH   3  23
TORSDOF 8
