REMARK  Name = ZINC00973868
REMARK  6 active torsions:
REMARK  status: ('A' for Active; 'I' for Inactive)
REMARK    1  A    between atoms: C_1  and  C_2
REMARK    2  A    between atoms: C_2  and  C_3
REMARK    3  A    between atoms: C_4  and  C_21
REMARK    4  A    between atoms: C_4  and  C_25
REMARK    5  A    between atoms: N_12  and  C_15
REMARK    6  A    between atoms: C_15  and  C_16
REMARK                            x       y       z     vdW  Elec       q    Type
REMARK                         _______ _______ _______ _____ _____    ______ ____
ROOT
ATOM      1  C   UNL     1       2.092   2.476   3.816  0.00  0.00    +0.074 C 
ATOM      2  C   UNL     1       4.027   2.952   2.456  0.00  0.00    +0.264 C 
ATOM      3  C   UNL     1       3.095   2.824   1.285  0.00  0.00    +0.098 A 
ATOM      4  C   UNL     1       3.523   3.172  -0.007  0.00  0.00    +0.262 A 
ATOM      5  O   UNL     1       4.654   3.588  -0.189  0.00  0.00    -0.267 OA
ATOM      6  N   UNL     1       2.671   3.041  -1.044  0.00  0.00    -0.275 N 
ATOM      7  H   UNL     1       2.971   3.289  -1.966  0.00  0.00    +0.173 HD
ATOM      8  C   UNL     1       1.422   2.581  -0.852  0.00  0.00    +0.331 A 
ATOM      9  O   UNL     1       0.672   2.468  -1.803  0.00  0.00    -0.246 OA
ATOM     10  N   UNL     1       0.989   2.242   0.377  0.00  0.00    -0.274 N 
ATOM     11  C   UNL     1       1.821   2.369   1.461  0.00  0.00    +0.119 A 
ATOM     12  N   UNL     1       1.389   2.034   2.723  0.00  0.00    -0.290 N 
ATOM     13  H   UNL     1       0.593   1.493   2.840  0.00  0.00    +0.155 HD
ATOM     14  N   UNL     1       3.339   2.932   3.795  0.00  0.00    -0.352 N 
ATOM     15  H   UNL     1       3.810   3.254   4.649  0.00  0.00    +0.162 HD
ENDROOT
BRANCH   2  16
ATOM     16  C   UNL     1       5.042   1.808   2.418  0.00  0.00    +0.426 C 
ATOM     17  F   UNL     1       5.772   1.871   1.226  0.00  0.00    -0.167 F 
ATOM     18  F   UNL     1       5.914   1.921   3.506  0.00  0.00    -0.167 F 
ATOM     19  F   UNL     1       4.367   0.584   2.486  0.00  0.00    -0.167 F 
ENDBRANCH   2  16
BRANCH   2  20
ATOM     20  C   UNL     1       4.772   4.285   2.360  0.00  0.00    +0.426 C 
ATOM     21  F   UNL     1       3.870   5.301   2.026  0.00  0.00    -0.167 F 
ATOM     22  F   UNL     1       5.367   4.577   3.592  0.00  0.00    -0.167 F 
ATOM     23  F   UNL     1       5.761   4.197   1.374  0.00  0.00    -0.167 F 
ENDBRANCH   2  20
BRANCH   1  25
ATOM     24  C   UNL     1       2.404   2.992   6.221  0.00  0.00    +0.011 C 
ATOM     25  C   UNL     1       1.430   2.458   5.170  0.00  0.00    +0.066 C 
ENDBRANCH   1  25
BRANCH  10  26
ATOM     26  C   UNL     1      -0.376   1.742   0.559  0.00  0.00    +0.202 C 
BRANCH  26  27
ATOM     27  C   UNL     1      -0.384   0.242   0.418  0.00  0.00    +0.125 A 
ATOM     28  C   UNL     1      -0.203  -0.644   1.414  0.00  0.00    +0.046 A 
ATOM     29  C   UNL     1      -0.291  -1.932   0.838  0.00  0.00    +0.041 A 
ATOM     30  C   UNL     1      -0.513  -1.757  -0.477  0.00  0.00    +0.195 A 
ATOM     31  O   UNL     1      -0.568  -0.438  -0.726  0.00  0.00    -0.466 OA
ENDBRANCH  26  27
ENDBRANCH  10  26
TORSDOF 5
