REMARK  Name = ZINC12498003
REMARK  7 active torsions:
REMARK  status: ('A' for Active; 'I' for Inactive)
REMARK    1  A    between atoms: C_1  and  C_2
REMARK    2  A    between atoms: C_7  and  C_8
REMARK    3  A    between atoms: N_16  and  C_19
REMARK    4  A    between atoms: C_29  and  C_30
REMARK    5  A    between atoms: C_29  and  C_36
REMARK    6  A    between atoms: C_36  and  O_38
REMARK    7  A    between atoms: O_38  and  C_39
REMARK                            x       y       z     vdW  Elec       q    Type
REMARK                         _______ _______ _______ _____ _____    ______ ____
ROOT
ATOM      1  C   UNL     1      -4.802   2.590  -0.302  0.00  0.00    -0.026 C 
ATOM      2  C   UNL     1      -3.461   2.487   0.402  0.00  0.00    +0.078 C 
ATOM      3  C   UNL     1      -2.728   3.713  -0.258  0.00  0.00    +0.090 C 
ATOM      4  C   UNL     1      -1.346   3.437   0.033  0.00  0.00    +0.229 C 
ATOM      5  O   UNL     1      -0.463   4.241   0.242  0.00  0.00    -0.275 OA
ATOM      6  N   UNL     1      -1.241   2.068   0.019  0.00  0.00    -0.210 N 
ATOM      7  C   UNL     1      -2.457   1.445   0.022  0.00  0.00    +0.229 C 
ATOM      8  O   UNL     1      -2.678   0.280  -0.232  0.00  0.00    -0.275 OA
ATOM      9  C   UNL     1      -3.751   4.770  -0.191  0.00  0.00    +0.070 C 
ATOM     10  N   UNL     1      -5.005   4.040  -0.559  0.00  0.00    +0.398 N 
ATOM     11  H   UNL     1      -5.786   4.386   0.010  0.00  0.00    -0.083 HD
ATOM     12  H   UNL     1      -5.213   4.190  -1.553  0.00  0.00    -0.083 HD
ENDROOT
BRANCH   6  13
ATOM     13  C   UNL     1      -0.017   1.383   0.010  0.00  0.00    +0.048 A 
ATOM     14  C   UNL     1       1.176   2.093   0.002  0.00  0.00    +0.028 A 
ATOM     15  C   UNL     1       2.382   1.419  -0.014  0.00  0.00    +0.051 A 
ATOM     16  C   UNL     1       2.405   0.032  -0.023  0.00  0.00    +0.162 A 
ATOM     17  C   UNL     1       1.212  -0.681  -0.013  0.00  0.00    +0.164 A 
ATOM     18  C   UNL     1       0.002  -0.004   0.002  0.00  0.00    +0.073 A 
ATOM     19  O   UNL     1       1.214  -2.042  -0.012  0.00  0.00    -0.485 OA
ATOM     20  C   UNL     1       2.433  -2.684  -0.404  0.00  0.00    +0.270 C 
ATOM     21  C   UNL     1       3.594  -1.997   0.328  0.00  0.00    +0.270 C 
ATOM     22  O   UNL     1       3.603  -0.615  -0.045  0.00  0.00    -0.485 OA
ENDBRANCH   6  13
BRANCH   1  29
ATOM     23  C   UNL     1      -5.327  -0.251  -0.327  0.00  0.00    +0.044 C 
ATOM     24  C   UNL     1      -5.017   0.470  -1.614  0.00  0.00    -0.049 A 
ATOM     25  C   UNL     1      -4.990  -0.228  -2.808  0.00  0.00    +0.003 A 
ATOM     26  C   UNL     1      -4.700   0.432  -3.987  0.00  0.00    +0.000 A 
ATOM     27  C   UNL     1      -4.443   1.790  -3.974  0.00  0.00    +0.000 A 
ATOM     28  C   UNL     1      -4.476   2.489  -2.782  0.00  0.00    +0.002 A 
ATOM     29  C   UNL     1      -4.766   1.829  -1.602  0.00  0.00    -0.058 A 
ENDBRANCH   1  29
BRANCH   9  30
ATOM     30  C   UNL     1      -3.457   5.873  -1.174  0.00  0.00    -0.047 A 
ATOM     31  C   UNL     1      -2.149   6.227  -1.446  0.00  0.00    +0.003 A 
ATOM     32  C   UNL     1      -1.880   7.236  -2.352  0.00  0.00    +0.000 A 
ATOM     33  C   UNL     1      -2.919   7.898  -2.978  0.00  0.00    +0.000 A 
ATOM     34  C   UNL     1      -4.228   7.548  -2.702  0.00  0.00    +0.000 A 
ATOM     35  C   UNL     1      -4.497   6.535  -1.800  0.00  0.00    +0.003 A 
ENDBRANCH   9  30
BRANCH   9  36
ATOM     36  C   UNL     1      -3.841   5.316   1.211  0.00  0.00    +0.301 C 
ATOM     37  O   UNL     1      -2.863   5.323   1.921  0.00  0.00    -0.252 OA
BRANCH  36  38
ATOM     38  O   UNL     1      -5.008   5.794   1.671  0.00  0.00    -0.469 OA
ATOM     39  C   UNL     1      -5.021   6.304   3.031  0.00  0.00    +0.280 C 
ENDBRANCH  36  38
ENDBRANCH   9  36
TORSDOF 5
