REMARK  Name = ZINC53957301
REMARK  5 active torsions:
REMARK  status: ('A' for Active; 'I' for Inactive)
REMARK    1  A    between atoms: C_1  and  C_2
REMARK    2  A    between atoms: C_7  and  N_12
REMARK    3  A    between atoms: C_9  and  C_11
REMARK    4  A    between atoms: C_18  and  O_21
REMARK    5  A    between atoms: O_21  and  C_22
REMARK                            x       y       z     vdW  Elec       q    Type
REMARK                         _______ _______ _______ _____ _____    ______ ____
ROOT
ATOM      1  N   UNL     1      -0.612  -2.547   1.244  0.00  0.00    -0.296 N 
ATOM      2  C   UNL     1      -0.873  -3.776   1.733  0.00  0.00    +0.302 C 
ATOM      3  O   UNL     1       0.041  -4.499   2.080  0.00  0.00    -0.253 OA
ATOM      4  N   UNL     1      -2.147  -4.203   1.836  0.00  0.00    -0.285 N 
ATOM      5  C   UNL     1      -2.456  -5.491   2.473  0.00  0.00    +0.112 C 
ATOM      6  C   UNL     1      -3.493  -5.260   3.576  0.00  0.00    +0.050 C 
ATOM      7  C   UNL     1      -4.710  -4.543   2.984  0.00  0.00    +0.121 C 
ATOM      8  C   UNL     1      -4.282  -3.182   2.429  0.00  0.00    +0.050 C 
ATOM      9  C   UNL     1      -3.254  -3.388   1.319  0.00  0.00    +0.112 C 
ATOM     10  H   UNL     1      -1.333  -1.999   0.899  0.00  0.00    +0.151 HD
ENDROOT
BRANCH   1  16
ATOM     11  C   UNL     1      -0.019   1.527   0.013  0.00  0.00    +0.008 C 
ATOM     12  C   UNL     1       0.002  -0.003   0.004  0.00  0.00    -0.009 C 
ATOM     13  C   UNL     1       0.720  -0.496  -1.254  0.00  0.00    +0.003 C 
ATOM     14  C   UNL     1       0.741  -2.026  -1.263  0.00  0.00    +0.002 C 
ATOM     15  C   UNL     1       1.480  -2.533  -0.023  0.00  0.00    +0.022 C 
ATOM     16  C   UNL     1       0.763  -2.040   1.235  0.00  0.00    +0.078 C 
ATOM     17  C   UNL     1       0.741  -0.510   1.244  0.00  0.00    +0.009 C 
ATOM     18  C   UNL     1       0.024  -0.017   2.502  0.00  0.00    +0.009 C 
ENDBRANCH   1  16
BRANCH   7  19
ATOM     19  O   UNL     1      -5.693  -4.354   4.004  0.00  0.00    -0.380 OA
ATOM     20  C   UNL     1      -7.037  -4.346   3.520  0.00  0.00    +0.194 C 
ENDBRANCH   7  19
TORSDOF 2
