REMARK  Name = ZINC09444400
REMARK  4 active torsions:
REMARK  status: ('A' for Active; 'I' for Inactive)
REMARK    1  A    between atoms: C_15  and  C_17
REMARK    2  A    between atoms: C_17  and  C_18
REMARK    3  A    between atoms: C_18  and  N_19
REMARK    4  A    between atoms: C_23  and  C_24
REMARK                            x       y       z     vdW  Elec       q    Type
REMARK                         _______ _______ _______ _____ _____    ______ ____
ROOT
ATOM      1  C   UNL     1      -1.528   2.207   2.257  0.00  0.00    +0.002 A 
ATOM      2  C   UNL     1      -1.267   0.977   2.832  0.00  0.00    +0.001 A 
ATOM      3  C   UNL     1      -0.005   0.418   2.732  0.00  0.00    +0.017 A 
ATOM      4  C   UNL     1       0.990   1.091   2.046  0.00  0.00    +0.035 A 
ATOM      5  C   UNL     1       0.731   2.332   1.459  0.00  0.00    +0.055 A 
ATOM      6  C   UNL     1      -0.536   2.884   1.570  0.00  0.00    +0.025 A 
ATOM      7  N   UNL     1       1.740   3.011   0.764  0.00  0.00    -0.238 N 
ATOM      8  C   UNL     1       2.674   2.333  -0.029  0.00  0.00    +0.055 A 
ATOM      9  C   UNL     1       3.111   2.887  -1.223  0.00  0.00    +0.025 A 
ATOM     10  C   UNL     1       4.032   2.211  -2.002  0.00  0.00    +0.002 A 
ATOM     11  C   UNL     1       4.524   0.984  -1.599  0.00  0.00    +0.001 A 
ATOM     12  C   UNL     1       4.096   0.421  -0.409  0.00  0.00    +0.017 A 
ATOM     13  C   UNL     1       3.175   1.093   0.373  0.00  0.00    +0.035 A 
ATOM     14  S   UNL     1       2.609   0.401   1.896  0.00  0.00    -0.086 S 
ATOM     15  C   UNL     1       1.813   4.353   0.861  0.00  0.00    +0.226 C 
ATOM     16  O   UNL     1       2.731   4.950   0.338  0.00  0.00    -0.275 OA
ENDROOT
BRANCH  15  17
ATOM     17  C   UNL     1       0.754   5.113   1.619  0.00  0.00    +0.116 C 
BRANCH  17  18
ATOM     18  C   UNL     1       1.281   6.505   1.973  0.00  0.00    +0.124 C 
BRANCH  18  19
ATOM     19  N   UNL     1       0.252   7.243   2.709  0.00  0.00    -0.255 N 
ATOM     20  C   UNL     1      -0.616   7.984   2.041  0.00  0.00    +0.258 C 
ATOM     21  O   UNL     1      -0.582   8.068   0.826  0.00  0.00    -0.269 OA
ATOM     22  C   UNL     1      -1.628   8.698   2.836  0.00  0.00    +0.080 C 
ATOM     23  C   UNL     1      -2.636   9.519   2.425  0.00  0.00    +0.066 C 
ATOM     24  S   UNL     1      -1.169   8.199   4.490  0.00  0.00    -0.061 S 
ATOM     25  C   UNL     1       0.215   7.157   4.055  0.00  0.00    +0.121 C 
ATOM     26  S   UNL     1       1.244   6.266   5.093  0.00  0.00    -0.027 S 
BRANCH  23  27
ATOM     27  C   UNL     1      -2.724   9.904   1.067  0.00  0.00    +0.129 A 
ATOM     28  C   UNL     1      -3.752  10.624   0.491  0.00  0.00    +0.049 A 
ATOM     29  C   UNL     1      -3.421  10.777  -0.865  0.00  0.00    +0.042 A 
ATOM     30  C   UNL     1      -2.240  10.151  -1.061  0.00  0.00    +0.195 A 
ATOM     31  O   UNL     1      -1.823   9.628   0.102  0.00  0.00    -0.463 OA
ENDBRANCH  23  27
ENDBRANCH  18  19
ENDBRANCH  17  18
ENDBRANCH  15  17
TORSDOF 4
