REMARK  Name = ZINC00681845
REMARK  9 active torsions:
REMARK  status: ('A' for Active; 'I' for Inactive)
REMARK    1  A    between atoms: C_1  and  C_2
REMARK    2  A    between atoms: C_2  and  O_4
REMARK    3  A    between atoms: O_4  and  C_5
REMARK    4  A    between atoms: C_8  and  C_13
REMARK    5  A    between atoms: C_10  and  O_11
REMARK    6  A    between atoms: O_11  and  C_12
REMARK    7  A    between atoms: C_18  and  C_23
REMARK    8  A    between atoms: C_26  and  O_29
REMARK    9  A    between atoms: O_29  and  C_30
REMARK                            x       y       z     vdW  Elec       q    Type
REMARK                         _______ _______ _______ _____ _____    ______ ____
ROOT
ATOM      1  C   UNL     1       4.950   4.003  -0.008  0.00  0.00    +0.136 C 
ATOM      2  C   UNL     1       5.302   4.351  -1.435  0.00  0.00    +0.036 C 
ATOM      3  C   UNL     1       6.277   3.787  -2.166  0.00  0.00    +0.017 C 
ATOM      4  C   UNL     1       6.496   4.210  -3.610  0.00  0.00    +0.059 C 
ATOM      5  C   UNL     1       6.161   5.691  -3.774  0.00  0.00    +0.032 C 
ATOM      6  C   UNL     1       4.691   5.884  -3.384  0.00  0.00    +0.088 C 
ATOM      7  C   UNL     1       4.496   5.374  -1.987  0.00  0.00    +0.163 C 
ATOM      8  O   UNL     1       3.614   5.857  -1.305  0.00  0.00    -0.292 OA
ATOM      9  N   UNL     1       7.118   2.818  -1.726  0.00  0.00    -0.316 N 
ATOM     10  C   UNL     1       6.722   1.680  -1.032  0.00  0.00    +0.052 A 
ATOM     11  C   UNL     1       6.924   0.405  -1.531  0.00  0.00    +0.025 A 
ATOM     12  C   UNL     1       6.605  -0.690  -0.744  0.00  0.00    +0.002 A 
ATOM     13  C   UNL     1       6.089  -0.509   0.526  0.00  0.00    +0.002 A 
ATOM     14  C   UNL     1       5.868   0.766   1.018  0.00  0.00    +0.025 A 
ATOM     15  C   UNL     1       6.170   1.863   0.226  0.00  0.00    +0.049 A 
ATOM     16  N   UNL     1       5.922   3.164   0.660  0.00  0.00    -0.331 N 
ATOM     17  H   UNL     1       8.065   2.928  -1.907  0.00  0.00    +0.152 HD
ATOM     18  H   UNL     1       6.410   3.513   1.423  0.00  0.00    +0.147 HD
ENDROOT
BRANCH   1  22
ATOM     19  C   UNL     1       1.181   1.983   0.003  0.00  0.00    +0.173 A 
ATOM     20  C   UNL     1       2.276   1.411  -0.626  0.00  0.00    +0.050 A 
ATOM     21  C   UNL     1       3.493   2.066  -0.628  0.00  0.00    +0.009 A 
ATOM     22  C   UNL     1       3.621   3.293  -0.003  0.00  0.00    -0.019 A 
ATOM     23  C   UNL     1       2.534   3.869   0.627  0.00  0.00    +0.055 A 
ATOM     24  C   UNL     1       1.310   3.220   0.627  0.00  0.00    +0.163 A 
BRANCH  24  25
ATOM     25  O   UNL     1       0.237   3.788   1.241  0.00  0.00    -0.491 OA
ATOM     26  C   UNL     1       0.443   5.059   1.861  0.00  0.00    +0.277 C 
ENDBRANCH  24  25
BRANCH  19  27
ATOM     27  O   UNL     1      -0.017   1.339   0.005  0.00  0.00    -0.422 OA
BRANCH  27  29
ATOM     28  C   UNL     1      -2.204   0.947  -1.071  0.00  0.00    +0.136 C 
ATOM     29  C   UNL     1      -0.896   1.685  -0.949  0.00  0.00    +0.309 C 
ATOM     30  O   UNL     1      -0.638   2.587  -1.710  0.00  0.00    -0.251 OA
ENDBRANCH  27  29
ENDBRANCH  19  27
ENDBRANCH   1  22
BRANCH   5  31
ATOM     31  C   UNL     1       6.368   6.106  -5.208  0.00  0.00    -0.043 A 
ATOM     32  C   UNL     1       5.651   5.487  -6.216  0.00  0.00    +0.007 A 
ATOM     33  C   UNL     1       5.835   5.869  -7.530  0.00  0.00    +0.046 A 
ATOM     34  C   UNL     1       6.748   6.867  -7.841  0.00  0.00    +0.120 A 
ATOM     35  C   UNL     1       7.470   7.482  -6.828  0.00  0.00    +0.046 A 
ATOM     36  C   UNL     1       7.279   7.100  -5.515  0.00  0.00    +0.007 A 
BRANCH  34  37
ATOM     37  O   UNL     1       6.935   7.241  -9.134  0.00  0.00    -0.495 OA
ATOM     38  C   UNL     1       6.157   6.564 -10.123  0.00  0.00    +0.277 C 
ENDBRANCH  34  37
ENDBRANCH   5  31
TORSDOF 6
