REMARK  Name = ZINC38635062
REMARK  9 active torsions:
REMARK  status: ('A' for Active; 'I' for Inactive)
REMARK    1  A    between atoms: C_1  and  C_2
REMARK    2  A    between atoms: C_2  and  O_3
REMARK    3  A    between atoms: O_3  and  C_4
REMARK    4  A    between atoms: C_7  and  S_11
REMARK    5  A    between atoms: C_9  and  C_10
REMARK    6  A    between atoms: S_11  and  N_14
REMARK    7  A    between atoms: N_20  and  S_24
REMARK    8  A    between atoms: S_24  and  C_27
REMARK    9  A    between atoms: C_31  and  C_33
REMARK                            x       y       z     vdW  Elec       q    Type
REMARK                         _______ _______ _______ _____ _____    ______ ____
ROOT
ATOM      1  N   UNL     1      -0.315  -7.363  -2.976  0.00  0.00    -0.176 NA
ATOM      2  C   UNL     1      -1.531  -7.527  -2.168  0.00  0.00    +0.113 C 
ATOM      3  C   UNL     1      -2.248  -8.806  -2.612  0.00  0.00    +0.070 C 
ATOM      4  C   UNL     1      -2.493  -8.752  -4.121  0.00  0.00    +0.144 C 
ATOM      5  C   UNL     1      -1.159  -8.658  -4.864  0.00  0.00    +0.070 C 
ATOM      6  C   UNL     1      -0.433  -7.371  -4.441  0.00  0.00    +0.113 C 
ATOM      7  N   UNL     1      -3.324  -7.584  -4.447  0.00  0.00    -0.144 NA
ATOM      8  C   UNL     1      -4.540  -8.116  -5.103  0.00  0.00    +0.140 C 
ATOM      9  C   UNL     1      -4.080  -9.510  -5.596  0.00  0.00    +0.179 C 
ATOM     10  O   UNL     1      -3.191  -9.937  -4.537  0.00  0.00    -0.356 OA
ENDROOT
BRANCH   1  11
ATOM     11  S   UNL     1       1.160  -7.164  -2.250  0.00  0.00    +0.061 S 
ATOM     12  O   UNL     1       2.137  -7.582  -3.193  0.00  0.00    -0.153 OA
ATOM     13  O   UNL     1       1.056  -7.741  -0.955  0.00  0.00    -0.153 OA
BRANCH  11  17
ATOM     14  C   UNL     1       1.765  -2.718  -1.640  0.00  0.00    +0.123 A 
ATOM     15  C   UNL     1       1.151  -3.477  -0.654  0.00  0.00    +0.048 A 
ATOM     16  C   UNL     1       0.968  -4.833  -0.843  0.00  0.00    +0.032 A 
ATOM     17  C   UNL     1       1.395  -5.434  -2.013  0.00  0.00    +0.106 A 
ATOM     18  C   UNL     1       2.008  -4.680  -2.996  0.00  0.00    +0.035 A 
ATOM     19  C   UNL     1       2.189  -3.322  -2.815  0.00  0.00    -0.007 A 
ATOM     20  C   UNL     1       2.851  -2.500  -3.890  0.00  0.00    +0.047 C 
BRANCH  14  21
ATOM     21  O   UNL     1       1.947  -1.384  -1.458  0.00  0.00    -0.492 OA
BRANCH  21  23
ATOM     22  C   UNL     1       1.774   0.673  -0.200  0.00  0.00    +0.048 C 
ATOM     23  C   UNL     1       1.486  -0.829  -0.224  0.00  0.00    +0.225 C 
ENDBRANCH  21  23
ENDBRANCH  14  21
ENDBRANCH  11  17
ENDBRANCH   1  11
BRANCH   7  24
ATOM     24  S   UNL     1      -2.972  -5.995  -4.141  0.00  0.00    +0.063 S 
ATOM     25  O   UNL     1      -4.116  -5.441  -3.505  0.00  0.00    -0.153 OA
ATOM     26  O   UNL     1      -1.683  -5.972  -3.545  0.00  0.00    -0.153 OA
BRANCH  24  27
ATOM     27  C   UNL     1      -2.821  -5.186  -5.699  0.00  0.00    +0.106 A 
ATOM     28  C   UNL     1      -1.571  -4.985  -6.254  0.00  0.00    +0.031 A 
ATOM     29  C   UNL     1      -1.451  -4.351  -7.476  0.00  0.00    +0.040 A 
ATOM     30  C   UNL     1      -2.584  -3.917  -8.144  0.00  0.00    +0.126 A 
ATOM     31  C   UNL     1      -3.835  -4.118  -7.587  0.00  0.00    -0.013 A 
ATOM     32  C   UNL     1      -3.953  -4.758  -6.367  0.00  0.00    +0.034 A 
ATOM     33  C   UNL     1      -5.069  -3.646  -8.313  0.00  0.00    +0.047 C 
ATOM     34  F   UNL     1      -2.468  -3.296  -9.339  0.00  0.00    -0.205 F 
ENDBRANCH  24  27
ENDBRANCH   7  24
TORSDOF 6
