REMARK  Name = ZINC06190692
REMARK  11 active torsions:
REMARK  status: ('A' for Active; 'I' for Inactive)
REMARK    1  A    between atoms: C_1  and  C_2
REMARK    2  A    between atoms: C_2  and  C_3
REMARK    3  A    between atoms: C_2  and  C_4
REMARK    4  A    between atoms: C_4  and  C_6
REMARK    5  A    between atoms: C_4  and  N_22
REMARK    6  A    between atoms: N_8  and  N_9
REMARK    7  A    between atoms: C_10  and  C_11
REMARK    8  A    between atoms: C_20  and  O_21
REMARK    9  A    between atoms: C_23  and  C_25
REMARK   10  A    between atoms: C_25  and  C_26
REMARK   11  A    between atoms: C_25  and  C_32
REMARK                            x       y       z     vdW  Elec       q    Type
REMARK                         _______ _______ _______ _____ _____    ______ ____
ROOT
ATOM      1  C   UNL     1      -0.549   0.111   0.867  0.00  0.00    +0.163 C 
ENDROOT
BRANCH   1   2
ATOM      2  C   UNL     1      -0.794   1.561   1.201  0.00  0.00    +0.253 C 
ATOM      3  O   UNL     1      -1.877   1.912   1.619  0.00  0.00    -0.272 OA
ATOM      4  N   UNL     1       0.189   2.467   1.028  0.00  0.00    -0.205 N 
ATOM      5  H   UNL     1       1.028   2.201   0.623  0.00  0.00    +0.177 HD
BRANCH   4   6
ATOM      6  N   UNL     1      -0.003   3.794   1.435  0.00  0.00    -0.188 NA
ATOM      7  C   UNL     1       0.944   4.668   1.268  0.00  0.00    +0.142 C 
BRANCH   7   8
ATOM      8  C   UNL     1       0.743   6.060   1.694  0.00  0.00    +0.044 A 
ATOM      9  C   UNL     1       1.797   7.056   1.515  0.00  0.00    -0.006 A 
ATOM     10  C   UNL     1       3.027   6.721   0.935  0.00  0.00    +0.009 A 
ATOM     11  C   UNL     1       3.984   7.680   0.785  0.00  0.00    +0.001 A 
ATOM     12  C   UNL     1       3.756   8.990   1.201  0.00  0.00    +0.001 A 
ATOM     13  C   UNL     1       2.572   9.349   1.769  0.00  0.00    +0.008 A 
ATOM     14  C   UNL     1       1.562   8.387   1.939  0.00  0.00    -0.017 A 
ATOM     15  C   UNL     1       0.327   8.720   2.521  0.00  0.00    +0.012 A 
ATOM     16  C   UNL     1      -0.643   7.782   2.680  0.00  0.00    +0.046 A 
ATOM     17  C   UNL     1      -0.461   6.461   2.274  0.00  0.00    +0.126 A 
BRANCH  17  18
ATOM     18  O   UNL     1      -1.460   5.558   2.448  0.00  0.00    -0.506 OA
ATOM     19  H   UNL     1      -1.430   5.097   3.298  0.00  0.00    +0.292 HD
ENDBRANCH  17  18
ENDBRANCH   7   8
ENDBRANCH   4   6
ENDBRANCH   1   2
BRANCH   1  20
ATOM     20  N   UNL     1      -1.829  -0.555   0.615  0.00  0.00    -0.303 N 
ATOM     21  C   UNL     1      -1.875  -1.654  -0.164  0.00  0.00    +0.225 C 
ATOM     22  O   UNL     1      -0.856  -2.092  -0.655  0.00  0.00    -0.275 OA
ATOM     23  H   UNL     1      -2.644  -0.204   1.007  0.00  0.00    +0.149 HD
BRANCH  21  24
ATOM     24  C   UNL     1      -3.192  -2.339  -0.423  0.00  0.00    +0.135 C 
BRANCH  24  25
ATOM     25  C   UNL     1      -4.134  -1.376  -1.098  0.00  0.00    -0.031 A 
ATOM     26  C   UNL     1      -3.719  -0.667  -2.210  0.00  0.00    +0.005 A 
ATOM     27  C   UNL     1      -4.586   0.212  -2.832  0.00  0.00    +0.000 A 
ATOM     28  C   UNL     1      -5.864   0.391  -2.336  0.00  0.00    +0.000 A 
ATOM     29  C   UNL     1      -6.277  -0.314  -1.220  0.00  0.00    +0.000 A 
ATOM     30  C   UNL     1      -5.412  -1.198  -0.602  0.00  0.00    +0.005 A 
ENDBRANCH  24  25
BRANCH  24  31
ATOM     31  C   UNL     1      -2.969  -3.533  -1.316  0.00  0.00    -0.031 A 
ATOM     32  C   UNL     1      -2.313  -3.381  -2.523  0.00  0.00    +0.005 A 
ATOM     33  C   UNL     1      -2.104  -4.477  -3.339  0.00  0.00    +0.000 A 
ATOM     34  C   UNL     1      -2.562  -5.723  -2.953  0.00  0.00    +0.000 A 
ATOM     35  C   UNL     1      -3.223  -5.874  -1.749  0.00  0.00    +0.000 A 
ATOM     36  C   UNL     1      -3.426  -4.779  -0.930  0.00  0.00    +0.005 A 
ENDBRANCH  24  31
ENDBRANCH  21  24
ENDBRANCH   1  20
BRANCH   1  38
ATOM     37  C   UNL     1      -0.764  -0.565   3.263  0.00  0.00    +0.009 C 
ATOM     38  C   UNL     1       0.157  -0.570   2.041  0.00  0.00    +0.012 C 
ATOM     39  C   UNL     1       0.497  -2.013   1.664  0.00  0.00    +0.009 C 
ENDBRANCH   1  38
TORSDOF 9
