REMARK  Name = ZINC39654247
REMARK  7 active torsions:
REMARK  status: ('A' for Active; 'I' for Inactive)
REMARK    1  A    between atoms: C_1  and  C_2
REMARK    2  A    between atoms: C_2  and  C_3
REMARK    3  A    between atoms: C_6  and  C_9
REMARK    4  A    between atoms: C_9  and  C_10
REMARK    5  A    between atoms: C_10  and  N_11
REMARK    6  A    between atoms: C_12  and  C_14
REMARK    7  A    between atoms: C_25  and  C_27
REMARK                            x       y       z     vdW  Elec       q    Type
REMARK                         _______ _______ _______ _____ _____    ______ ____
ROOT
ATOM      1  C   UNL     1       5.446  -1.269   9.248  0.00  0.00    +0.100 C 
ATOM      2  C   UNL     1       6.611  -1.991   8.535  0.00  0.00    +0.121 C 
ATOM      3  N   UNL     1       7.711  -0.998   8.516  0.00  0.00    -0.296 N 
ATOM      4  C   UNL     1       7.629  -0.332   9.838  0.00  0.00    +0.115 C 
ATOM      5  C   UNL     1       6.118  -0.183  10.105  0.00  0.00    -0.004 C 
ATOM      6  C   UNL     1       5.818  -0.414  11.582  0.00  0.00    -0.010 C 
ATOM      7  C   UNL     1       6.448   0.710  12.409  0.00  0.00    -0.082 C 
ATOM      8  N   UNL     1       5.904   2.003  11.975  0.00  0.00    +0.379 N 
ATOM      9  C   UNL     1       6.278   2.259  10.579  0.00  0.00    -0.082 C 
ATOM     10  C   UNL     1       5.641   1.200   9.675  0.00  0.00    -0.010 C 
ATOM     11  C   UNL     1       8.587  -0.755   7.521  0.00  0.00    +0.247 C 
ATOM     12  O   UNL     1       8.449  -1.299   6.443  0.00  0.00    -0.270 OA
ATOM     13  H   UNL     1       4.899   1.987  12.055  0.00  0.00    -0.086 HD
ATOM     14  H   UNL     1       6.275   2.736  12.561  0.00  0.00    -0.086 HD
ENDROOT
BRANCH  11  15
ATOM     15  C   UNL     1       9.716   0.173   7.741  0.00  0.00    +0.037 A 
ATOM     16  C   UNL     1      10.153   0.443   9.050  0.00  0.00    +0.013 A 
ATOM     17  C   UNL     1      11.188   1.291   9.278  0.00  0.00    +0.009 A 
ATOM     18  C   UNL     1      11.838   1.914   8.197  0.00  0.00    -0.018 A 
ATOM     19  C   UNL     1      12.911   2.796   8.408  0.00  0.00    +0.008 A 
ATOM     20  C   UNL     1      13.521   3.384   7.342  0.00  0.00    +0.001 A 
ATOM     21  C   UNL     1      13.097   3.126   6.040  0.00  0.00    +0.001 A 
ATOM     22  C   UNL     1      12.061   2.278   5.796  0.00  0.00    +0.008 A 
ATOM     23  C   UNL     1      11.406   1.651   6.872  0.00  0.00    -0.017 A 
ATOM     24  C   UNL     1      10.339   0.766   6.656  0.00  0.00    +0.021 A 
ENDBRANCH  11  15
BRANCH   1  26
ATOM     25  N   UNL     1       3.236  -0.396   8.561  0.00  0.00    -0.315 N 
ATOM     26  C   UNL     1       4.521  -0.641   8.237  0.00  0.00    +0.218 C 
ATOM     27  O   UNL     1       4.932  -0.358   7.132  0.00  0.00    -0.275 OA
ATOM     28  H   UNL     1       2.906  -0.622   9.445  0.00  0.00    +0.149 HD
BRANCH  25  29
ATOM     29  C   UNL     1       2.336   0.214   7.579  0.00  0.00    +0.109 C 
BRANCH  29  30
ATOM     30  C   UNL     1       0.947   0.384   8.195  0.00  0.00    +0.054 C 
BRANCH  30  34
ATOM     31  C   UNL     1      -1.677   2.162   5.332  0.00  0.00    -0.048 A 
ATOM     32  C   UNL     1      -1.560   0.787   5.401  0.00  0.00    +0.004 A 
ATOM     33  C   UNL     1      -0.710   0.211   6.327  0.00  0.00    +0.004 A 
ATOM     34  C   UNL     1       0.021   1.011   7.185  0.00  0.00    -0.046 A 
ATOM     35  C   UNL     1      -0.096   2.387   7.115  0.00  0.00    +0.004 A 
ATOM     36  C   UNL     1      -0.942   2.963   6.186  0.00  0.00    +0.004 A 
BRANCH  31  38
ATOM     37  C   UNL     1      -1.842   3.040   3.018  0.00  0.00    +0.009 C 
ATOM     38  C   UNL     1      -2.603   2.790   4.322  0.00  0.00    +0.032 C 
ENDBRANCH  31  38
ENDBRANCH  30  34
ENDBRANCH  29  30
ENDBRANCH  25  29
ENDBRANCH   1  26
TORSDOF 6
