REMARK  Name = ZINC45079645
REMARK  5 active torsions:
REMARK  status: ('A' for Active; 'I' for Inactive)
REMARK    1  A    between atoms: C_1  and  C_2
REMARK    2  A    between atoms: C_12  and  C_14
REMARK    3  A    between atoms: C_16  and  C_20
REMARK    4  A    between atoms: C_20  and  C_21
REMARK    5  A    between atoms: C_20  and  C_22
REMARK                            x       y       z     vdW  Elec       q    Type
REMARK                         _______ _______ _______ _____ _____    ______ ____
ROOT
ATOM      1  C   UNL     1       0.017   1.523  -0.022  0.00  0.00    +0.033 C 
ATOM      2  C   UNL     1      -0.009  -0.007   0.013  0.00  0.00    +0.104 C 
ATOM      3  C   UNL     1      -1.446  -0.496   0.183  0.00  0.00    -0.017 A 
ATOM      4  C   UNL     1      -2.513  -0.012  -0.573  0.00  0.00    +0.013 A 
ATOM      5  C   UNL     1      -3.760  -0.495  -0.370  0.00  0.00    +0.046 A 
ATOM      6  S   UNL     1      -3.486  -1.686   0.933  0.00  0.00    -0.101 S 
ATOM      7  C   UNL     1      -1.737  -1.450   1.109  0.00  0.00    -0.004 A 
ATOM      8  C   UNL     1      -0.799  -2.130   2.052  0.00  0.00    +0.062 C 
ATOM      9  C   UNL     1       0.641  -1.898   1.568  0.00  0.00    +0.114 C 
ATOM     10  N   UNL     1       0.771  -0.492   1.159  0.00  0.00    -0.289 N 
ATOM     11  C   UNL     1       1.593   0.341   1.828  0.00  0.00    +0.267 C 
ATOM     12  O   UNL     1       1.612   1.526   1.554  0.00  0.00    -0.268 OA
ENDROOT
BRANCH  11  13
ATOM     13  C   UNL     1       2.470  -0.185   2.893  0.00  0.00    +0.147 A 
ATOM     14  C   UNL     1       3.278   0.576   3.771  0.00  0.00    +0.057 A 
ATOM     15  C   UNL     1       3.897  -0.327   4.567  0.00  0.00    +0.039 A 
ATOM     16  N   UNL     1       3.480  -1.552   4.182  0.00  0.00    -0.281 N 
ATOM     17  H   UNL     1       3.765  -2.387   4.585  0.00  0.00    +0.189 HD
ATOM     18  N   UNL     1       2.645  -1.452   3.211  0.00  0.00    -0.169 NA
BRANCH  15  19
ATOM     19  C   UNL     1       4.872  -0.022   5.676  0.00  0.00    +0.031 C 
ATOM     20  C   UNL     1       4.683  -1.029   6.812  0.00  0.00    +0.014 C 
ATOM     21  C   UNL     1       6.301  -0.119   5.139  0.00  0.00    +0.014 C 
ENDBRANCH  15  19
ENDBRANCH  11  13
TORSDOF 2
