REMARK  Name = ZINC21609706
REMARK  7 active torsions:
REMARK  status: ('A' for Active; 'I' for Inactive)
REMARK    1  A    between atoms: C_1  and  C_2
REMARK    2  A    between atoms: C_5  and  C_8
REMARK    3  A    between atoms: C_11  and  S_14
REMARK    4  A    between atoms: S_14  and  C_15
REMARK    5  A    between atoms: C_15  and  C_16
REMARK    6  A    between atoms: C_18  and  O_19
REMARK    7  A    between atoms: C_28  and  C_30
REMARK                            x       y       z     vdW  Elec       q    Type
REMARK                         _______ _______ _______ _____ _____    ______ ____
ROOT
ATOM      1  C   UNL     1      -0.848  -6.301   0.341  0.00  0.00    -0.020 A 
ATOM      2  C   UNL     1      -2.014  -6.998   0.339  0.00  0.00    +0.092 A 
ATOM      3  C   UNL     1      -3.242  -6.309   0.254  0.00  0.00    +0.285 A 
ATOM      4  O   UNL     1      -3.295  -4.970   0.176  0.00  0.00    -0.425 OA
ATOM      5  C   UNL     1      -2.173  -4.219   0.173  0.00  0.00    +0.141 A 
ATOM      6  C   UNL     1      -0.913  -4.841   0.254  0.00  0.00    +0.022 A 
ATOM      7  C   UNL     1       0.252  -4.067   0.252  0.00  0.00    +0.013 A 
ATOM      8  C   UNL     1       0.164  -2.708   0.166  0.00  0.00    +0.024 A 
ATOM      9  C   UNL     1      -1.081  -2.085   0.091  0.00  0.00    +0.037 A 
ATOM     10  C   UNL     1      -2.247  -2.837   0.092  0.00  0.00    +0.070 A 
ATOM     11  N   UNL     1      -1.156  -0.694   0.009  0.00  0.00    -0.286 N 
ATOM     12  C   UNL     1      -2.168  -0.037   0.609  0.00  0.00    +0.214 C 
ATOM     13  O   UNL     1      -3.058  -0.658   1.150  0.00  0.00    -0.276 OA
ATOM     14  C   UNL     1      -2.193   1.470   0.609  0.00  0.00    +0.109 C 
ATOM     15  H   UNL     1      -0.388  -0.134  -0.545  0.00  0.00    +0.155 HD
ENDROOT
BRANCH   3  16
ATOM     16  O   UNL     1      -4.280  -6.946   0.253  0.00  0.00    -0.480 OA
ATOM     17  H   UNL     1      -5.246  -6.423   0.188  0.00  0.00    +0.295 HD
ENDBRANCH   3  16
BRANCH   1  18
ATOM     18  C   UNL     1       0.478  -7.013   0.429  0.00  0.00    +0.113 C 
BRANCH  18  19
ATOM     19  S   UNL     1       1.070  -7.395  -1.238  0.00  0.00    -0.082 S 
BRANCH  19  23
ATOM     20  C   UNL     1       4.506  -9.237  -0.977  0.00  0.00    +0.182 A 
ATOM     21  N   UNL     1       3.482  -8.720  -1.738  0.00  0.00    -0.201 NA
ATOM     22  H   UNL     1       2.656  -8.144   1.341  0.00  0.00    +0.191 HD
ATOM     23  C   UNL     1       2.589  -8.198  -0.846  0.00  0.00    +0.185 A 
ATOM     24  N   UNL     1       3.072  -8.408   0.358  0.00  0.00    -0.253 N 
ATOM     25  N   UNL     1       4.202  -9.015   0.280  0.00  0.00    -0.152 NA
BRANCH  20  30
ATOM     26  C   UNL     1       9.230 -11.873  -2.941  0.00  0.00    +0.044 C 
ATOM     27  C   UNL     1       7.993 -11.182  -2.427  0.00  0.00    -0.050 A 
ATOM     28  C   UNL     1       7.806 -11.029  -1.064  0.00  0.00    +0.004 A 
ATOM     29  C   UNL     1       6.675 -10.398  -0.587  0.00  0.00    +0.012 A 
ATOM     30  C   UNL     1       5.720  -9.913  -1.482  0.00  0.00    +0.021 A 
ATOM     31  C   UNL     1       5.913 -10.075  -2.855  0.00  0.00    +0.012 A 
ATOM     32  C   UNL     1       7.050 -10.704  -3.319  0.00  0.00    +0.004 A 
ENDBRANCH  20  30
ENDBRANCH  19  23
ENDBRANCH  18  19
ENDBRANCH   1  18
TORSDOF 5
