REMARK  Name = ZINC16958049
REMARK  7 active torsions:
REMARK  status: ('A' for Active; 'I' for Inactive)
REMARK    1  A    between atoms: C_1  and  C_2
REMARK    2  A    between atoms: C_2  and  C_4
REMARK    3  A    between atoms: C_2  and  C_15
REMARK    4  A    between atoms: C_15  and  C_24
REMARK    5  A    between atoms: N_16  and  N_17
REMARK    6  A    between atoms: N_17  and  C_18
REMARK    7  A    between atoms: C_27  and  O_30
REMARK                            x       y       z     vdW  Elec       q    Type
REMARK                         _______ _______ _______ _____ _____    ______ ____
ROOT
ATOM      1  C   UNL     1      -2.525   1.017   0.253  0.00  0.00    +0.070 C 
ATOM      2  N   UNL     1      -2.524  -0.274   0.387  0.00  0.00    -0.186 NA
ENDROOT
BRANCH   1   3
ATOM      3  C   UNL     1      -1.280   1.780   0.454  0.00  0.00    -0.002 A 
ATOM      4  C   UNL     1      -0.364   1.382   1.431  0.00  0.00    +0.013 A 
ATOM      5  C   UNL     1       0.801   2.095   1.611  0.00  0.00    +0.046 A 
ATOM      6  C   UNL     1       1.063   3.212   0.828  0.00  0.00    +0.117 A 
ATOM      7  C   UNL     1       0.153   3.615  -0.141  0.00  0.00    +0.046 A 
ATOM      8  C   UNL     1      -1.015   2.907  -0.329  0.00  0.00    +0.013 A 
BRANCH   6   9
ATOM      9  O   UNL     1       2.214   3.912   1.009  0.00  0.00    -0.507 OA
ATOM     10  H   UNL     1       2.952   3.602   0.467  0.00  0.00    +0.292 HD
ENDBRANCH   6   9
ENDBRANCH   1   3
BRANCH   1  12
ATOM     11  C   UNL     1      -4.216   2.648   1.047  0.00  0.00    +0.015 C 
ATOM     12  C   UNL     1      -3.800   1.736  -0.108  0.00  0.00    +0.055 C 
BRANCH  12  13
ATOM     13  C   UNL     1      -4.905   0.712  -0.373  0.00  0.00    +0.140 C 
ATOM     14  C   UNL     1      -6.195   1.405  -0.752  0.00  0.00    +0.009 A 
ATOM     15  C   UNL     1      -7.013   2.292  -0.090  0.00  0.00    +0.008 A 
ATOM     16  C   UNL     1      -8.157   2.767  -0.708  0.00  0.00    +0.001 A 
ATOM     17  C   UNL     1      -8.471   2.347  -1.987  0.00  0.00    +0.004 A 
ATOM     18  C   UNL     1      -7.652   1.457  -2.651  0.00  0.00    +0.046 A 
ATOM     19  C   UNL     1      -6.498   0.974  -2.037  0.00  0.00    +0.136 A 
ATOM     20  O   UNL     1      -5.559   0.108  -2.487  0.00  0.00    -0.425 OA
ATOM     21  C   UNL     1      -4.583  -0.118  -1.600  0.00  0.00    +0.321 C 
ATOM     22  O   UNL     1      -3.628  -0.844  -1.748  0.00  0.00    -0.250 OA
ENDBRANCH  12  13
ENDBRANCH   1  12
BRANCH   2  23
ATOM     23  N   UNL     1      -1.317  -0.956   0.587  0.00  0.00    -0.238 N 
ATOM     24  H   UNL     1      -0.475  -0.475   0.547  0.00  0.00    +0.174 HD
BRANCH  23  25
ATOM     25  C   UNL     1      -1.325  -2.328   0.845  0.00  0.00    +0.048 A 
ATOM     26  C   UNL     1      -2.530  -3.017   0.909  0.00  0.00    +0.025 A 
ATOM     27  C   UNL     1      -2.533  -4.375   1.160  0.00  0.00    +0.002 A 
ATOM     28  C   UNL     1      -1.341  -5.047   1.357  0.00  0.00    +0.000 A 
ATOM     29  C   UNL     1      -0.140  -4.363   1.300  0.00  0.00    +0.002 A 
ATOM     30  C   UNL     1      -0.128  -3.006   1.045  0.00  0.00    +0.025 A 
ENDBRANCH  23  25
ENDBRANCH   2  23
TORSDOF 6
