REMARK  Name = ZINC06149289
REMARK  12 active torsions:
REMARK  status: ('A' for Active; 'I' for Inactive)
REMARK    1  A    between atoms: C_1  and  C_2
REMARK    2  A    between atoms: C_2  and  C_3
REMARK    3  A    between atoms: C_3  and  C_4
REMARK    4  A    between atoms: C_3  and  C_5
REMARK    5  A    between atoms: C_3  and  N_6
REMARK    6  A    between atoms: C_7  and  C_11
REMARK    7  A    between atoms: C_11  and  C_13
REMARK    8  A    between atoms: C_11  and  N_66
REMARK    9  A    between atoms: C_18  and  O_25
REMARK   10  A    between atoms: O_25  and  C_26
REMARK   11  A    between atoms: C_27  and  N_66
REMARK   12  A    between atoms: C_28  and  N_66
REMARK                            x       y       z     vdW  Elec       q    Type
REMARK                         _______ _______ _______ _____ _____    ______ ____
ROOT
ATOM      1  C   UNL     1       1.881   0.307   8.284  0.00  0.00    +0.039 C 
ENDROOT
BRANCH   1   2
ATOM      2  C   UNL     1       1.398   0.875   6.974  0.00  0.00    +0.011 A 
ATOM      3  C   UNL     1       2.192   0.808   5.875  0.00  0.00    +0.017 A 
ATOM      4  C   UNL     1       1.694   1.369   4.619  0.00  0.00    -0.001 A 
ATOM      5  C   UNL     1       2.469   1.330   3.453  0.00  0.00    +0.013 A 
ATOM      6  C   UNL     1       1.977   1.857   2.295  0.00  0.00    +0.046 A 
ATOM      7  C   UNL     1       0.713   2.445   2.265  0.00  0.00    +0.122 A 
ATOM      8  C   UNL     1      -0.068   2.494   3.407  0.00  0.00    +0.072 A 
ATOM      9  C   UNL     1       0.414   1.957   4.594  0.00  0.00    +0.053 A 
ATOM     10  N   UNL     1      -0.342   1.993   5.747  0.00  0.00    -0.322 N 
ATOM     11  H   UNL     1      -1.250   2.411   5.727  0.00  0.00    +0.169 HD
ATOM     12  C   UNL     1       0.124   1.474   6.896  0.00  0.00    +0.251 A 
ATOM     13  O   UNL     1      -0.572   1.523   7.895  0.00  0.00    -0.268 OA
BRANCH   7  14
ATOM     14  O   UNL     1       0.242   2.969   1.105  0.00  0.00    -0.495 OA
ATOM     15  C   UNL     1       1.096   2.888  -0.038  0.00  0.00    +0.277 C 
ENDBRANCH   7  14
ENDBRANCH   1   2
BRANCH   1  17
ATOM     16  N   UNL     1       1.340  -2.162   8.627  0.00  0.00    -0.225 N 
ATOM     17  C   UNL     1       1.010  -0.858   8.678  0.00  0.00    +0.143 A 
ATOM     18  N   UNL     1      -0.218  -0.798   9.131  0.00  0.00    -0.115 NA
ATOM     19  N   UNL     1      -0.620  -2.002   9.352  0.00  0.00    -0.023 NA
ATOM     20  N   UNL     1       0.320  -2.829   9.052  0.00  0.00    -0.043 NA
BRANCH  16  21
ATOM     21  C   UNL     1       2.618  -2.719   8.177  0.00  0.00    +0.061 C 
ATOM     22  C   UNL     1       2.932  -2.204   6.770  0.00  0.00    +0.036 C 
ATOM     23  C   UNL     1       3.728  -2.289   9.137  0.00  0.00    +0.036 C 
BRANCH  21  25
ATOM     24  C   UNL     1       3.863  -4.828   7.682  0.00  0.00    +0.006 C 
ATOM     25  C   UNL     1       2.528  -4.246   8.152  0.00  0.00    +0.026 C 
ENDBRANCH  21  25
ENDBRANCH  16  21
ENDBRANCH   1  17
BRANCH   1  27
ATOM     26  C   UNL     1       2.334   2.623   8.825  0.00  0.00    -0.094 C 
ATOM     27  N   UNL     1       1.784   1.347   9.329  0.00  0.00    +0.389 N 
ATOM     28  H   UNL     1       0.797   1.483   9.574  0.00  0.00    -0.080 HD
BRANCH  27  29
ATOM     29  C   UNL     1       2.524   0.921  10.536  0.00  0.00    -0.068 C 
ATOM     30  C   UNL     1       2.149   1.847  11.695  0.00  0.00    -0.015 C 
ATOM     31  C   UNL     1       2.890   1.406  12.959  0.00  0.00    -0.002 C 
ATOM     32  C   UNL     1       4.399   1.477  12.717  0.00  0.00    -0.000 C 
ATOM     33  C   UNL     1       4.774   0.551  11.558  0.00  0.00    -0.002 C 
ATOM     34  C   UNL     1       4.033   0.992  10.293  0.00  0.00    -0.015 C 
ENDBRANCH  27  29
ENDBRANCH   1  27
TORSDOF 7
