REMARK  Name = ZINC08986726
REMARK  6 active torsions:
REMARK  status: ('A' for Active; 'I' for Inactive)
REMARK    1  A    between atoms: C_1  and  C_2
REMARK    2  A    between atoms: C_2  and  O_3
REMARK    3  A    between atoms: O_3  and  C_4
REMARK    4  A    between atoms: C_4  and  C_6
REMARK    5  A    between atoms: C_7  and  C_21
REMARK    6  A    between atoms: C_8  and  C_14
REMARK                            x       y       z     vdW  Elec       q    Type
REMARK                         _______ _______ _______ _____ _____    ______ ____
ROOT
ATOM      1  C   UNL     1       1.194  -0.594  -0.242  0.00  0.00    +0.119 C 
ATOM      2  C   UNL     1       0.011  -0.019   0.010  0.00  0.00    -0.020 C 
ATOM      3  C   UNL     1      -0.010   1.472   0.277  0.00  0.00    +0.130 C 
ATOM      4  N   UNL     1       1.278   2.182   0.240  0.00  0.00    -0.316 N 
ATOM      5  C   UNL     1       2.396   1.480  -0.027  0.00  0.00    +0.135 C 
ATOM      6  S   UNL     1       3.899   2.298  -0.073  0.00  0.00    -0.019 S 
ATOM      7  N   UNL     1       2.368   0.160  -0.257  0.00  0.00    -0.291 N 
ATOM      8  C   UNL     1      -1.258  -0.830   0.027  0.00  0.00    +0.043 C 
ATOM      9  H   UNL     1       1.321   3.137   0.404  0.00  0.00    +0.149 HD
ATOM     10  H   UNL     1       3.205  -0.293  -0.443  0.00  0.00    +0.154 HD
ENDROOT
BRANCH   3  11
ATOM     11  C   UNL     1      -0.921   2.111  -0.740  0.00  0.00    -0.023 A 
ATOM     12  C   UNL     1      -0.458   2.366  -2.017  0.00  0.00    +0.007 A 
ATOM     13  C   UNL     1      -1.294   2.947  -2.952  0.00  0.00    +0.020 A 
ATOM     14  C   UNL     1      -2.591   3.284  -2.606  0.00  0.00    +0.041 A 
ATOM     15  C   UNL     1      -3.052   3.033  -1.325  0.00  0.00    +0.020 A 
ATOM     16  C   UNL     1      -2.216   2.446  -0.393  0.00  0.00    +0.007 A 
ATOM     17 CL   UNL     1      -3.640   4.020  -3.777  0.00  0.00    -0.084 Cl
ENDBRANCH   3  11
BRANCH   1  18
ATOM     18  C   UNL     1       1.256  -2.042  -0.506  0.00  0.00    +0.353 C 
ATOM     19  O   UNL     1       0.231  -2.685  -0.615  0.00  0.00    -0.244 OA
BRANCH  18  20
ATOM     20  O   UNL     1       2.451  -2.654  -0.628  0.00  0.00    -0.461 OA
BRANCH  20  22
ATOM     21  C   UNL     1       3.874  -4.596  -0.995  0.00  0.00    +0.048 C 
ATOM     22  C   UNL     1       2.437  -4.082  -0.889  0.00  0.00    +0.229 C 
ENDBRANCH  20  22
ENDBRANCH  18  20
ENDBRANCH   1  18
TORSDOF 4
