REMARK  Name = ZINC39976435
REMARK  13 active torsions:
REMARK  status: ('A' for Active; 'I' for Inactive)
REMARK    1  A    between atoms: C_1  and  C_2
REMARK    2  A    between atoms: C_2  and  C_3
REMARK    3  A    between atoms: C_2  and  C_4
REMARK    4  A    between atoms: C_2  and  C_5
REMARK    5  A    between atoms: C_7  and  N_16
REMARK    6  A    between atoms: C_9  and  C_12
REMARK    7  A    between atoms: C_10  and  O_11
REMARK    8  A    between atoms: C_12  and  C_13
REMARK    9  A    between atoms: C_12  and  C_14
REMARK   10  A    between atoms: C_12  and  C_15
REMARK   11  A    between atoms: N_16  and  C_17
REMARK   12  A    between atoms: N_20  and  S_21
REMARK   13  A    between atoms: S_21  and  C_24
REMARK                            x       y       z     vdW  Elec       q    Type
REMARK                         _______ _______ _______ _____ _____    ______ ____
ROOT
ATOM      1  C   UNL     1       3.162   0.423  -5.353  0.00  0.00    +0.237 C 
ATOM      2  C   UNL     1       4.484   1.157  -5.343  0.00  0.00    +0.192 C 
ATOM      3  N   UNL     1       5.272   1.083  -4.311  0.00  0.00    -0.110 NA
ATOM      4  N   UNL     1       4.834   1.885  -6.415  0.00  0.00    -0.226 NA
ATOM      5  C   UNL     1       4.054   1.975  -7.472  0.00  0.00    +0.089 A 
ATOM      6  C   UNL     1       4.455   2.754  -8.588  0.00  0.00    +0.030 A 
ATOM      7  C   UNL     1       3.659   2.850  -9.675  0.00  0.00    +0.002 A 
ATOM      8  C   UNL     1       2.416   2.203  -9.766  0.00  0.00    +0.002 A 
ATOM      9  C   UNL     1       1.938   1.437  -8.761  0.00  0.00    +0.027 A 
ATOM     10  C   UNL     1       2.745   1.280  -7.542  0.00  0.00    +0.063 A 
ATOM     11  N   UNL     1       2.317   0.548  -6.551  0.00  0.00    -0.359 N 
ATOM     12  H   UNL     1       1.461   0.096  -6.604  0.00  0.00    +0.162 HD
ENDROOT
BRANCH   3  13
ATOM     13  S   UNL     1       6.717   1.890  -4.312  0.00  0.00    +0.100 S 
ATOM     14  O   UNL     1       7.521   1.283  -5.314  0.00  0.00    -0.146 OA
ATOM     15  O   UNL     1       6.407   3.277  -4.321  0.00  0.00    -0.146 OA
BRANCH  13  16
ATOM     16  C   UNL     1       7.501   1.560  -2.769  0.00  0.00    +0.113 A 
ATOM     17  C   UNL     1       7.268   2.385  -1.685  0.00  0.00    +0.029 A 
ATOM     18  C   UNL     1       7.883   2.126  -0.474  0.00  0.00    +0.002 A 
ATOM     19  C   UNL     1       8.729   1.040  -0.347  0.00  0.00    +0.000 A 
ATOM     20  C   UNL     1       8.961   0.214  -1.431  0.00  0.00    +0.002 A 
ATOM     21  C   UNL     1       8.343   0.471  -2.641  0.00  0.00    +0.029 A 
ENDBRANCH  13  16
ENDBRANCH   3  13
BRANCH   1  22
ATOM     22  N   UNL     1       2.382   0.892  -4.205  0.00  0.00    -0.318 N 
ATOM     23  H   UNL     1       2.253   1.843  -4.062  0.00  0.00    +0.148 HD
BRANCH  22  26
ATOM     24  C   UNL     1       0.676  -0.503  -1.262  0.00  0.00    +0.001 A 
ATOM     25  C   UNL     1       1.228   0.409  -2.140  0.00  0.00    +0.030 A 
ATOM     26  C   UNL     1       1.823  -0.031  -3.315  0.00  0.00    +0.030 A 
ATOM     27  C   UNL     1       1.862  -1.388  -3.606  0.00  0.00    +0.030 A 
ATOM     28  C   UNL     1       1.309  -2.299  -2.727  0.00  0.00    +0.001 A 
ATOM     29  C   UNL     1       0.721  -1.859  -1.551  0.00  0.00    +0.124 A 
BRANCH  24  31
ATOM     30  C   UNL     1       0.116   1.500   0.088  0.00  0.00    +0.015 C 
ATOM     31  C   UNL     1       0.031  -0.026   0.014  0.00  0.00    -0.009 C 
ATOM     32  C   UNL     1       0.759  -0.636   1.213  0.00  0.00    +0.015 C 
ATOM     33  C   UNL     1      -1.437  -0.457   0.035  0.00  0.00    +0.015 C 
ENDBRANCH  24  31
BRANCH  28  34
ATOM     34  C   UNL     1       1.351  -3.772  -3.043  0.00  0.00    -0.009 C 
ATOM     35  C   UNL     1       2.055  -3.986  -4.385  0.00  0.00    +0.015 C 
ATOM     36  C   UNL     1       2.118  -4.508  -1.942  0.00  0.00    +0.015 C 
ATOM     37  C   UNL     1      -0.076  -4.317  -3.123  0.00  0.00    +0.015 C 
ENDBRANCH  28  34
BRANCH  29  38
ATOM     38  O   UNL     1       0.182  -2.757  -0.683  0.00  0.00    -0.506 OA
ATOM     39  H   UNL     1      -0.750  -2.953  -0.849  0.00  0.00    +0.292 HD
ENDBRANCH  29  38
ENDBRANCH  22  26
ENDBRANCH   1  22
TORSDOF 7
