REMARK  Name = ZINC30961269
REMARK  12 active torsions:
REMARK  status: ('A' for Active; 'I' for Inactive)
REMARK    1  A    between atoms: C_1  and  C_2
REMARK    2  A    between atoms: C_2  and  C_3
REMARK    3  A    between atoms: C_3  and  O_4
REMARK    4  A    between atoms: O_4  and  C_5
REMARK    5  A    between atoms: C_10  and  C_11
REMARK    6  A    between atoms: N_12  and  N_13
REMARK    7  A    between atoms: C_14  and  C_16
REMARK    8  A    between atoms: C_16  and  C_18
REMARK    9  A    between atoms: C_16  and  N_21
REMARK   10  A    between atoms: C_18  and  C_19
REMARK   11  A    between atoms: C_18  and  C_20
REMARK   12  A    between atoms: C_22  and  C_24
REMARK                            x       y       z     vdW  Elec       q    Type
REMARK                         _______ _______ _______ _____ _____    ______ ____
ROOT
ATOM      1  N   UNL     1       3.590  -2.080  -0.811  0.00  0.00    -0.205 N 
ATOM      2  C   UNL     1       4.808  -2.657  -0.791  0.00  0.00    +0.253 C 
ATOM      3  O   UNL     1       4.927  -3.832  -1.071  0.00  0.00    -0.272 OA
ATOM      4  H   UNL     1       3.467  -1.043  -0.465  0.00  0.00    +0.177 HD
ENDROOT
BRANCH   1   6
ATOM      5  C   UNL     1       1.335  -2.208  -1.416  0.00  0.00    +0.142 C 
ATOM      6  N   UNL     1       2.481  -2.800  -1.274  0.00  0.00    -0.188 NA
BRANCH   5  12
ATOM      7  C   UNL     1       0.101  -0.047  -1.273  0.00  0.00    +0.129 A 
ATOM      8  C   UNL     1       0.058   1.329  -1.429  0.00  0.00    +0.047 A 
ATOM      9  C   UNL     1       1.171   2.011  -1.885  0.00  0.00    +0.019 A 
ATOM     10  C   UNL     1       2.336   1.326  -2.188  0.00  0.00    +0.019 A 
ATOM     11  C   UNL     1       2.396  -0.044  -2.038  0.00  0.00    +0.028 A 
ATOM     12  C   UNL     1       1.278  -0.744  -1.579  0.00  0.00    +0.037 A 
ATOM     13 BR   UNL     1       3.853   2.274  -2.802  0.00  0.00    -0.050 Br
BRANCH   7  14
ATOM     14  O   UNL     1      -0.992  -0.717  -0.826  0.00  0.00    -0.491 OA
BRANCH  14  15
ATOM     15  C   UNL     1      -2.189   0.042  -0.647  0.00  0.00    +0.229 C 
BRANCH  15  17
ATOM     16  C   UNL     1      -4.641  -0.104  -0.188  0.00  0.00    +0.007 C 
ATOM     17  C   UNL     1      -3.334  -0.897  -0.260  0.00  0.00    +0.038 C 
ENDBRANCH  15  17
ENDBRANCH  14  15
ENDBRANCH   7  14
ENDBRANCH   5  12
ENDBRANCH   1   6
BRANCH   2  18
ATOM     18  C   UNL     1       6.021  -1.844  -0.420  0.00  0.00    +0.163 C 
BRANCH  18  19
ATOM     19  N   UNL     1       7.231  -2.541  -0.863  0.00  0.00    -0.300 N 
ATOM     20  C   UNL     1       8.274  -1.839  -1.347  0.00  0.00    +0.245 C 
ATOM     21  O   UNL     1       8.253  -0.624  -1.322  0.00  0.00    -0.270 OA
ATOM     22  H   UNL     1       7.287  -3.638  -0.801  0.00  0.00    +0.150 HD
BRANCH  20  23
ATOM     23  C   UNL     1       9.445  -2.546  -1.909  0.00  0.00    +0.038 A 
ATOM     24  C   UNL     1      10.527  -1.821  -2.411  0.00  0.00    +0.013 A 
ATOM     25  C   UNL     1      11.617  -2.486  -2.934  0.00  0.00    +0.002 A 
ATOM     26  C   UNL     1      11.639  -3.870  -2.961  0.00  0.00    +0.020 A 
ATOM     27  C   UNL     1      10.569  -4.595  -2.464  0.00  0.00    +0.042 A 
ATOM     28  C   UNL     1       9.475  -3.941  -1.934  0.00  0.00    +0.033 A 
ATOM     29 CL   UNL     1      10.607  -6.330  -2.501  0.00  0.00    -0.084 Cl
ENDBRANCH  20  23
ENDBRANCH  18  19
BRANCH  18  30
ATOM     30  C   UNL     1       6.067  -1.660   1.099  0.00  0.00    +0.012 C 
ATOM     31  C   UNL     1       7.271  -0.792   1.471  0.00  0.00    +0.009 C 
ATOM     32  C   UNL     1       4.781  -0.976   1.568  0.00  0.00    +0.009 C 
ENDBRANCH  18  30
ENDBRANCH   2  18
TORSDOF 9
