REMARK  Name = ZINC38903722
REMARK  13 active torsions:
REMARK  status: ('A' for Active; 'I' for Inactive)
REMARK    1  A    between atoms: C_1  and  C_2
REMARK    2  A    between atoms: C_2  and  C_4
REMARK    3  A    between atoms: C_2  and  C_15
REMARK    4  A    between atoms: C_4  and  C_5
REMARK    5  A    between atoms: C_15  and  N_16
REMARK    6  A    between atoms: C_17  and  C_19
REMARK    7  A    between atoms: N_24  and  C_26
REMARK    8  A    between atoms: C_26  and  C_27
REMARK    9  A    between atoms: C_29  and  C_32
REMARK   10  A    between atoms: C_35  and  C_38
REMARK   11  A    between atoms: C_38  and  C_39
REMARK   12  A    between atoms: C_38  and  C_40
REMARK   13  A    between atoms: C_38  and  C_41
REMARK                            x       y       z     vdW  Elec       q    Type
REMARK                         _______ _______ _______ _____ _____    ______ ____
ROOT
ATOM      1  C   UNL     1       4.443  -0.023   2.090  0.00  0.00    +0.058 C 
ATOM      2  C   UNL     1       5.086  -0.619   0.835  0.00  0.00    +0.009 C 
ATOM      3  C   UNL     1       6.573  -0.253   0.812  0.00  0.00    -0.018 C 
ATOM      4  C   UNL     1       7.236  -0.754   2.097  0.00  0.00    -0.078 C 
ATOM      5  N   UNL     1       6.594  -0.128   3.259  0.00  0.00    +0.386 N 
ATOM      6  C   UNL     1       5.184  -0.531   3.329  0.00  0.00    -0.065 C 
ATOM      7  H   UNL     1       6.651   0.876   3.173  0.00  0.00    -0.081 HD
ENDROOT
BRANCH   1   9
ATOM      8  N   UNL     1       2.148  -0.104   1.172  0.00  0.00    -0.315 N 
ATOM      9  C   UNL     1       2.997  -0.441   2.162  0.00  0.00    +0.214 C 
ATOM     10  O   UNL     1       2.598  -1.082   3.111  0.00  0.00    -0.276 OA
ATOM     11  H   UNL     1       2.467   0.409   0.412  0.00  0.00    +0.149 HD
BRANCH   8  12
ATOM     12  C   UNL     1       0.742  -0.511   1.242  0.00  0.00    +0.107 C 
BRANCH  12  14
ATOM     13  C   UNL     1      -0.019   1.526   0.010  0.00  0.00    +0.009 C 
ATOM     14  C   UNL     1       0.002  -0.004   0.002  0.00  0.00    +0.007 C 
BRANCH  14  15
ATOM     15  C   UNL     1      -1.433  -0.534   0.013  0.00  0.00    +0.040 C 
BRANCH  15  16
ATOM     16  C   UNL     1      -2.125  -0.137  -1.266  0.00  0.00    -0.039 A 
ATOM     17  C   UNL     1      -2.882   0.993  -1.312  0.00  0.00    +0.004 A 
ATOM     18  C   UNL     1      -3.529   1.375  -2.486  0.00  0.00    +0.001 A 
ATOM     19  C   UNL     1      -3.422   0.630  -3.620  0.00  0.00    +0.008 A 
ATOM     20  C   UNL     1      -2.649  -0.543  -3.611  0.00  0.00    -0.018 A 
ATOM     21  C   UNL     1      -1.986  -0.929  -2.419  0.00  0.00    -0.015 A 
ATOM     22  C   UNL     1      -1.207  -2.099  -2.411  0.00  0.00    +0.009 A 
ATOM     23  C   UNL     1      -1.096  -2.841  -3.546  0.00  0.00    +0.001 A 
ATOM     24  C   UNL     1      -1.742  -2.458  -4.720  0.00  0.00    +0.001 A 
ATOM     25  C   UNL     1      -2.515  -1.339  -4.762  0.00  0.00    +0.008 A 
ENDBRANCH  15  16
ENDBRANCH  14  15
ENDBRANCH  12  14
ENDBRANCH   8  12
ENDBRANCH   1   9
BRANCH   5  26
ATOM     26  C   UNL     1       7.284  -0.551   4.485  0.00  0.00    +0.022 C 
BRANCH  26  27
ATOM     27  C   UNL     1       8.695  -0.023   4.476  0.00  0.00    +0.211 A 
ATOM     28  N   UNL     1       9.083   1.121   4.963  0.00  0.00    -0.193 NA
ATOM     29  C   UNL     1      10.407   1.272   4.785  0.00  0.00    +0.202 A 
ATOM     30  N   UNL     1      10.872   0.209   4.176  0.00  0.00    -0.056 NA
ATOM     31  O   UNL     1       9.763  -0.653   3.970  0.00  0.00    -0.340 OA
BRANCH  29  32
ATOM     32  C   UNL     1      11.209   2.448   5.208  0.00  0.00    +0.022 A 
ATOM     33  C   UNL     1      10.594   3.518   5.854  0.00  0.00    +0.012 A 
ATOM     34  C   UNL     1      11.345   4.608   6.245  0.00  0.00    +0.005 A 
ATOM     35  C   UNL     1      12.705   4.640   5.996  0.00  0.00    -0.042 A 
ATOM     36  C   UNL     1      13.320   3.580   5.354  0.00  0.00    +0.005 A 
ATOM     37  C   UNL     1      12.581   2.482   4.965  0.00  0.00    +0.012 A 
BRANCH  35  38
ATOM     38  C   UNL     1      13.519   5.834   6.424  0.00  0.00    -0.013 C 
ATOM     39  C   UNL     1      13.415   6.004   7.941  0.00  0.00    +0.015 C 
ATOM     40  C   UNL     1      14.982   5.620   6.034  0.00  0.00    +0.015 C 
ATOM     41  C   UNL     1      12.985   7.090   5.733  0.00  0.00    +0.015 C 
ENDBRANCH  35  38
ENDBRANCH  29  32
ENDBRANCH  26  27
ENDBRANCH   5  26
TORSDOF 9
