REMARK  Name = ZINC59597104
REMARK  9 active torsions:
REMARK  status: ('A' for Active; 'I' for Inactive)
REMARK    1  A    between atoms: C_1  and  C_2
REMARK    2  A    between atoms: C_2  and  O_3
REMARK    3  A    between atoms: O_3  and  C_4
REMARK    4  A    between atoms: C_6  and  C_11
REMARK    5  A    between atoms: C_9  and  O_10
REMARK    6  A    between atoms: C_12  and  N_21
REMARK    7  A    between atoms: C_16  and  C_20
REMARK    8  A    between atoms: C_22  and  C_23
REMARK    9  A    between atoms: C_26  and  C_28
REMARK                            x       y       z     vdW  Elec       q    Type
REMARK                         _______ _______ _______ _____ _____    ______ ____
ROOT
ATOM      1  C   UNL     1      -0.203  -4.960  -0.510  0.00  0.00    +0.091 A 
ATOM      2  C   UNL     1      -0.961  -6.103  -0.253  0.00  0.00    +0.163 A 
ATOM      3  N   UNL     1      -1.288  -6.637  -1.481  0.00  0.00    -0.286 N 
ATOM      4  C   UNL     1      -2.007  -7.740  -1.840  0.00  0.00    +0.095 A 
ATOM      5  C   UNL     1      -2.185  -8.050  -3.142  0.00  0.00    +0.021 A 
ATOM      6  C   UNL     1      -1.630  -7.240  -4.145  0.00  0.00    -0.046 A 
ATOM      7  C   UNL     1      -0.910  -6.137  -3.800  0.00  0.00    +0.048 A 
ATOM      8  C   UNL     1      -0.733  -5.825  -2.438  0.00  0.00    +0.118 A 
ATOM      9  N   UNL     1      -0.095  -4.828  -1.837  0.00  0.00    -0.338 N 
ATOM     10  C   UNL     1      -1.829  -7.589  -5.597  0.00  0.00    +0.044 C 
ATOM     11  H   UNL     1       0.379  -4.113  -2.290  0.00  0.00    +0.167 HD
ENDROOT
BRANCH   1  14
ATOM     12  C   UNL     1       0.802  -1.825   1.306  0.00  0.00    +0.162 A 
ATOM     13  C   UNL     1       0.261  -2.670   0.354  0.00  0.00    +0.059 A 
ATOM     14  C   UNL     1       0.375  -4.052   0.506  0.00  0.00    +0.006 A 
ATOM     15  C   UNL     1       1.034  -4.577   1.619  0.00  0.00    +0.014 A 
ATOM     16  C   UNL     1       1.571  -3.729   2.566  0.00  0.00    +0.050 A 
ATOM     17  C   UNL     1       1.463  -2.355   2.411  0.00  0.00    +0.158 A 
BRANCH  17  18
ATOM     18  O   UNL     1       2.000  -1.523   3.344  0.00  0.00    -0.503 OA
ATOM     19  H   UNL     1       1.394  -1.295   4.062  0.00  0.00    +0.292 HD
ENDBRANCH  17  18
BRANCH  12  20
ATOM     20  O   UNL     1       0.693  -0.477   1.160  0.00  0.00    -0.489 OA
BRANCH  20  22
ATOM     21  C   UNL     1      -0.019   1.526   0.010  0.00  0.00    +0.048 C 
ATOM     22  C   UNL     1       0.002  -0.004   0.002  0.00  0.00    +0.226 C 
ENDBRANCH  20  22
ENDBRANCH  12  20
ENDBRANCH   1  14
BRANCH   2  23
ATOM     23  N   UNL     1      -1.306  -6.589   0.956  0.00  0.00    -0.232 NA
ATOM     24  C   UNL     1      -0.524  -7.451   1.563  0.00  0.00    +0.159 C 
BRANCH  24  25
ATOM     25  C   UNL     1      -0.886  -7.960   2.832  0.00  0.00    +0.147 A 
ATOM     26  C   UNL     1      -0.157  -8.864   3.582  0.00  0.00    +0.051 A 
ATOM     27  C   UNL     1      -0.880  -9.089   4.758  0.00  0.00    +0.050 A 
ATOM     28  C   UNL     1      -2.010  -8.325   4.687  0.00  0.00    +0.137 A 
ATOM     29  O   UNL     1      -2.000  -7.645   3.525  0.00  0.00    -0.454 OA
BRANCH  28  30
ATOM     30  C   UNL     1      -3.064  -8.252   5.717  0.00  0.00    +0.036 A 
ATOM     31  C   UNL     1      -3.616  -9.425   6.240  0.00  0.00    +0.014 A 
ATOM     32  C   UNL     1      -4.600  -9.350   7.203  0.00  0.00    +0.021 A 
ATOM     33  C   UNL     1      -5.043  -8.116   7.652  0.00  0.00    +0.042 A 
ATOM     34  C   UNL     1      -4.501  -6.950   7.138  0.00  0.00    +0.040 A 
ATOM     35  C   UNL     1      -3.511  -7.011   6.178  0.00  0.00    +0.053 A 
ATOM     36 CL   UNL     1      -2.827  -5.548   5.540  0.00  0.00    -0.083 Cl
ATOM     37 CL   UNL     1      -6.283  -8.032   8.864  0.00  0.00    -0.083 Cl
ENDBRANCH  28  30
ENDBRANCH  24  25
ENDBRANCH   2  23
TORSDOF 7
