REMARK  Name = ZINC61099519
REMARK  3 active torsions:
REMARK  status: ('A' for Active; 'I' for Inactive)
REMARK    1  A    between atoms: C_3  and  N_12
REMARK    2  A    between atoms: C_8  and  N_11
REMARK    3  A    between atoms: N_12  and  C_13
REMARK                            x       y       z     vdW  Elec       q    Type
REMARK                         _______ _______ _______ _____ _____    ______ ____
ROOT
ATOM      1  C   UNL     1       0.009   1.388  -0.428  0.00  0.00    +0.013 A 
ATOM      2  C   UNL     1       1.195   2.054  -0.340  0.00  0.00    +0.044 A 
ATOM      3  C   UNL     1       2.380   1.341  -0.109  0.00  0.00    +0.124 A 
ATOM      4  N   UNL     1       2.381   0.031   0.026  0.00  0.00    -0.232 NA
ATOM      5  C   UNL     1       1.248  -0.676  -0.051  0.00  0.00    +0.073 A 
ATOM      6  C   UNL     1       0.018  -0.015  -0.282  0.00  0.00    +0.002 A 
ATOM      7  C   UNL     1      -1.168  -0.760  -0.363  0.00  0.00    +0.032 A 
ATOM      8  C   UNL     1      -1.120  -2.130  -0.215  0.00  0.00    +0.025 A 
ATOM      9  C   UNL     1       0.099  -2.777   0.014  0.00  0.00    +0.025 A 
ATOM     10  C   UNL     1       1.261  -2.075   0.095  0.00  0.00    +0.030 A 
ENDROOT
BRANCH   8  11
ATOM     11  N   UNL     1      -2.298  -2.877  -0.295  0.00  0.00    -0.358 N 
ATOM     12  H   UNL     1      -3.145  -2.432  -0.453  0.00  0.00    +0.142 HD
ATOM     13  H   UNL     1      -2.268  -3.841  -0.192  0.00  0.00    +0.142 HD
ENDBRANCH   8  11
BRANCH   3  14
ATOM     14  N   UNL     1       3.580   2.033  -0.022  0.00  0.00    -0.297 N 
ATOM     15  H   UNL     1       3.583   3.003  -0.023  0.00  0.00    +0.154 HD
BRANCH  14  16
ATOM     16  C   UNL     1       4.787   1.331   0.069  0.00  0.00    +0.074 A 
ATOM     17  C   UNL     1       4.913   0.085  -0.530  0.00  0.00    +0.064 A 
ATOM     18  C   UNL     1       6.108  -0.607  -0.440  0.00  0.00    +0.128 A 
ATOM     19  C   UNL     1       7.178  -0.059   0.246  0.00  0.00    +0.079 A 
ATOM     20  C   UNL     1       7.056   1.184   0.845  0.00  0.00    +0.163 A 
ATOM     21  C   UNL     1       5.864   1.883   0.753  0.00  0.00    +0.180 A 
ATOM     22  F   UNL     1       5.746   3.098   1.333  0.00  0.00    -0.201 F 
ATOM     23  F   UNL     1       8.101   1.717   1.514  0.00  0.00    -0.202 F 
ATOM     24  F   UNL     1       6.230  -1.820  -1.023  0.00  0.00    -0.205 F 
ENDBRANCH  14  16
ENDBRANCH   3  14
TORSDOF 3
