REMARK  Name = ZINC64790093
REMARK  6 active torsions:
REMARK  status: ('A' for Active; 'I' for Inactive)
REMARK    1  A    between atoms: C_1  and  C_2
REMARK    2  A    between atoms: C_4  and  C_15
REMARK    3  A    between atoms: C_5  and  N_7
REMARK    4  A    between atoms: C_8  and  C_10
REMARK    5  A    between atoms: C_15  and  C_17
REMARK    6  A    between atoms: C_15  and  N_22
REMARK                            x       y       z     vdW  Elec       q    Type
REMARK                         _______ _______ _______ _____ _____    ______ ____
ROOT
ATOM      1  C   UNL     1      -0.018   1.503   0.010  0.00  0.00    +0.051 C 
ATOM      2  C   UNL     1       0.002  -0.004   0.002  0.00  0.00    -0.011 A 
ATOM      3  C   UNL     1      -1.040  -0.870   0.002  0.00  0.00    +0.018 A 
ATOM      4  C   UNL     1      -0.784  -2.229  -0.007  0.00  0.00    +0.006 A 
ATOM      5  C   UNL     1       0.511  -2.653  -0.015  0.00  0.00    +0.078 A 
ATOM      6  S   UNL     1       1.405  -1.108  -0.018  0.00  0.00    -0.078 S 
ENDROOT
BRANCH   5   7
ATOM      7  N   UNL     1       1.010  -3.958  -0.024  0.00  0.00    -0.273 N 
ATOM      8  C   UNL     1       2.341  -4.170  -0.031  0.00  0.00    +0.284 C 
ATOM      9  O   UNL     1       3.108  -3.225  -0.029  0.00  0.00    -0.266 OA
ATOM     10  H   UNL     1       0.398  -4.710  -0.025  0.00  0.00    +0.156 HD
BRANCH   8  11
ATOM     11  C   UNL     1       2.864  -5.540  -0.040  0.00  0.00    +0.189 A 
ATOM     12  C   UNL     1       4.182  -5.895  -0.042  0.00  0.00    +0.054 A 
ATOM     13  C   UNL     1       4.222  -7.298  -0.052  0.00  0.00    +0.042 A 
ATOM     14  C   UNL     1       2.943  -7.732  -0.055  0.00  0.00    +0.196 A 
ATOM     15  O   UNL     1       2.127  -6.670  -0.043  0.00  0.00    -0.458 OA
ENDBRANCH   8  11
ENDBRANCH   5   7
BRANCH   4  16
ATOM     16  C   UNL     1      -1.917  -3.223  -0.007  0.00  0.00    +0.135 C 
BRANCH  16  17
ATOM     17  N   UNL     1      -3.112  -2.601  -0.582  0.00  0.00    -0.320 N 
ATOM     18  C   UNL     1      -4.094  -3.392  -1.166  0.00  0.00    +0.097 A 
ATOM     19  C   UNL     1      -3.939  -4.775  -1.196  0.00  0.00    +0.041 A 
ATOM     20  C   UNL     1      -4.924  -5.550  -1.780  0.00  0.00    +0.005 A 
ATOM     21  C   UNL     1      -6.036  -4.914  -2.317  0.00  0.00    +0.018 A 
ATOM     22  C   UNL     1      -6.125  -3.539  -2.253  0.00  0.00    +0.084 A 
ATOM     23  N   UNL     1      -5.172  -2.824  -1.684  0.00  0.00    -0.350 N 
ATOM     24  H   UNL     1      -3.217  -1.637  -0.555  0.00  0.00    +0.148 HD
ATOM     25  H   UNL     1      -5.261  -1.859  -1.649  0.00  0.00    +0.166 HD
ENDBRANCH  16  17
BRANCH  16  26
ATOM     26  C   UNL     1      -2.206  -3.655   1.408  0.00  0.00    -0.016 A 
ATOM     27  C   UNL     1      -1.717  -4.855   1.889  0.00  0.00    +0.013 A 
ATOM     28  C   UNL     1      -1.996  -5.213   3.166  0.00  0.00    +0.045 A 
ATOM     29  S   UNL     1      -2.978  -3.833   3.731  0.00  0.00    -0.105 S 
ATOM     30  C   UNL     1      -2.945  -2.869   2.229  0.00  0.00    +0.051 A 
ENDBRANCH  16  26
ENDBRANCH   4  16
TORSDOF 5
