REMARK  Name = ZINC12305869
REMARK  8 active torsions:
REMARK  status: ('A' for Active; 'I' for Inactive)
REMARK    1  A    between atoms: C_1  and  C_2
REMARK    2  A    between atoms: C_7  and  C_10
REMARK    3  A    between atoms: C_11  and  C_13
REMARK    4  A    between atoms: C_14  and  C_23
REMARK    5  A    between atoms: C_23  and  N_61
REMARK    6  A    between atoms: C_24  and  C_25
REMARK    7  A    between atoms: C_24  and  N_61
REMARK    8  A    between atoms: C_25  and  C_26
REMARK                            x       y       z     vdW  Elec       q    Type
REMARK                         _______ _______ _______ _____ _____    ______ ____
ROOT
ATOM      1  C   UNL     1       3.772   0.257  -2.679  0.00  0.00    +0.146 A 
ATOM      2  C   UNL     1       4.923  -0.450  -2.881  0.00  0.00    +0.039 A 
ATOM      3  N   UNL     1       5.052  -0.629  -4.225  0.00  0.00    -0.303 N 
ATOM      4  C   UNL     1       6.002  -1.257  -4.983  0.00  0.00    +0.113 A 
ATOM      5  C   UNL     1       5.895  -1.293  -6.327  0.00  0.00    +0.058 A 
ATOM      6  C   UNL     1       4.802  -0.684  -6.970  0.00  0.00    +0.025 A 
ATOM      7  C   UNL     1       3.850  -0.056  -6.230  0.00  0.00    +0.048 A 
ATOM      8  C   UNL     1       3.974  -0.025  -4.824  0.00  0.00    +0.139 A 
ATOM      9  N   UNL     1       3.212   0.498  -3.879  0.00  0.00    -0.223 NA
ATOM     10 CL   UNL     1       7.112  -2.096  -7.269  0.00  0.00    -0.082 Cl
ENDROOT
BRANCH   1  19
ATOM     11  C   UNL     1       0.658   4.195  -3.489  0.00  0.00    +0.039 C 
ATOM     12  C   UNL     1       1.422   3.583  -2.312  0.00  0.00    +0.133 C 
ATOM     13  C   UNL     1       1.586   2.075  -2.537  0.00  0.00    +0.139 C 
ATOM     14  N   UNL     1       2.154   1.483  -1.315  0.00  0.00    -0.291 N 
ATOM     15  C   UNL     1       1.509   1.797  -0.030  0.00  0.00    +0.139 C 
ATOM     16  C   UNL     1       1.349   3.318   0.072  0.00  0.00    +0.133 C 
ATOM     17  O   UNL     1       0.693   3.802  -1.102  0.00  0.00    -0.371 OA
ATOM     18  C   UNL     1       0.510   3.662   1.304  0.00  0.00    +0.039 C 
ATOM     19  C   UNL     1       3.233   0.678  -1.371  0.00  0.00    +0.267 C 
ATOM     20  O   UNL     1       3.763   0.299  -0.345  0.00  0.00    -0.268 OA
ENDBRANCH   1  19
BRANCH   2  21
ATOM     21  C   UNL     1       5.871  -0.941  -1.818  0.00  0.00    -0.025 C 
BRANCH  21  22
ATOM     22  N   UNL     1       6.892   0.094  -1.566  0.00  0.00    +0.383 N 
ATOM     23  H   UNL     1       6.430   0.956  -1.251  0.00  0.00    -0.085 HD
ATOM     24  H   UNL     1       7.407   0.280  -2.434  0.00  0.00    -0.085 HD
BRANCH  22  25
ATOM     25  C   UNL     1       7.835  -0.360  -0.527  0.00  0.00    -0.082 C 
BRANCH  25  26
ATOM     26  C   UNL     1       8.880   0.732  -0.287  0.00  0.00    -0.015 C 
BRANCH  26  27
ATOM     27  C   UNL     1       9.864   0.269   0.790  0.00  0.00    -0.005 C 
ATOM     28  C   UNL     1       9.178   0.243   2.178  0.00  0.00    +0.011 C 
ATOM     29  C   UNL     1      10.002   1.272   3.016  0.00  0.00    +0.012 C 
ATOM     30  C   UNL     1      11.445   1.010   2.448  0.00  0.00    +0.015 C 
ATOM     31  C   UNL     1      11.015   1.310   0.966  0.00  0.00    +0.015 C 
ATOM     32  C   UNL     1      10.285   2.643   1.171  0.00  0.00    -0.027 C 
ATOM     33  C   UNL     1       9.701   2.621   2.352  0.00  0.00    -0.027 C 
ENDBRANCH  26  27
ENDBRANCH  25  26
ENDBRANCH  22  25
ENDBRANCH  21  22
ENDBRANCH   2  21
TORSDOF 6
