REMARK  Name = ZINC12130110
REMARK  10 active torsions:
REMARK  status: ('A' for Active; 'I' for Inactive)
REMARK    1  A    between atoms: C_1  and  C_2
REMARK    2  A    between atoms: C_6  and  C_9
REMARK    3  A    between atoms: C_10  and  C_11
REMARK    4  A    between atoms: C_10  and  N_64
REMARK    5  A    between atoms: C_21  and  C_22
REMARK    6  A    between atoms: C_21  and  N_66
REMARK    7  A    between atoms: C_25  and  O_30
REMARK    8  A    between atoms: C_27  and  O_28
REMARK    9  A    between atoms: O_28  and  C_29
REMARK   10  A    between atoms: O_30  and  C_31
REMARK                            x       y       z     vdW  Elec       q    Type
REMARK                         _______ _______ _______ _____ _____    ______ ____
ROOT
ATOM      1  C   UNL     1       0.873   5.443   2.245  0.00  0.00    -0.064 A 
ATOM      2  C   UNL     1       1.495   4.393   2.895  0.00  0.00    +0.005 A 
ATOM      3  C   UNL     1       1.258   3.090   2.499  0.00  0.00    +0.046 A 
ATOM      4  C   UNL     1       0.392   2.840   1.444  0.00  0.00    +0.122 A 
ATOM      5  C   UNL     1      -0.240   3.892   0.808  0.00  0.00    -0.022 A 
ATOM      6  C   UNL     1       0.002   5.193   1.199  0.00  0.00    +0.007 A 
ATOM      7  C   UNL     1      -1.207   3.604  -0.324  0.00  0.00    -0.039 C 
ATOM      8  C   UNL     1      -0.215   1.645  -1.377  0.00  0.00    -0.036 C 
ATOM      9  C   UNL     1       0.744   1.258  -0.273  0.00  0.00    +0.210 C 
ATOM     10  O   UNL     1       0.189   1.565   1.012  0.00  0.00    -0.494 OA
ATOM     11  N   UNL     1      -0.420   3.106  -1.477  0.00  0.00    +0.387 N 
ATOM     12  H   UNL     1       0.497   3.569  -1.474  0.00  0.00    -0.081 HD
ENDROOT
BRANCH   1  13
ATOM     13  C   UNL     1       1.144   6.861   2.676  0.00  0.00    -0.043 C 
BRANCH  13  21
ATOM     14  C   UNL     1      -0.110  10.244   6.024  0.00  0.00    +0.036 C 
ATOM     15  C   UNL     1      -0.447   8.873   5.435  0.00  0.00    +0.099 C 
ATOM     16  C   UNL     1       0.551   8.534   4.324  0.00  0.00    -0.047 C 
ATOM     17  C   UNL     1      -1.185   7.314   3.163  0.00  0.00    -0.047 C 
ATOM     18  C   UNL     1      -2.166   7.665   4.285  0.00  0.00    +0.099 C 
ATOM     19  O   UNL     1      -1.769   8.898   4.890  0.00  0.00    -0.378 OA
ATOM     20  C   UNL     1      -3.575   7.809   3.707  0.00  0.00    +0.036 C 
ATOM     21  N   UNL     1       0.176   7.233   3.731  0.00  0.00    +0.386 N 
ATOM     22  H   UNL     1       0.190   6.515   4.465  0.00  0.00    -0.081 HD
ENDBRANCH  13  21
ENDBRANCH   1  13
BRANCH  11  23
ATOM     23  C   UNL     1      -1.112   3.428  -2.736  0.00  0.00    -0.039 C 
BRANCH  23  24
ATOM     24  C   UNL     1      -1.420   4.903  -2.756  0.00  0.00    -0.022 A 
ATOM     25  C   UNL     1      -2.721   5.339  -2.593  0.00  0.00    +0.009 A 
ATOM     26  C   UNL     1      -3.006   6.691  -2.606  0.00  0.00    +0.046 A 
ATOM     27  C   UNL     1      -1.986   7.614  -2.794  0.00  0.00    +0.124 A 
ATOM     28  C   UNL     1      -0.681   7.179  -2.963  0.00  0.00    +0.091 A 
ATOM     29  C   UNL     1      -0.397   5.822  -2.944  0.00  0.00    +0.125 A 
BRANCH  29  30
ATOM     30  O   UNL     1       0.881   5.392  -3.110  0.00  0.00    -0.495 OA
ATOM     31  C   UNL     1       1.883   6.394  -3.298  0.00  0.00    +0.277 C 
ENDBRANCH  29  30
BRANCH  27  32
ATOM     32  O   UNL     1      -2.268   8.944  -2.812  0.00  0.00    -0.495 OA
ATOM     33  C   UNL     1      -3.634   9.320  -2.631  0.00  0.00    +0.277 C 
ENDBRANCH  27  32
ENDBRANCH  23  24
ENDBRANCH  11  23
TORSDOF 6
