REMARK  Name = ZINC22472921
REMARK  14 active torsions:
REMARK  status: ('A' for Active; 'I' for Inactive)
REMARK    1  A    between atoms: C_1  and  N_2
REMARK    2  A    between atoms: N_2  and  C_3
REMARK    3  A    between atoms: C_3  and  C_4
REMARK    4  A    between atoms: C_4  and  C_5
REMARK    5  A    between atoms: C_5  and  N_6
REMARK    6  A    between atoms: C_9  and  O_10
REMARK    7  A    between atoms: C_18  and  C_20
REMARK    8  A    between atoms: C_21  and  C_22
REMARK    9  A    between atoms: C_24  and  O_32
REMARK   10  A    between atoms: C_25  and  O_30
REMARK   11  A    between atoms: C_26  and  O_28
REMARK   12  A    between atoms: O_28  and  C_29
REMARK   13  A    between atoms: O_30  and  C_31
REMARK   14  A    between atoms: O_32  and  C_33
REMARK                            x       y       z     vdW  Elec       q    Type
REMARK                         _______ _______ _______ _____ _____    ______ ____
ROOT
ATOM      1  C   UNL     1      -6.635   3.016  -1.218  0.00  0.00    +0.132 C 
ATOM      2  N   UNL     1      -6.074   2.530   0.045  0.00  0.00    -0.301 N 
ATOM      3  C   UNL     1      -6.579   2.964   1.217  0.00  0.00    +0.239 C 
ATOM      4  O   UNL     1      -6.113   2.561   2.267  0.00  0.00    -0.271 OA
ENDROOT
BRANCH   3   5
ATOM      5  C   UNL     1      -7.687   3.919   1.227  0.00  0.00    +0.068 C 
ATOM      6  C   UNL     1      -8.192   4.354   2.401  0.00  0.00    +0.013 C 
BRANCH   6   7
ATOM      7  C   UNL     1      -9.305   5.314   2.412  0.00  0.00    -0.018 A 
ATOM      8  C   UNL     1      -9.838   5.783   1.206  0.00  0.00    +0.057 A 
ATOM      9  C   UNL     1     -10.888   6.681   1.220  0.00  0.00    +0.166 A 
ATOM     10  C   UNL     1     -11.409   7.128   2.432  0.00  0.00    +0.204 A 
ATOM     11  C   UNL     1     -10.877   6.668   3.634  0.00  0.00    +0.166 A 
ATOM     12  C   UNL     1      -9.831   5.765   3.628  0.00  0.00    +0.057 A 
BRANCH  11  13
ATOM     13  O   UNL     1     -11.388   7.107   4.815  0.00  0.00    -0.491 OA
ATOM     14  C   UNL     1     -10.794   6.594   6.010  0.00  0.00    +0.277 C 
ENDBRANCH  11  13
BRANCH  10  15
ATOM     15  O   UNL     1     -12.438   8.015   2.442  0.00  0.00    -0.488 OA
ATOM     16  C   UNL     1     -12.098   9.403   2.447  0.00  0.00    +0.277 C 
ENDBRANCH  10  15
BRANCH   9  17
ATOM     17  O   UNL     1     -11.410   7.134   0.048  0.00  0.00    -0.491 OA
ATOM     18  C   UNL     1     -10.828   6.634  -1.157  0.00  0.00    +0.277 C 
ENDBRANCH   9  17
ENDBRANCH   6   7
ENDBRANCH   3   5
BRANCH   2  19
ATOM     19  C   UNL     1      -4.965   1.574   0.034  0.00  0.00    +0.109 C 
BRANCH  19  20
ATOM     20  C   UNL     1      -3.637   2.333   0.032  0.00  0.00    +0.040 C 
BRANCH  20  21
ATOM     21  C   UNL     1      -2.478   1.334   0.021  0.00  0.00    +0.114 C 
BRANCH  21  22
ATOM     22  N   UNL     1      -1.206   2.061   0.019  0.00  0.00    -0.384 N 
ATOM     23  C   UNL     1      -0.017   1.367   0.010  0.00  0.00    +0.053 A 
ATOM     24  C   UNL     1       0.002  -0.004   0.002  0.00  0.00    +0.113 A 
ATOM     25  C   UNL     1       1.228  -0.681  -0.013  0.00  0.00    +0.286 A 
ATOM     26  O   UNL     1       2.400  -0.026  -0.021  0.00  0.00    -0.425 OA
ATOM     27  C   UNL     1       2.460   1.323  -0.014  0.00  0.00    +0.141 A 
ATOM     28  C   UNL     1       1.275   2.075   0.001  0.00  0.00    +0.041 A 
ATOM     29  C   UNL     1       1.332   3.469   0.007  0.00  0.00    +0.013 A 
ATOM     30  C   UNL     1       2.556   4.101  -0.001  0.00  0.00    +0.001 A 
ATOM     31  C   UNL     1       3.727   3.357  -0.017  0.00  0.00    +0.004 A 
ATOM     32  C   UNL     1       3.684   1.979  -0.022  0.00  0.00    +0.047 A 
ATOM     33  H   UNL     1      -1.202   3.161   0.025  0.00  0.00    +0.160 HD
BRANCH  25  34
ATOM     34  O   UNL     1       1.231  -1.900  -0.020  0.00  0.00    -0.480 OA
ATOM     35  H   UNL     1       2.185  -2.448  -0.032  0.00  0.00    +0.295 HD
ENDBRANCH  25  34
ENDBRANCH  21  22
ENDBRANCH  20  21
ENDBRANCH  19  20
ENDBRANCH   2  19
TORSDOF 10
