REMARK  Name = ZINC12292445
REMARK  7 active torsions:
REMARK  status: ('A' for Active; 'I' for Inactive)
REMARK    1  A    between atoms: C_6  and  C_7
REMARK    2  A    between atoms: C_7  and  C_9
REMARK    3  A    between atoms: C_7  and  O_26
REMARK    4  A    between atoms: C_9  and  N_48
REMARK    5  A    between atoms: C_12  and  C_15
REMARK    6  A    between atoms: C_12  and  O_25
REMARK    7  A    between atoms: C_18  and  C_21
REMARK                            x       y       z     vdW  Elec       q    Type
REMARK                         _______ _______ _______ _____ _____    ______ ____
ROOT
ATOM      1  C   UNL     1      -0.295   1.121   0.032  0.00  0.00    -0.076 C 
ATOM      2  C   UNL     1      -1.083   1.745  -1.123  0.00  0.00    +0.021 C 
ATOM      3  C   UNL     1      -2.574   1.450  -0.936  0.00  0.00    +0.088 C 
ATOM      4  C   UNL     1      -3.028   1.999   0.419  0.00  0.00    +0.021 C 
ATOM      5  C   UNL     1      -2.184   1.369   1.529  0.00  0.00    -0.076 C 
ATOM      6  N   UNL     1      -0.764   1.710   1.304  0.00  0.00    +0.382 N 
ATOM      7  H   UNL     1      -0.671   2.731   1.254  0.00  0.00    -0.082 HD
ENDROOT
BRANCH   3   8
ATOM      8  C   UNL     1      -3.360   2.110  -2.038  0.00  0.00    -0.016 A 
ATOM      9  C   UNL     1      -2.901   3.283  -2.608  0.00  0.00    +0.007 A 
ATOM     10  C   UNL     1      -3.620   3.887  -3.623  0.00  0.00    +0.013 A 
ATOM     11  C   UNL     1      -4.804   3.323  -4.060  0.00  0.00    +0.055 A 
ATOM     12  C   UNL     1      -5.266   2.153  -3.486  0.00  0.00    +0.013 A 
ATOM     13  C   UNL     1      -4.545   1.547  -2.475  0.00  0.00    +0.007 A 
BRANCH  11  14
ATOM     14  C   UNL     1      -5.590   3.983  -5.163  0.00  0.00    +0.417 C 
ATOM     15  F   UNL     1      -6.499   4.891  -4.609  0.00  0.00    -0.166 F 
ATOM     16  F   UNL     1      -4.715   4.663  -6.018  0.00  0.00    -0.166 F 
ATOM     17  F   UNL     1      -6.286   3.009  -5.887  0.00  0.00    -0.166 F 
ENDBRANCH  11  14
ENDBRANCH   3   8
BRANCH   3  18
ATOM     18  O   UNL     1      -2.790   0.038  -0.975  0.00  0.00    -0.384 OA
ATOM     19  H   UNL     1      -3.714  -0.222  -0.862  0.00  0.00    +0.211 HD
ENDBRANCH   3  18
BRANCH   6  20
ATOM     20  C   UNL     1       0.059   1.209   2.425  0.00  0.00    -0.042 C 
BRANCH  20  21
ATOM     21  C   UNL     1       1.395   1.954   2.422  0.00  0.00    +0.128 C 
BRANCH  21  27
ATOM     22  C   UNL     1       2.085   1.838   4.826  0.00  0.00    +0.007 A 
ATOM     23  C   UNL     1       2.886   1.341   5.836  0.00  0.00    +0.020 A 
ATOM     24  C   UNL     1       3.884   0.429   5.541  0.00  0.00    +0.041 A 
ATOM     25  C   UNL     1       4.075   0.011   4.236  0.00  0.00    +0.020 A 
ATOM     26  C   UNL     1       3.269   0.504   3.228  0.00  0.00    +0.007 A 
ATOM     27  C   UNL     1       2.273   1.416   3.523  0.00  0.00    -0.021 A 
ATOM     28 CL   UNL     1       4.896  -0.190   6.808  0.00  0.00    -0.084 Cl
ENDBRANCH  21  27
BRANCH  21  29
ATOM     29  O   UNL     1       1.163   3.348   2.637  0.00  0.00    -0.389 OA
ATOM     30  H   UNL     1       0.725   3.549   3.476  0.00  0.00    +0.210 HD
ENDBRANCH  21  29
ENDBRANCH  20  21
ENDBRANCH   6  20
TORSDOF 7
