REMARK  Name = ZINC42830781
REMARK  12 active torsions:
REMARK  status: ('A' for Active; 'I' for Inactive)
REMARK    1  A    between atoms: C_1  and  C_2
REMARK    2  A    between atoms: C_2  and  C_4
REMARK    3  A    between atoms: C_2  and  N_8
REMARK    4  A    between atoms: C_4  and  C_5
REMARK    5  A    between atoms: C_4  and  C_6
REMARK    6  A    between atoms: C_4  and  C_7
REMARK    7  A    between atoms: N_8  and  C_9
REMARK    8  A    between atoms: N_8  and  S_10
REMARK    9  A    between atoms: S_10  and  C_13
REMARK   10  A    between atoms: C_18  and  C_19
REMARK   11  A    between atoms: C_20  and  C_21
REMARK   12  A    between atoms: C_21  and  N_22
REMARK                            x       y       z     vdW  Elec       q    Type
REMARK                         _______ _______ _______ _____ _____    ______ ____
ROOT
ATOM      1  C   UNL     1       2.835  -0.123   2.345  0.00  0.00    +0.121 A 
ATOM      2  C   UNL     1       3.513  -0.414   3.510  0.00  0.00    +0.030 A 
ATOM      3  C   UNL     1       4.564   0.386   3.922  0.00  0.00    +0.002 A 
ATOM      4  C   UNL     1       4.941   1.483   3.168  0.00  0.00    +0.001 A 
ATOM      5  C   UNL     1       4.271   1.786   2.001  0.00  0.00    +0.019 A 
ATOM      6  C   UNL     1       3.214   0.979   1.578  0.00  0.00    +0.051 A 
ENDROOT
BRANCH   1   7
ATOM      7  S   UNL     1       1.497  -1.144   1.822  0.00  0.00    +0.062 S 
ATOM      8  O   UNL     1       1.412  -2.211   2.757  0.00  0.00    -0.153 OA
ATOM      9  O   UNL     1       1.674  -1.363   0.430  0.00  0.00    -0.153 OA
BRANCH   7  10
ATOM     10  N   UNL     1       0.109  -0.256   1.989  0.00  0.00    -0.176 NA
ATOM     11  C   UNL     1      -0.544  -0.157   3.297  0.00  0.00    +0.132 C 
BRANCH  10  13
ATOM     12  C   UNL     1      -0.692   1.905   1.171  0.00  0.00    +0.026 C 
ATOM     13  C   UNL     1      -0.465   0.431   0.830  0.00  0.00    +0.082 C 
BRANCH  13  14
ATOM     14  C   UNL     1      -1.800  -0.219   0.462  0.00  0.00    -0.021 C 
ATOM     15  C   UNL     1      -2.308   0.369  -0.856  0.00  0.00    +0.012 C 
ATOM     16  C   UNL     1      -1.607  -1.729   0.306  0.00  0.00    +0.012 C 
ATOM     17  C   UNL     1      -2.822   0.053   1.569  0.00  0.00    +0.012 C 
ENDBRANCH  13  14
ENDBRANCH  10  13
ENDBRANCH   7  10
ENDBRANCH   1   7
BRANCH   6  18
ATOM     18  C   UNL     1       2.518   1.284   0.364  0.00  0.00    -0.066 C 
ATOM     19  C   UNL     1       1.948   1.534  -0.631  0.00  0.00    -0.117 C 
BRANCH  19  20
ATOM     20  C   UNL     1       1.233   1.848  -1.879  0.00  0.00    +0.005 C 
BRANCH  20  21
ATOM     21  N   UNL     1       1.821   3.046  -2.493  0.00  0.00    +0.385 N 
ATOM     22  H   UNL     1       1.331   3.260  -3.348  0.00  0.00    -0.089 HD
ATOM     23  H   UNL     1       1.742   3.824  -1.855  0.00  0.00    -0.089 HD
ATOM     24  H   UNL     1       2.794   2.875  -2.697  0.00  0.00    -0.089 HD
ENDBRANCH  20  21
ENDBRANCH  19  20
ENDBRANCH   6  18
TORSDOF 7
