REMARK  Name = ZINC58849246
REMARK  8 active torsions:
REMARK  status: ('A' for Active; 'I' for Inactive)
REMARK    1  A    between atoms: C_1  and  O_2
REMARK    2  A    between atoms: O_2  and  C_3
REMARK    3  A    between atoms: C_6  and  N_11
REMARK    4  A    between atoms: C_7  and  O_9
REMARK    5  A    between atoms: O_9  and  C_10
REMARK    6  A    between atoms: N_11  and  S_12
REMARK    7  A    between atoms: S_12  and  C_15
REMARK    8  A    between atoms: C_28  and  C_31
REMARK                            x       y       z     vdW  Elec       q    Type
REMARK                         _______ _______ _______ _____ _____    ______ ____
ROOT
ATOM      1  C   UNL     1       5.094  -1.721  -3.980  0.00  0.00    +0.109 A 
ATOM      2  C   UNL     1       5.280  -0.680  -3.088  0.00  0.00    +0.030 A 
ATOM      3  C   UNL     1       6.362  -0.697  -2.232  0.00  0.00    +0.025 A 
ATOM      4  C   UNL     1       7.261  -1.758  -2.263  0.00  0.00    +0.031 A 
ATOM      5  C   UNL     1       7.069  -2.808  -3.147  0.00  0.00    -0.018 A 
ATOM      6  C   UNL     1       5.980  -2.780  -4.005  0.00  0.00    +0.034 A 
ATOM      7  C   UNL     1       7.989  -3.982  -3.182  0.00  0.00    +0.049 C 
ATOM      8  C   UNL     1       8.924  -3.935  -4.364  0.00  0.00    -0.023 C 
ATOM      9  C   UNL     1      10.098  -4.412  -4.032  0.00  0.00    -0.030 C 
ATOM     10  C   UNL     1      10.116  -4.839  -2.581  0.00  0.00    +0.033 C 
ATOM     11  C   UNL     1       8.901  -4.108  -1.964  0.00  0.00    +0.029 C 
ATOM     12  C   UNL     1       9.378  -2.778  -1.417  0.00  0.00    +0.105 C 
ATOM     13  N   UNL     1       8.357  -1.751  -1.407  0.00  0.00    -0.336 N 
ATOM     14  H   UNL     1       8.454  -1.010  -0.789  0.00  0.00    +0.147 HD
ENDROOT
BRANCH  12  15
ATOM     15  C   UNL     1      10.553  -2.316  -2.239  0.00  0.00    -0.026 A 
ATOM     16  C   UNL     1      10.345  -1.707  -3.462  0.00  0.00    +0.005 A 
ATOM     17  C   UNL     1      11.423  -1.283  -4.217  0.00  0.00    +0.002 A 
ATOM     18  C   UNL     1      12.710  -1.468  -3.748  0.00  0.00    +0.020 A 
ATOM     19  C   UNL     1      12.919  -2.078  -2.524  0.00  0.00    +0.041 A 
ATOM     20  C   UNL     1      11.840  -2.497  -1.767  0.00  0.00    +0.025 A 
ATOM     21 CL   UNL     1      14.536  -2.311  -1.935  0.00  0.00    -0.084 Cl
ENDBRANCH  12  15
BRANCH   1  22
ATOM     22  S   UNL     1       3.719  -1.699  -5.081  0.00  0.00    +0.072 S 
ATOM     23  O   UNL     1       4.069  -2.523  -6.185  0.00  0.00    -0.150 OA
ATOM     24  O   UNL     1       3.344  -0.337  -5.236  0.00  0.00    -0.150 OA
BRANCH  22  25
ATOM     25  N   UNL     1       2.462  -2.451  -4.309  0.00  0.00    -0.213 N 
ATOM     26  H   UNL     1       2.066  -3.250  -4.692  0.00  0.00    +0.174 HD
BRANCH  25  30
ATOM     27  C   UNL     1       0.996  -0.911  -0.718  0.00  0.00    +0.124 A 
ATOM     28  C   UNL     1       1.446  -0.053  -1.710  0.00  0.00    +0.048 A 
ATOM     29  C   UNL     1       1.932  -0.563  -2.899  0.00  0.00    +0.032 A 
ATOM     30  C   UNL     1       1.970  -1.934  -3.102  0.00  0.00    +0.090 A 
ATOM     31  C   UNL     1       1.518  -2.797  -2.107  0.00  0.00    +0.146 A 
ATOM     32  C   UNL     1       1.037  -2.283  -0.914  0.00  0.00    +0.093 A 
BRANCH  27  34
ATOM     33  C   UNL     1       0.504   1.016   0.586  0.00  0.00    +0.277 C 
ATOM     34  O   UNL     1       0.518  -0.406   0.452  0.00  0.00    -0.495 OA
ENDBRANCH  27  34
BRANCH  31  35
ATOM     35  O   UNL     1       1.554  -4.142  -2.304  0.00  0.00    -0.493 OA
ATOM     36  C   UNL     1       1.075  -4.967  -1.239  0.00  0.00    +0.277 C 
ENDBRANCH  31  35
ENDBRANCH  25  30
ENDBRANCH  22  25
ENDBRANCH   1  22
TORSDOF 6
