REMARK  Name = ZINC45688141
REMARK  8 active torsions:
REMARK  status: ('A' for Active; 'I' for Inactive)
REMARK    1  A    between atoms: C_1  and  C_2
REMARK    2  A    between atoms: C_2  and  O_3
REMARK    3  A    between atoms: O_3  and  C_4
REMARK    4  A    between atoms: C_4  and  C_6
REMARK    5  A    between atoms: C_6  and  C_7
REMARK    6  A    between atoms: C_7  and  N_8
REMARK    7  A    between atoms: N_8  and  C_9
REMARK    8  A    between atoms: C_18  and  N_19
REMARK                            x       y       z     vdW  Elec       q    Type
REMARK                         _______ _______ _______ _____ _____    ______ ____
ROOT
ATOM      1  C   UNL     1       2.335  -5.798  -3.773  0.00  0.00    +0.059 A 
ATOM      2  C   UNL     1       3.318  -6.320  -4.644  0.00  0.00    +0.022 A 
ATOM      3  C   UNL     1       4.138  -5.476  -5.407  0.00  0.00    +0.027 A 
ATOM      4  C   UNL     1       5.075  -6.016  -6.236  0.00  0.00    +0.019 A 
ATOM      5  C   UNL     1       5.229  -7.398  -6.335  0.00  0.00    +0.017 A 
ATOM      6  C   UNL     1       4.450  -8.244  -5.609  0.00  0.00    +0.027 A 
ATOM      7  C   UNL     1       3.472  -7.724  -4.742  0.00  0.00    +0.048 A 
ATOM      8  N   UNL     1       2.695  -8.536  -4.017  0.00  0.00    -0.359 N 
ATOM      9  C   UNL     1       1.777  -8.068  -3.204  0.00  0.00    +0.107 A 
ATOM     10  C   UNL     1       1.566  -6.699  -3.046  0.00  0.00    +0.062 A 
ATOM     11 BR   UNL     1       6.180  -4.877  -7.265  0.00  0.00    -0.050 Br
ATOM     12  H   UNL     1       2.812  -9.496  -4.095  0.00  0.00    +0.165 HD
ENDROOT
BRANCH  10  13
ATOM     13  N   UNL     1       0.581  -6.235  -2.162  0.00  0.00    -0.355 N 
ATOM     14  H   UNL     1       0.376  -5.288  -2.120  0.00  0.00    +0.142 HD
ATOM     15  H   UNL     1       0.105  -6.860  -1.594  0.00  0.00    +0.142 HD
ENDBRANCH  10  13
BRANCH   1  16
ATOM     16  N   UNL     1       2.147  -4.425  -3.643  0.00  0.00    -0.341 N 
ATOM     17  H   UNL     1       1.443  -3.983  -4.143  0.00  0.00    +0.146 HD
BRANCH  16  18
ATOM     18  C   UNL     1       3.012  -3.648  -2.752  0.00  0.00    +0.113 C 
BRANCH  18  19
ATOM     19  C   UNL     1       3.687  -2.528  -3.546  0.00  0.00    +0.139 C 
BRANCH  19  20
ATOM     20  C   UNL     1       4.577  -1.729  -2.630  0.00  0.00    +0.309 C 
ATOM     21  O   UNL     1       4.662  -2.025  -1.461  0.00  0.00    -0.251 OA
BRANCH  20  22
ATOM     22  O   UNL     1       5.275  -0.688  -3.111  0.00  0.00    -0.465 OA
BRANCH  22  24
ATOM     23  C   UNL     1       6.810   1.168  -2.912  0.00  0.00    +0.048 C 
ATOM     24  C   UNL     1       6.098   0.025  -2.186  0.00  0.00    +0.229 C 
ENDBRANCH  22  24
ENDBRANCH  20  22
ENDBRANCH  19  20
ENDBRANCH  18  19
ENDBRANCH  16  18
ENDBRANCH   1  16
TORSDOF 7
