REMARK  Name = ZINC10240436
REMARK  9 active torsions:
REMARK  status: ('A' for Active; 'I' for Inactive)
REMARK    1  A    between atoms: C_1  and  C_2
REMARK    2  A    between atoms: C_2  and  C_4
REMARK    3  A    between atoms: C_2  and  N_11
REMARK    4  A    between atoms: C_12  and  C_14
REMARK    5  A    between atoms: C_14  and  S_15
REMARK    6  A    between atoms: S_15  and  C_16
REMARK    7  A    between atoms: C_19  and  C_24
REMARK    8  A    between atoms: N_20  and  C_21
REMARK    9  A    between atoms: C_21  and  C_22
REMARK                            x       y       z     vdW  Elec       q    Type
REMARK                         _______ _______ _______ _____ _____    ______ ____
ROOT
ATOM      1  S   UNL     1       0.697   4.074   1.348  0.00  0.00    -0.077 S 
ENDROOT
BRANCH   1   2
ATOM      2  C   UNL     1      -0.514   2.864   1.767  0.00  0.00    +0.193 A 
ATOM      3  N   UNL     1      -1.381   2.937   2.752  0.00  0.00    -0.122 NA
ATOM      4  N   UNL     1      -2.112   1.880   2.776  0.00  0.00    -0.128 NA
ATOM      5  C   UNL     1      -1.760   1.070   1.805  0.00  0.00    +0.165 A 
ATOM      6  N   UNL     1      -0.728   1.677   1.127  0.00  0.00    -0.298 N 
BRANCH   5   7
ATOM      7  C   UNL     1      -2.359  -0.247   1.498  0.00  0.00    +0.019 A 
ATOM      8  C   UNL     1      -2.195  -0.814   0.233  0.00  0.00    +0.013 A 
ATOM      9  C   UNL     1      -2.752  -2.044  -0.045  0.00  0.00    +0.021 A 
ATOM     10  C   UNL     1      -3.482  -2.712   0.923  0.00  0.00    +0.041 A 
ATOM     11  C   UNL     1      -3.653  -2.152   2.178  0.00  0.00    +0.021 A 
ATOM     12  C   UNL     1      -3.096  -0.925   2.470  0.00  0.00    +0.013 A 
ATOM     13 CL   UNL     1      -4.185  -4.258   0.563  0.00  0.00    -0.084 Cl
ENDBRANCH   5   7
BRANCH   6  14
ATOM     14  C   UNL     1      -0.005   1.155  -0.036  0.00  0.00    +0.152 C 
BRANCH  14  15
ATOM     15  C   UNL     1      -0.607   1.720  -1.297  0.00  0.00    -0.013 C 
ATOM     16  C   UNL     1      -0.984   0.916  -2.260  0.00  0.00    +0.005 C 
ENDBRANCH  14  15
ENDBRANCH   6  14
ENDBRANCH   1   2
BRANCH   1  17
ATOM     17  C   UNL     1       0.357   5.312   2.624  0.00  0.00    +0.173 C 
BRANCH  17  19
ATOM     18  N   UNL     1       1.232   7.524   3.302  0.00  0.00    -0.308 N 
ATOM     19  C   UNL     1       1.301   6.475   2.458  0.00  0.00    +0.224 C 
ATOM     20  O   UNL     1       2.123   6.467   1.566  0.00  0.00    -0.275 OA
ATOM     21  H   UNL     1       0.575   7.530   4.016  0.00  0.00    +0.149 HD
BRANCH  18  23
ATOM     22  C   UNL     1       1.579   9.633   2.113  0.00  0.00    +0.033 C 
ATOM     23  C   UNL     1       2.150   8.655   3.141  0.00  0.00    +0.100 C 
BRANCH  23  24
ATOM     24  C   UNL     1       2.317   9.358   4.464  0.00  0.00    -0.027 A 
ATOM     25  C   UNL     1       1.225   9.544   5.290  0.00  0.00    +0.006 A 
ATOM     26  C   UNL     1       1.379  10.185   6.505  0.00  0.00    +0.015 A 
ATOM     27  C   UNL     1       2.624  10.648   6.890  0.00  0.00    +0.018 A 
ATOM     28  C   UNL     1       3.716  10.466   6.060  0.00  0.00    +0.015 A 
ATOM     29  C   UNL     1       3.562   9.821   4.848  0.00  0.00    +0.006 A 
ATOM     30 BR   UNL     1       2.834  11.531   8.549  0.00  0.00    -0.050 Br
ENDBRANCH  23  24
ENDBRANCH  18  23
ENDBRANCH  17  19
ENDBRANCH   1  17
TORSDOF 8
