REMARK  Name = ZINC39968173
REMARK  9 active torsions:
REMARK  status: ('A' for Active; 'I' for Inactive)
REMARK    1  A    between atoms: C_1  and  C_2
REMARK    2  A    between atoms: C_4  and  C_20
REMARK    3  A    between atoms: C_5  and  C_19
REMARK    4  A    between atoms: N_6  and  C_7
REMARK    5  A    between atoms: C_9  and  C_16
REMARK    6  A    between atoms: C_10  and  C_15
REMARK    7  A    between atoms: C_11  and  C_14
REMARK    8  A    between atoms: C_21  and  C_22
REMARK    9  A    between atoms: C_21  and  C_24
REMARK                            x       y       z     vdW  Elec       q    Type
REMARK                         _______ _______ _______ _____ _____    ______ ____
ROOT
ATOM      1  C   UNL     1       1.184   1.298  -0.356  0.00  0.00    +0.063 C 
ATOM      2  C   UNL     1       0.800  -0.154  -0.233  0.00  0.00    +0.018 A 
ATOM      3  C   UNL     1       0.412  -0.946  -1.248  0.00  0.00    +0.030 A 
ATOM      4  C   UNL     1       0.141  -2.266  -0.667  0.00  0.00    -0.003 A 
ATOM      5  C   UNL     1       0.398  -2.148   0.683  0.00  0.00    +0.024 A 
ATOM      6  N   UNL     1       0.798  -0.876   0.924  0.00  0.00    -0.331 N 
ATOM      7  C   UNL     1       0.264  -3.243   1.709  0.00  0.00    +0.064 C 
ENDROOT
BRANCH   6   8
ATOM      8  C   UNL     1       1.171  -0.350   2.240  0.00  0.00    +0.183 C 
ATOM      9  C   UNL     1      -0.048  -0.199   3.134  0.00  0.00    +0.073 C 
ATOM     10  C   UNL     1       0.018  -0.659   4.359  0.00  0.00    -0.047 C 
ATOM     11  C   UNL     1       1.309  -1.318   4.813  0.00  0.00    +0.072 C 
ATOM     12  S   UNL     1       2.156  -1.584   3.194  0.00  0.00    -0.123 S 
ATOM     13  C   UNL     1       2.119  -0.381   5.711  0.00  0.00    +0.024 C 
ATOM     14  C   UNL     1      -1.158  -0.539   5.295  0.00  0.00    +0.041 C 
BRANCH   9  15
ATOM     15  C   UNL     1      -1.268   0.447   2.638  0.00  0.00    +0.385 C 
ATOM     16  O   UNL     1      -1.382   1.664   2.691  0.00  0.00    -0.241 OA
ATOM     17  O   UNL     1      -2.173  -0.232   2.171  0.00  0.00    -0.241 OA
ENDBRANCH   9  15
ENDBRANCH   6   8
BRANCH   4  18
ATOM     18  C   UNL     1      -0.312  -3.468  -1.379  0.00  0.00    +0.028 C 
ATOM     19  C   UNL     1      -0.838  -3.362  -2.619  0.00  0.00    +0.072 C 
BRANCH  19  20
ATOM     20  C   UNL     1      -1.161  -4.603  -3.410  0.00  0.00    +0.216 C 
ATOM     21  N   UNL     1      -0.448  -4.582  -4.694  0.00  0.00    -0.359 N 
ATOM     22  C   UNL     1      -1.344  -4.602  -5.638  0.00  0.00    +0.060 A 
ATOM     23  C   UNL     1      -1.251  -4.596  -7.105  0.00  0.00    +0.027 A 
ATOM     24  C   UNL     1      -2.378  -4.621  -7.843  0.00  0.00    +0.002 A 
ATOM     25  C   UNL     1      -3.661  -4.654  -7.268  0.00  0.00    +0.002 A 
ATOM     26  C   UNL     1      -3.859  -4.661  -5.934  0.00  0.00    +0.027 A 
ATOM     27  C   UNL     1      -2.702  -4.636  -5.029  0.00  0.00    +0.060 A 
ATOM     28  N   UNL     1      -2.593  -4.637  -3.732  0.00  0.00    -0.359 N 
ATOM     29  H   UNL     1       0.514  -4.558  -4.816  0.00  0.00    +0.162 HD
ATOM     30  H   UNL     1      -3.324  -4.657  -3.095  0.00  0.00    +0.162 HD
ENDBRANCH  19  20
BRANCH  19  31
ATOM     31  C   UNL     1      -1.087  -2.069  -3.183  0.00  0.00    +0.099 C 
ATOM     32  N   UNL     1      -1.285  -1.043  -3.629  0.00  0.00    -0.191 NA
ENDBRANCH  19  31
ENDBRANCH   4  18
TORSDOF 5
