REMARK  Name = ZINC04065495
REMARK  7 active torsions:
REMARK  status: ('A' for Active; 'I' for Inactive)
REMARK    1  A    between atoms: C_1  and  C_2
REMARK    2  A    between atoms: C_2  and  C_3
REMARK    3  A    between atoms: C_3  and  C_4
REMARK    4  A    between atoms: C_4  and  O_5
REMARK    5  A    between atoms: O_5  and  C_6
REMARK    6  A    between atoms: C_11  and  C_12
REMARK    7  A    between atoms: C_17  and  C_22
REMARK                            x       y       z     vdW  Elec       q    Type
REMARK                         _______ _______ _______ _____ _____    ______ ____
ROOT
ATOM      1  C   UNL     1       2.449   3.948  -0.001  0.00  0.00    +0.139 C 
ATOM      2  C   UNL     1       3.004   3.937  -1.405  0.00  0.00    +0.037 C 
ATOM      3  C   UNL     1       3.068   4.985  -2.239  0.00  0.00    +0.017 C 
ATOM      4  C   UNL     1       3.669   4.834  -3.627  0.00  0.00    +0.059 C 
ATOM      5  C   UNL     1       3.412   3.425  -4.157  0.00  0.00    +0.032 C 
ATOM      6  C   UNL     1       4.058   2.434  -3.182  0.00  0.00    +0.088 C 
ATOM      7  C   UNL     1       3.487   2.668  -1.816  0.00  0.00    +0.163 C 
ATOM      8  O   UNL     1       3.436   1.738  -1.035  0.00  0.00    -0.292 OA
ATOM      9  N   UNL     1       2.637   6.236  -1.938  0.00  0.00    -0.316 N 
ATOM     10  C   UNL     1       1.420   6.537  -1.338  0.00  0.00    +0.052 A 
ATOM     11  C   UNL     1       0.455   7.303  -1.968  0.00  0.00    +0.025 A 
ATOM     12  C   UNL     1      -0.686   7.664  -1.272  0.00  0.00    +0.002 A 
ATOM     13  C   UNL     1      -0.859   7.261   0.040  0.00  0.00    +0.002 A 
ATOM     14  C   UNL     1       0.095   6.476   0.664  0.00  0.00    +0.025 A 
ATOM     15  C   UNL     1       1.229   6.098  -0.037  0.00  0.00    +0.049 A 
ATOM     16  N   UNL     1       2.195   5.270   0.532  0.00  0.00    -0.331 N 
ATOM     17  H   UNL     1       3.224   6.977  -2.157  0.00  0.00    +0.152 HD
ATOM     18  H   UNL     1       2.704   5.583   1.296  0.00  0.00    +0.147 HD
ENDROOT
BRANCH   1  24
ATOM     19  C   UNL     1       0.674   2.643   1.195  0.00  0.00    +0.126 A 
ATOM     20  C   UNL     1      -0.516   1.929   1.199  0.00  0.00    +0.046 A 
ATOM     21  C   UNL     1      -1.214   1.745   0.021  0.00  0.00    +0.004 A 
ATOM     22  C   UNL     1      -0.733   2.279  -1.160  0.00  0.00    +0.001 A 
ATOM     23  C   UNL     1       0.453   2.990  -1.167  0.00  0.00    +0.009 A 
ATOM     24  C   UNL     1       1.157   3.173   0.008  0.00  0.00    +0.019 A 
BRANCH  19  25
ATOM     25  O   UNL     1       1.365   2.821   2.351  0.00  0.00    -0.492 OA
BRANCH  25  26
ATOM     26  C   UNL     1       0.808   2.246   3.535  0.00  0.00    +0.229 C 
BRANCH  26  27
ATOM     27  C   UNL     1       1.719   2.549   4.726  0.00  0.00    +0.041 C 
BRANCH  27  29
ATOM     28  C   UNL     1       2.034   2.236   7.185  0.00  0.00    +0.004 C 
ATOM     29  C   UNL     1       1.123   1.933   5.994  0.00  0.00    -0.000 C 
ENDBRANCH  27  29
ENDBRANCH  26  27
ENDBRANCH  25  26
ENDBRANCH  19  25
ENDBRANCH   1  24
BRANCH   5  30
ATOM     30  C   UNL     1       4.028   3.274  -5.524  0.00  0.00    -0.044 A 
ATOM     31  C   UNL     1       5.389   3.450  -5.691  0.00  0.00    +0.004 A 
ATOM     32  C   UNL     1       5.955   3.306  -6.944  0.00  0.00    +0.000 A 
ATOM     33  C   UNL     1       5.160   2.996  -8.031  0.00  0.00    +0.000 A 
ATOM     34  C   UNL     1       3.798   2.825  -7.864  0.00  0.00    +0.000 A 
ATOM     35  C   UNL     1       3.232   2.964  -6.611  0.00  0.00    +0.004 A 
ENDBRANCH   5  30
TORSDOF 6
