REMARK  Name = ZINC35641295
REMARK  10 active torsions:
REMARK  status: ('A' for Active; 'I' for Inactive)
REMARK    1  A    between atoms: C_1  and  C_2
REMARK    2  A    between atoms: C_2  and  O_3
REMARK    3  A    between atoms: O_3  and  C_4
REMARK    4  A    between atoms: C_4  and  C_6
REMARK    5  A    between atoms: C_7  and  C_25
REMARK    6  A    between atoms: N_8  and  C_22
REMARK    7  A    between atoms: C_12  and  C_14
REMARK    8  A    between atoms: C_22  and  C_23
REMARK    9  A    between atoms: C_25  and  N_26
REMARK   10  A    between atoms: N_29  and  C_32
REMARK                            x       y       z     vdW  Elec       q    Type
REMARK                         _______ _______ _______ _____ _____    ______ ____
ROOT
ATOM      1  C   UNL     1       1.559  -2.321   2.338  0.00  0.00    +0.080 C 
ATOM      2  C   UNL     1       1.453  -3.645   2.584  0.00  0.00    +0.041 C 
ATOM      3  N   UNL     1       1.987  -4.196   3.714  0.00  0.00    -0.254 N 
ATOM      4  C   UNL     1       2.642  -3.493   4.646  0.00  0.00    +0.307 C 
ATOM      5  O   UNL     1       3.082  -4.072   5.619  0.00  0.00    -0.252 OA
ATOM      6  N   UNL     1       2.828  -2.162   4.540  0.00  0.00    -0.288 N 
ATOM      7  C   UNL     1       2.295  -1.472   3.354  0.00  0.00    +0.145 C 
ATOM      8  H   UNL     1       3.305  -1.671   5.228  0.00  0.00    +0.151 HD
ENDROOT
BRANCH   7   9
ATOM      9  C   UNL     1       3.443  -0.795   2.649  0.00  0.00    -0.004 A 
ATOM     10  C   UNL     1       4.691  -1.391   2.632  0.00  0.00    +0.008 A 
ATOM     11  C   UNL     1       5.744  -0.771   1.986  0.00  0.00    +0.020 A 
ATOM     12  C   UNL     1       5.550   0.446   1.356  0.00  0.00    +0.042 A 
ATOM     13  C   UNL     1       4.301   1.042   1.373  0.00  0.00    +0.040 A 
ATOM     14  C   UNL     1       3.247   0.418   2.015  0.00  0.00    +0.048 A 
ATOM     15 CL   UNL     1       1.678   1.163   2.031  0.00  0.00    -0.083 Cl
ATOM     16 CL   UNL     1       6.873   1.224   0.545  0.00  0.00    -0.083 Cl
ENDBRANCH   7   9
BRANCH   1  17
ATOM     17  C   UNL     1       1.007  -1.749   1.168  0.00  0.00    +0.339 C 
ATOM     18  O   UNL     1       1.732  -1.447   0.238  0.00  0.00    -0.245 OA
BRANCH  17  19
ATOM     19  O   UNL     1      -0.323  -1.538   1.083  0.00  0.00    -0.462 OA
BRANCH  19  21
ATOM     20  C   UNL     1      -2.330  -0.794  -0.038  0.00  0.00    +0.048 C 
ATOM     21  C   UNL     1      -0.812  -0.956  -0.127  0.00  0.00    +0.229 C 
ENDBRANCH  19  21
ENDBRANCH  17  19
ENDBRANCH   1  17
BRANCH   3  22
ATOM     22  C   UNL     1       1.834  -5.639   3.917  0.00  0.00    +0.141 C 
BRANCH  22  23
ATOM     23  C   UNL     1       3.004  -6.360   3.299  0.00  0.00    -0.015 C 
ATOM     24  C   UNL     1       3.726  -7.179   4.023  0.00  0.00    +0.005 C 
ENDBRANCH  22  23
ENDBRANCH   3  22
BRANCH   2  25
ATOM     25  C   UNL     1       0.733  -4.527   1.597  0.00  0.00    +0.136 C 
BRANCH  25  26
ATOM     26  N   UNL     1       1.694  -5.446   0.971  0.00  0.00    -0.300 NA
ATOM     27  C   UNL     1       2.658  -4.713   0.139  0.00  0.00    +0.066 C 
ATOM     28  C   UNL     1       3.674  -5.697  -0.446  0.00  0.00    -0.064 C 
ATOM     29  N   UNL     1       2.972  -6.705  -1.251  0.00  0.00    +0.379 N 
ATOM     30  C   UNL     1       2.030  -7.445  -0.401  0.00  0.00    -0.064 C 
ATOM     31  C   UNL     1       1.001  -6.476   0.184  0.00  0.00    +0.066 C 
ATOM     32  C   UNL     1       3.949  -7.639  -1.827  0.00  0.00    -0.096 C 
ATOM     33  H   UNL     1       2.465  -6.248  -1.995  0.00  0.00    -0.082 HD
ENDBRANCH  25  26
ENDBRANCH   2  25
TORSDOF 8
