REMARK  Name = ZINC04384559
REMARK  10 active torsions:
REMARK  status: ('A' for Active; 'I' for Inactive)
REMARK    1  A    between atoms: C_1  and  C_2
REMARK    2  A    between atoms: C_4  and  C_31
REMARK    3  A    between atoms: C_6  and  N_8
REMARK    4  A    between atoms: N_8  and  C_9
REMARK    5  A    between atoms: C_9  and  C_10
REMARK    6  A    between atoms: C_10  and  C_12
REMARK    7  A    between atoms: C_10  and  O_30
REMARK    8  A    between atoms: C_12  and  N_13
REMARK    9  A    between atoms: C_22  and  C_28
REMARK   10  A    between atoms: C_23  and  C_27
REMARK                            x       y       z     vdW  Elec       q    Type
REMARK                         _______ _______ _______ _____ _____    ______ ____
ROOT
ATOM      1  N   UNL     1      -2.108   1.411   1.279  0.00  0.00    -0.322 N 
ATOM      2  C   UNL     1      -2.528   0.212   1.840  0.00  0.00    +0.068 A 
ATOM      3  C   UNL     1      -1.861  -0.805   2.511  0.00  0.00    +0.028 A 
ATOM      4  C   UNL     1      -2.562  -1.903   2.965  0.00  0.00    +0.002 A 
ATOM      5  C   UNL     1      -3.928  -1.996   2.756  0.00  0.00    +0.002 A 
ATOM      6  C   UNL     1      -4.601  -0.990   2.091  0.00  0.00    +0.028 A 
ATOM      7  C   UNL     1      -3.905   0.118   1.629  0.00  0.00    +0.075 A 
ATOM      8  N   UNL     1      -4.297   1.266   0.942  0.00  0.00    -0.260 N 
ATOM      9  C   UNL     1      -3.196   2.039   0.744  0.00  0.00    +0.140 A 
ATOM     10  C   UNL     1      -3.313   3.266   0.075  0.00  0.00    +0.096 A 
ATOM     11  C   UNL     1      -4.576   3.686  -0.383  0.00  0.00    -0.024 A 
ATOM     12  C   UNL     1      -5.661   2.888  -0.165  0.00  0.00    +0.075 A 
ATOM     13  C   UNL     1      -5.505   1.666   0.499  0.00  0.00    +0.258 A 
ATOM     14  O   UNL     1      -6.481   0.958   0.692  0.00  0.00    -0.267 OA
ATOM     15  C   UNL     1      -4.728   5.001  -1.105  0.00  0.00    +0.045 C 
ENDROOT
BRANCH  10  16
ATOM     16  C   UNL     1      -2.157   4.084  -0.140  0.00  0.00    +0.103 C 
ATOM     17  N   UNL     1      -1.241   4.733  -0.311  0.00  0.00    -0.191 NA
ENDBRANCH  10  16
BRANCH   1  18
ATOM     18  C   UNL     1      -0.733   1.918   1.269  0.00  0.00    +0.156 C 
BRANCH  18  19
ATOM     19  C   UNL     1      -0.017   1.425   0.010  0.00  0.00    +0.151 C 
BRANCH  19  20
ATOM     20  O   UNL     1       0.002  -0.004   0.002  0.00  0.00    -0.388 OA
ATOM     21  H   UNL     1       0.456  -0.395   0.761  0.00  0.00    +0.210 HD
ENDBRANCH  19  20
BRANCH  19  22
ATOM     22  C   UNL     1       1.418   1.954  -0.001  0.00  0.00    +0.134 C 
BRANCH  22  23
ATOM     23  N   UNL     1       2.066   1.583  -1.261  0.00  0.00    -0.341 N 
ATOM     24  H   UNL     1       1.576   1.076  -1.927  0.00  0.00    +0.146 HD
BRANCH  23  30
ATOM     25  C   UNL     1       6.164   3.842   0.240  0.00  0.00    +0.044 C 
ATOM     26  C   UNL     1       5.401   3.054  -0.793  0.00  0.00    -0.048 A 
ATOM     27  C   UNL     1       6.011   2.702  -1.983  0.00  0.00    +0.006 A 
ATOM     28  C   UNL     1       5.314   1.979  -2.933  0.00  0.00    -0.048 A 
ATOM     29  C   UNL     1       4.006   1.606  -2.697  0.00  0.00    +0.026 A 
ATOM     30  C   UNL     1       3.390   1.958  -1.503  0.00  0.00    +0.028 A 
ATOM     31  C   UNL     1       4.091   2.689  -0.552  0.00  0.00    +0.026 A 
ATOM     32  C   UNL     1       5.984   1.598  -4.229  0.00  0.00    +0.044 C 
ENDBRANCH  23  30
ENDBRANCH  22  23
ENDBRANCH  19  22
ENDBRANCH  18  19
ENDBRANCH   1  18
TORSDOF 7
