REMARK  Name = ZINC36144610
REMARK  6 active torsions:
REMARK  status: ('A' for Active; 'I' for Inactive)
REMARK    1  A    between atoms: C_1  and  C_2
REMARK    2  A    between atoms: C_6  and  C_9
REMARK    3  A    between atoms: N_16  and  C_18
REMARK    4  A    between atoms: C_18  and  C_19
REMARK    5  A    between atoms: C_19  and  C_20
REMARK    6  A    between atoms: C_20  and  N_21
REMARK                            x       y       z     vdW  Elec       q    Type
REMARK                         _______ _______ _______ _____ _____    ______ ____
ROOT
ATOM      1  C   UNL     1      -0.018   1.503   0.010  0.00  0.00    +0.045 C 
ATOM      2  C   UNL     1       0.002  -0.004   0.002  0.00  0.00    -0.028 A 
ATOM      3  C   UNL     1       0.006  -0.684  -1.203  0.00  0.00    +0.051 A 
ATOM      4  C   UNL     1       0.025  -2.066  -1.213  0.00  0.00    +0.130 A 
ATOM      5  C   UNL     1       0.041  -2.771  -0.001  0.00  0.00    +0.021 A 
ATOM      6  C   UNL     1       0.036  -2.080   1.206  0.00  0.00    -0.021 A 
ATOM      7  C   UNL     1       0.023  -0.698   1.200  0.00  0.00    +0.048 A 
ATOM      8 CL   UNL     1       0.025   0.173   2.703  0.00  0.00    -0.083 Cl
ATOM      9  C   UNL     1       0.053  -2.834   2.511  0.00  0.00    +0.046 C 
ATOM     10  C   UNL     1       0.063  -4.249  -0.041  0.00  0.00    +0.011 C 
ATOM     11  C   UNL     1       0.387  -4.839  -1.191  0.00  0.00    +0.022 C 
ATOM     12  C   UNL     1       0.726  -4.004  -2.393  0.00  0.00    +0.143 C 
ATOM     13  O   UNL     1       0.028  -2.763  -2.379  0.00  0.00    -0.480 OA
ATOM     14  C   UNL     1       2.244  -3.754  -2.450  0.00  0.00    +0.069 C 
ATOM     15  C   UNL     1       2.705  -4.404  -3.773  0.00  0.00    +0.089 C 
ATOM     16  N   UNL     1       1.486  -4.430  -4.622  0.00  0.00    -0.298 NA
ATOM     17  C   UNL     1       0.391  -4.780  -3.681  0.00  0.00    +0.136 C 
ENDROOT
BRANCH  16  18
ATOM     18  C   UNL     1       1.607  -5.436  -5.686  0.00  0.00    +0.082 C 
BRANCH  18  19
ATOM     19  C   UNL     1       2.651  -4.976  -6.706  0.00  0.00    -0.004 C 
BRANCH  19  20
ATOM     20  C   UNL     1       2.777  -6.023  -7.814  0.00  0.00    -0.085 C 
BRANCH  20  21
ATOM     21  N   UNL     1       3.779  -5.582  -8.794  0.00  0.00    +0.378 N 
ATOM     22  H   UNL     1       3.862  -6.272  -9.524  0.00  0.00    -0.090 HD
ATOM     23  H   UNL     1       3.493  -4.701  -9.194  0.00  0.00    -0.090 HD
ATOM     24  H   UNL     1       4.671  -5.468  -8.335  0.00  0.00    -0.090 HD
ENDBRANCH  20  21
ENDBRANCH  19  20
ENDBRANCH  18  19
ENDBRANCH  16  18
TORSDOF 4
