REMARK  Name = ZINC12329713
REMARK  7 active torsions:
REMARK  status: ('A' for Active; 'I' for Inactive)
REMARK    1  A    between atoms: C_1  and  C_2
REMARK    2  A    between atoms: C_8  and  O_32
REMARK    3  A    between atoms: C_17  and  C_18
REMARK    4  A    between atoms: C_17  and  N_60
REMARK    5  A    between atoms: C_18  and  C_20
REMARK    6  A    between atoms: C_18  and  O_31
REMARK    7  A    between atoms: C_28  and  C_30
REMARK                            x       y       z     vdW  Elec       q    Type
REMARK                         _______ _______ _______ _____ _____    ______ ____
ROOT
ATOM      1  C   UNL     1       1.232   0.319   4.174  0.00  0.00    +0.044 C 
ATOM      2  C   UNL     1       0.332   0.578   2.994  0.00  0.00    -0.050 A 
ATOM      3  C   UNL     1      -0.883   1.214   3.176  0.00  0.00    +0.007 A 
ATOM      4  C   UNL     1      -1.705   1.453   2.095  0.00  0.00    +0.046 A 
ATOM      5  C   UNL     1      -1.316   1.058   0.819  0.00  0.00    +0.127 A 
ATOM      6  C   UNL     1      -0.102   0.418   0.639  0.00  0.00    +0.023 A 
ATOM      7  C   UNL     1       0.719   0.181   1.729  0.00  0.00    +0.013 A 
ATOM      8  C   UNL     1       0.354  -0.033  -0.725  0.00  0.00    +0.152 C 
ATOM      9  C   UNL     1      -0.443   0.705  -1.804  0.00  0.00    +0.084 C 
ATOM     10  C   UNL     1      -1.930   0.623  -1.447  0.00  0.00    +0.110 C 
ATOM     11  O   UNL     1      -2.147   1.323  -0.223  0.00  0.00    -0.485 OA
ATOM     12  C   UNL     1      -2.758   1.262  -2.564  0.00  0.00    +0.029 C 
ATOM     13  C   UNL     1      -4.246   1.120  -2.236  0.00  0.00    -0.075 C 
ATOM     14  C   UNL     1      -3.839  -0.922  -0.996  0.00  0.00    -0.075 C 
ATOM     15  C   UNL     1      -2.338  -0.843  -1.287  0.00  0.00    +0.029 C 
ATOM     16  N   UNL     1      -4.578  -0.316  -2.124  0.00  0.00    +0.382 N 
ATOM     17  H   UNL     1      -4.305  -0.789  -2.994  0.00  0.00    -0.082 HD
ENDROOT
BRANCH   8  18
ATOM     18  O   UNL     1       1.745   0.256  -0.880  0.00  0.00    -0.387 OA
ATOM     19  H   UNL     1       2.312  -0.180  -0.230  0.00  0.00    +0.210 HD
ENDBRANCH   8  18
BRANCH  16  20
ATOM     20  C   UNL     1      -6.032  -0.484  -1.922  0.00  0.00    -0.042 C 
BRANCH  20  21
ATOM     21  C   UNL     1      -6.778   0.254  -3.036  0.00  0.00    +0.130 C 
BRANCH  21  22
ATOM     22  C   UNL     1      -8.261   0.042  -2.873  0.00  0.00    +0.004 A 
ATOM     23  C   UNL     1      -9.006  -0.895  -3.481  0.00  0.00    +0.089 A 
ATOM     24  N   UNL     1     -10.311  -0.782  -3.088  0.00  0.00    -0.360 N 
ATOM     25  H   UNL     1     -11.037  -1.349  -3.393  0.00  0.00    +0.165 HD
ATOM     26  C   UNL     1     -10.442   0.257  -2.193  0.00  0.00    +0.047 A 
ATOM     27  C   UNL     1      -9.163   0.815  -2.015  0.00  0.00    +0.005 A 
ATOM     28  C   UNL     1      -8.991   1.902  -1.157  0.00  0.00    +0.010 A 
ATOM     29  C   UNL     1     -10.066   2.413  -0.484  0.00  0.00    +0.004 A 
ATOM     30  C   UNL     1     -11.329   1.862  -0.653  0.00  0.00    -0.048 A 
ATOM     31  C   UNL     1     -11.522   0.793  -1.499  0.00  0.00    +0.029 A 
ATOM     32  C   UNL     1     -12.500   2.441   0.098  0.00  0.00    +0.044 C 
ENDBRANCH  21  22
BRANCH  21  33
ATOM     33  O   UNL     1      -6.361  -0.253  -4.305  0.00  0.00    -0.389 OA
ATOM     34  H   UNL     1      -6.530  -1.197  -4.426  0.00  0.00    +0.210 HD
ENDBRANCH  21  33
ENDBRANCH  20  21
ENDBRANCH  16  20
TORSDOF 5
