REMARK  Name = ZINC04949388
REMARK  7 active torsions:
REMARK  status: ('A' for Active; 'I' for Inactive)
REMARK    1  A    between atoms: C_1  and  C_2
REMARK    2  A    between atoms: C_2  and  C_32
REMARK    3  A    between atoms: C_6  and  C_20
REMARK    4  A    between atoms: C_11  and  C_13
REMARK    5  A    between atoms: C_23  and  O_27
REMARK    6  A    between atoms: C_24  and  O_26
REMARK    7  A    between atoms: O_27  and  C_28
REMARK                            x       y       z     vdW  Elec       q    Type
REMARK                         _______ _______ _______ _____ _____    ______ ____
ROOT
ATOM      1  C   UNL     1      -0.019   1.526   0.010  0.00  0.00    +0.011 C 
ATOM      2  C   UNL     1       0.002  -0.004   0.002  0.00  0.00    -0.023 C 
ATOM      3  C   UNL     1      -1.431  -0.539   0.041  0.00  0.00    +0.058 C 
ATOM      4  C   UNL     1      -1.409  -2.049   0.077  0.00  0.00    +0.020 C 
ATOM      5  C   UNL     1      -0.393  -2.714   0.667  0.00  0.00    +0.041 C 
ATOM      6  C   UNL     1      -0.342  -4.226   0.717  0.00  0.00    +0.176 C 
ATOM      7  N   UNL     1      -1.642  -4.780   0.361  0.00  0.00    -0.220 N 
ATOM      8  C   UNL     1      -2.630  -4.054  -0.221  0.00  0.00    +0.219 A 
ATOM      9  N   UNL     1      -3.652  -4.839  -0.415  0.00  0.00    -0.193 NA
ATOM     10  C   UNL     1      -3.361  -6.073   0.032  0.00  0.00    +0.183 A 
ATOM     11  N   UNL     1      -2.136  -6.075   0.517  0.00  0.00    -0.147 NA
ATOM     12  N   UNL     1      -2.464  -2.708  -0.507  0.00  0.00    -0.287 N 
ATOM     13  C   UNL     1       0.675  -2.019   1.263  0.00  0.00    +0.164 C 
ATOM     14  O   UNL     1       1.564  -2.646   1.806  0.00  0.00    -0.292 OA
ATOM     15  C   UNL     1       0.742  -0.517   1.242  0.00  0.00    +0.086 C 
ATOM     16  C   UNL     1       0.706  -0.503  -1.262  0.00  0.00    +0.011 C 
ATOM     17  H   UNL     1      -3.074  -2.245  -1.102  0.00  0.00    +0.155 HD
ENDROOT
BRANCH  10  18
ATOM     18  C   UNL     1      -4.273  -7.243  -0.012  0.00  0.00    +0.021 A 
ATOM     19  C   UNL     1      -3.857  -8.473   0.492  0.00  0.00    +0.011 A 
ATOM     20  C   UNL     1      -4.709  -9.558   0.448  0.00  0.00    +0.001 A 
ATOM     21  C   UNL     1      -5.974  -9.425  -0.094  0.00  0.00    +0.000 A 
ATOM     22  C   UNL     1      -6.393  -8.206  -0.595  0.00  0.00    +0.001 A 
ATOM     23  C   UNL     1      -5.551  -7.113  -0.551  0.00  0.00    +0.011 A 
ENDBRANCH  10  18
BRANCH   6  24
ATOM     24  C   UNL     1       0.696  -4.724  -0.256  0.00  0.00    -0.015 A 
ATOM     25  C   UNL     1       0.576  -4.431  -1.602  0.00  0.00    +0.010 A 
ATOM     26  C   UNL     1       1.525  -4.886  -2.498  0.00  0.00    +0.050 A 
ATOM     27  C   UNL     1       2.599  -5.636  -2.049  0.00  0.00    +0.161 A 
ATOM     28  C   UNL     1       2.720  -5.930  -0.694  0.00  0.00    +0.159 A 
ATOM     29  C   UNL     1       1.768  -5.467   0.200  0.00  0.00    +0.055 A 
BRANCH  28  30
ATOM     30  O   UNL     1       3.773  -6.666  -0.247  0.00  0.00    -0.503 OA
ATOM     31  H   UNL     1       4.545  -6.139   0.001  0.00  0.00    +0.292 HD
ENDBRANCH  28  30
BRANCH  27  32
ATOM     32  O   UNL     1       3.534  -6.084  -2.929  0.00  0.00    -0.491 OA
ATOM     33  C   UNL     1       3.345  -5.745  -4.304  0.00  0.00    +0.277 C 
ENDBRANCH  27  32
ENDBRANCH   6  24
TORSDOF 4
