REMARK  Name = ZINC09090677
REMARK  8 active torsions:
REMARK  status: ('A' for Active; 'I' for Inactive)
REMARK    1  A    between atoms: C_2  and  C_3
REMARK    2  A    between atoms: C_3  and  N_4
REMARK    3  A    between atoms: N_4  and  C_5
REMARK    4  A    between atoms: C_5  and  N_7
REMARK    5  A    between atoms: C_12  and  N_62
REMARK    6  A    between atoms: C_24  and  N_26
REMARK    7  A    between atoms: N_26  and  S_27
REMARK    8  A    between atoms: S_27  and  C_30
REMARK                            x       y       z     vdW  Elec       q    Type
REMARK                         _______ _______ _______ _____ _____    ______ ____
ROOT
ATOM      1  C   UNL     1      -3.537   1.248   6.980  0.00  0.00    -0.014 C 
ATOM      2  C   UNL     1      -2.981   1.434   8.371  0.00  0.00    -0.051 A 
ATOM      3  C   UNL     1      -1.921   0.920   9.054  0.00  0.00    +0.003 A 
ATOM      4  C   UNL     1      -1.674   1.311  10.372  0.00  0.00    +0.001 A 
ATOM      5  C   UNL     1      -2.467   2.208  11.028  0.00  0.00    +0.008 A 
ATOM      6  C   UNL     1      -3.570   2.756  10.354  0.00  0.00    -0.017 A 
ATOM      7  C   UNL     1      -3.798   2.348   9.027  0.00  0.00    -0.012 A 
ATOM      8  C   UNL     1      -4.860   2.826   8.266  0.00  0.00    -0.022 A 
ATOM      9  C   UNL     1      -5.704   3.726   8.842  0.00  0.00    +0.006 A 
ATOM     10  C   UNL     1      -5.497   4.146  10.158  0.00  0.00    +0.001 A 
ATOM     11  C   UNL     1      -4.460   3.686  10.916  0.00  0.00    +0.008 A 
ATOM     12  C   UNL     1      -4.777   2.166   6.909  0.00  0.00    +0.098 C 
ENDROOT
BRANCH   1  18
ATOM     13  N   UNL     1      -0.102   2.411   4.867  0.00  0.00    -0.316 N 
ATOM     14  C   UNL     1      -0.561   1.026   4.680  0.00  0.00    +0.088 C 
ATOM     15  C   UNL     1      -1.473   0.657   5.861  0.00  0.00    -0.059 C 
ATOM     16  C   UNL     1      -2.002   2.986   6.283  0.00  0.00    -0.059 C 
ATOM     17  C   UNL     1      -1.111   3.450   5.125  0.00  0.00    +0.088 C 
ATOM     18  N   UNL     1      -2.559   1.657   5.951  0.00  0.00    +0.388 N 
ATOM     19  H   UNL     1      -3.035   1.714   5.043  0.00  0.00    -0.081 HD
BRANCH  13  20
ATOM     20  C   UNL     1       1.207   2.721   4.797  0.00  0.00    +0.133 C 
ATOM     21  S   UNL     1       2.349   1.520   4.367  0.00  0.00    -0.019 S 
BRANCH  20  22
ATOM     22  N   UNL     1       1.618   3.976   5.066  0.00  0.00    -0.323 N 
ATOM     23  H   UNL     1       0.966   4.673   5.238  0.00  0.00    +0.148 HD
BRANCH  22  24
ATOM     24  C   UNL     1       3.049   4.287   5.100  0.00  0.00    +0.130 C 
BRANCH  24  26
ATOM     25  C   UNL     1       3.989   6.104   6.433  0.00  0.00    +0.005 C 
ATOM     26  C   UNL     1       3.239   5.748   5.420  0.00  0.00    -0.016 C 
ENDBRANCH  24  26
ENDBRANCH  22  24
ENDBRANCH  20  22
ENDBRANCH  13  20
ENDBRANCH   1  18
BRANCH  12  27
ATOM     27  N   UNL     1      -5.982   1.372   6.655  0.00  0.00    -0.184 NA
ATOM     28  H   UNL     1      -6.067   0.484   7.035  0.00  0.00    +0.149 HD
BRANCH  27  29
ATOM     29  S   UNL     1      -7.199   1.992   5.719  0.00  0.00    +0.059 S 
ATOM     30  O   UNL     1      -8.201   0.987   5.639  0.00  0.00    -0.153 OA
ATOM     31  O   UNL     1      -7.467   3.297   6.212  0.00  0.00    -0.153 OA
BRANCH  29  32
ATOM     32  C   UNL     1      -6.555   2.191   4.091  0.00  0.00    +0.105 A 
ATOM     33  C   UNL     1      -5.955   3.381   3.726  0.00  0.00    +0.028 A 
ATOM     34  C   UNL     1      -5.444   3.535   2.451  0.00  0.00    +0.002 A 
ATOM     35  C   UNL     1      -5.545   2.503   1.537  0.00  0.00    +0.000 A 
ATOM     36  C   UNL     1      -6.150   1.315   1.900  0.00  0.00    +0.002 A 
ATOM     37  C   UNL     1      -6.655   1.158   3.177  0.00  0.00    +0.028 A 
ENDBRANCH  29  32
ENDBRANCH  27  29
ENDBRANCH  12  27
TORSDOF 8
