REMARK  Name = ZINC04146182
REMARK  7 active torsions:
REMARK  status: ('A' for Active; 'I' for Inactive)
REMARK    1  A    between atoms: C_1  and  C_2
REMARK    2  A    between atoms: C_3  and  C_33
REMARK    3  A    between atoms: C_4  and  C_13
REMARK    4  A    between atoms: C_16  and  N_19
REMARK    5  A    between atoms: N_19  and  S_20
REMARK    6  A    between atoms: S_20  and  C_23
REMARK    7  A    between atoms: N_35  and  C_36
REMARK                            x       y       z     vdW  Elec       q    Type
REMARK                         _______ _______ _______ _____ _____    ______ ____
ROOT
ATOM      1  C   UNL     1      -1.379  -2.573  -1.527  0.00  0.00    -0.022 A 
ATOM      2  C   UNL     1      -0.281  -2.496  -2.364  0.00  0.00    +0.007 A 
ATOM      3  C   UNL     1      -0.384  -2.908  -3.679  0.00  0.00    +0.025 A 
ATOM      4  C   UNL     1      -1.591  -3.399  -4.159  0.00  0.00    +0.048 A 
ATOM      5  C   UNL     1      -2.692  -3.475  -3.314  0.00  0.00    +0.025 A 
ATOM      6  C   UNL     1      -2.581  -3.067  -2.000  0.00  0.00    +0.007 A 
ENDROOT
BRANCH   1  10
ATOM      7  C   UNL     1      -0.340   1.635  -0.033  0.00  0.00    +0.064 C 
ATOM      8  C   UNL     1      -0.236   0.132  -0.028  0.00  0.00    +0.025 C 
ATOM      9  C   UNL     1      -1.371  -0.619  -0.025  0.00  0.00    +0.058 C 
ATOM     10  C   UNL     1      -1.263  -2.122  -0.093  0.00  0.00    +0.142 C 
ATOM     11  N   UNL     1       0.044  -2.530   0.452  0.00  0.00    -0.300 N 
ATOM     12  C   UNL     1       0.103  -3.753   1.244  0.00  0.00    +0.109 C 
ATOM     13  C   UNL     1       1.341  -4.589   0.959  0.00  0.00    +0.030 C 
ATOM     14  C   UNL     1       2.590  -3.815   1.406  0.00  0.00    +0.078 C 
ATOM     15  S   UNL     1       2.766  -2.381   0.301  0.00  0.00    -0.092 S 
ATOM     16  C   UNL     1       1.126  -1.734   0.224  0.00  0.00    +0.135 C 
ATOM     17  N   UNL     1       0.964  -0.442  -0.032  0.00  0.00    -0.341 N 
ATOM     18  H   UNL     1       1.744   0.102  -0.225  0.00  0.00    +0.167 HD
BRANCH   9  19
ATOM     19  C   UNL     1      -2.633   0.000   0.041  0.00  0.00    +0.244 C 
ATOM     20  O   UNL     1      -2.713   1.215   0.096  0.00  0.00    -0.270 OA
ATOM     21  N   UNL     1      -3.753  -0.750   0.043  0.00  0.00    -0.315 N 
ATOM     22  C   UNL     1      -5.066  -0.105   0.113  0.00  0.00    +0.128 C 
ATOM     23  H   UNL     1      -3.689  -1.717  -0.000  0.00  0.00    +0.149 HD
ENDBRANCH   9  19
ENDBRANCH   1  10
BRANCH   4  24
ATOM     24  N   UNL     1      -1.698  -3.816  -5.487  0.00  0.00    -0.216 N 
ATOM     25  H   UNL     1      -1.341  -3.263  -6.200  0.00  0.00    +0.174 HD
BRANCH  24  26
ATOM     26  S   UNL     1      -2.435  -5.255  -5.847  0.00  0.00    +0.072 S 
ATOM     27  O   UNL     1      -3.703  -5.234  -5.205  0.00  0.00    -0.150 OA
ATOM     28  O   UNL     1      -2.295  -5.444  -7.248  0.00  0.00    -0.150 OA
BRANCH  26  29
ATOM     29  C   UNL     1      -1.498  -6.529  -5.070  0.00  0.00    +0.109 A 
ATOM     30  C   UNL     1      -0.378  -7.049  -5.717  0.00  0.00    +0.029 A 
ATOM     31  C   UNL     1       0.367  -8.034  -5.144  0.00  0.00    +0.010 A 
ATOM     32  C   UNL     1       0.005  -8.536  -3.883  0.00  0.00    -0.018 A 
ATOM     33  C   UNL     1       0.750  -9.552  -3.260  0.00  0.00    +0.008 A 
ATOM     34  C   UNL     1       0.369 -10.013  -2.038  0.00  0.00    +0.001 A 
ATOM     35  C   UNL     1      -0.750  -9.493  -1.391  0.00  0.00    +0.001 A 
ATOM     36  C   UNL     1      -1.496  -8.508  -1.963  0.00  0.00    +0.008 A 
ATOM     37  C   UNL     1      -1.134  -8.007  -3.225  0.00  0.00    -0.016 A 
ATOM     38  C   UNL     1      -1.876  -6.987  -3.845  0.00  0.00    +0.037 A 
ENDBRANCH  26  29
ENDBRANCH  24  26
ENDBRANCH   4  24
TORSDOF 5
