REMARK  Name = ZINC62174396
REMARK  7 active torsions:
REMARK  status: ('A' for Active; 'I' for Inactive)
REMARK    1  A    between atoms: C_1  and  C_2
REMARK    2  A    between atoms: C_4  and  C_25
REMARK    3  A    between atoms: C_10  and  N_15
REMARK    4  A    between atoms: C_12  and  O_14
REMARK    5  A    between atoms: C_20  and  C_22
REMARK    6  A    between atoms: C_22  and  C_23
REMARK    7  A    between atoms: C_23  and  O_24
REMARK                            x       y       z     vdW  Elec       q    Type
REMARK                         _______ _______ _______ _____ _____    ______ ____
ROOT
ATOM      1  C   UNL     1       0.359   1.501   0.327  0.00  0.00    +0.044 C 
ATOM      2  C   UNL     1       0.369  -0.004   0.265  0.00  0.00    -0.047 A 
ATOM      3  C   UNL     1       0.636  -0.646  -0.930  0.00  0.00    +0.007 A 
ATOM      4  C   UNL     1       0.643  -2.026  -0.986  0.00  0.00    -0.041 A 
ATOM      5  C   UNL     1       0.384  -2.773   0.151  0.00  0.00    +0.024 A 
ATOM      6  C   UNL     1       0.120  -2.134   1.349  0.00  0.00    +0.126 A 
ATOM      7  C   UNL     1       0.117  -0.744   1.403  0.00  0.00    +0.049 A 
ATOM      8  O   UNL     1      -0.128  -2.827   2.491  0.00  0.00    -0.493 OA
ATOM      9  C   UNL     1      -0.482  -4.206   2.372  0.00  0.00    +0.217 C 
ATOM     10  C   UNL     1       0.533  -4.888   1.446  0.00  0.00    +0.004 C 
ATOM     11  C   UNL     1       0.395  -4.277   0.049  0.00  0.00    +0.138 C 
ATOM     12  C   UNL     1       0.933  -2.722  -2.291  0.00  0.00    +0.044 C 
ENDROOT
BRANCH  10  13
ATOM     13  N   UNL     1       0.258  -6.330   1.386  0.00  0.00    +0.388 N 
ATOM     14  C   UNL     1      -1.181  -6.545   1.192  0.00  0.00    -0.078 C 
ATOM     15  C   UNL     1      -1.484  -8.044   1.210  0.00  0.00    -0.019 C 
ATOM     16  C   UNL     1      -0.706  -8.730   0.083  0.00  0.00    -0.003 C 
ATOM     17  C   UNL     1       0.787  -8.438   0.254  0.00  0.00    -0.015 C 
ATOM     18  C   UNL     1       1.006  -6.923   0.271  0.00  0.00    -0.066 C 
ATOM     19  H   UNL     1       0.547  -6.762   2.251  0.00  0.00    -0.081 HD
BRANCH  18  20
ATOM     20  C   UNL     1       2.497  -6.626   0.442  0.00  0.00    +0.012 C 
BRANCH  20  21
ATOM     21  C   UNL     1       3.258  -7.114  -0.792  0.00  0.00    +0.154 C 
BRANCH  21  22
ATOM     22  O   UNL     1       4.660  -6.912  -0.598  0.00  0.00    -0.395 OA
ATOM     23  H   UNL     1       5.206  -7.200  -1.342  0.00  0.00    +0.209 HD
ENDBRANCH  21  22
ENDBRANCH  20  21
ENDBRANCH  18  20
ENDBRANCH  10  13
BRANCH  11  24
ATOM     24  O   UNL     1      -0.825  -4.723  -0.547  0.00  0.00    -0.389 OA
ATOM     25  H   UNL     1      -0.978  -4.377  -1.437  0.00  0.00    +0.210 HD
ENDBRANCH  11  24
TORSDOF 5
