REMARK  Name = ZINC46743866
REMARK  9 active torsions:
REMARK  status: ('A' for Active; 'I' for Inactive)
REMARK    1  A    between atoms: C_1  and  C_2
REMARK    2  A    between atoms: C_2  and  O_3
REMARK    3  A    between atoms: O_3  and  C_4
REMARK    4  A    between atoms: C_7  and  C_10
REMARK    5  A    between atoms: C_12  and  C_15
REMARK    6  A    between atoms: C_15  and  C_16
REMARK    7  A    between atoms: N_18  and  C_19
REMARK    8  A    between atoms: C_24  and  C_29
REMARK    9  A    between atoms: C_26  and  C_28
REMARK                            x       y       z     vdW  Elec       q    Type
REMARK                         _______ _______ _______ _____ _____    ______ ____
ROOT
ATOM      1  C   UNL     1       1.108  -6.015  -1.844  0.00  0.00    +0.109 A 
ATOM      2  N   UNL     1       1.680  -6.702  -2.823  0.00  0.00    -0.243 NA
ATOM      3  C   UNL     1       1.690  -8.015  -2.818  0.00  0.00    +0.058 A 
ATOM      4  C   UNL     1       1.107  -8.693  -1.796  0.00  0.00    +0.071 A 
ATOM      5  S   UNL     1       0.521  -7.335  -0.790  0.00  0.00    -0.075 S 
ENDROOT
BRANCH   1   9
ATOM      6  C   UNL     1       0.777  -1.810  -1.336  0.00  0.00    +0.121 A 
ATOM      7  C   UNL     1       0.241  -2.666  -0.384  0.00  0.00    +0.046 A 
ATOM      8  C   UNL     1       0.346  -4.031  -0.545  0.00  0.00    +0.014 A 
ATOM      9  C   UNL     1       0.993  -4.552  -1.667  0.00  0.00    +0.007 A 
ATOM     10  C   UNL     1       1.530  -3.687  -2.623  0.00  0.00    +0.014 A 
ATOM     11  C   UNL     1       1.415  -2.324  -2.457  0.00  0.00    +0.046 A 
BRANCH   6  12
ATOM     12  O   UNL     1       0.671  -0.465  -1.174  0.00  0.00    -0.492 OA
BRANCH  12  14
ATOM     13  C   UNL     1      -0.019   1.526   0.010  0.00  0.00    +0.048 C 
ATOM     14  C   UNL     1       0.002  -0.004   0.002  0.00  0.00    +0.225 C 
ENDBRANCH  12  14
ENDBRANCH   6  12
ENDBRANCH   1   9
BRANCH   3  15
ATOM     15  C   UNL     1       2.348  -8.768  -3.945  0.00  0.00    +0.151 C 
BRANCH  15  16
ATOM     16  C   UNL     1       1.758  -8.323  -5.259  0.00  0.00    +0.219 C 
ATOM     17  O   UNL     1       0.889  -7.477  -5.278  0.00  0.00    -0.275 OA
ATOM     18  N   UNL     1       2.196  -8.865  -6.412  0.00  0.00    -0.312 N 
ATOM     19  H   UNL     1       2.891  -9.541  -6.397  0.00  0.00    +0.149 HD
BRANCH  18  20
ATOM     20  C   UNL     1       1.623  -8.432  -7.689  0.00  0.00    +0.076 C 
ATOM     21  C   UNL     1       0.347  -9.228  -7.971  0.00  0.00    +0.022 C 
ATOM     22  C   UNL     1      -0.253  -8.776  -9.304  0.00  0.00    +0.002 C 
ATOM     23  C   UNL     1       0.759  -9.020 -10.426  0.00  0.00    +0.003 C 
ATOM     24  C   UNL     1       2.035  -8.224 -10.145  0.00  0.00    -0.009 C 
ATOM     25  C   UNL     1       2.634  -8.676  -8.811  0.00  0.00    +0.009 C 
ATOM     26  C   UNL     1       2.968 -10.168  -8.882  0.00  0.00    +0.009 C 
ATOM     27  C   UNL     1       3.046  -8.468 -11.267  0.00  0.00    +0.008 C 
ENDBRANCH  18  20
ENDBRANCH  15  16
ENDBRANCH   3  15
TORSDOF 6
