REMARK  Name = ZINC04857275
REMARK  8 active torsions:
REMARK  status: ('A' for Active; 'I' for Inactive)
REMARK    1  A    between atoms: C_1  and  O_2
REMARK    2  A    between atoms: O_2  and  C_3
REMARK    3  A    between atoms: C_7  and  N_9
REMARK    4  A    between atoms: N_9  and  C_10
REMARK    5  A    between atoms: C_10  and  N_12
REMARK    6  A    between atoms: N_12  and  C_13
REMARK    7  A    between atoms: C_23  and  C_24
REMARK    8  A    between atoms: C_23  and  N_54
REMARK                            x       y       z     vdW  Elec       q    Type
REMARK                         _______ _______ _______ _____ _____    ______ ____
ROOT
ATOM      1  C   UNL     1      -2.552   7.962  -0.249  0.00  0.00    +0.069 C 
ATOM      2  C   UNL     1      -3.012   7.932  -1.700  0.00  0.00    +0.007 C 
ATOM      3  C   UNL     1      -4.117   8.937  -1.988  0.00  0.00    -0.066 C 
ATOM      4  C   UNL     1      -5.428   8.526  -1.325  0.00  0.00    -0.015 C 
ATOM      5  C   UNL     1      -5.371   8.654   0.191  0.00  0.00    -0.003 C 
ATOM      6  C   UNL     1      -4.767   9.977   0.643  0.00  0.00    -0.015 C 
ATOM      7  C   UNL     1      -3.487  10.314  -0.115  0.00  0.00    -0.066 C 
ATOM      8  C   UNL     1      -2.352   9.379   0.271  0.00  0.00    +0.007 C 
ATOM      9  N   UNL     1      -3.788  10.308  -1.558  0.00  0.00    +0.388 N 
ATOM     10  H   UNL     1      -4.606  10.907  -1.724  0.00  0.00    -0.080 HD
ENDROOT
BRANCH   1  11
ATOM     11  N   UNL     1      -1.265   7.244  -0.153  0.00  0.00    -0.324 N 
ATOM     12  H   UNL     1      -0.431   7.740  -0.159  0.00  0.00    +0.148 HD
BRANCH  11  13
ATOM     13  C   UNL     1      -1.249   5.900  -0.058  0.00  0.00    +0.135 C 
ATOM     14  S   UNL     1      -2.720   5.024  -0.049  0.00  0.00    -0.019 S 
BRANCH  13  15
ATOM     15  N   UNL     1      -0.074   5.245   0.029  0.00  0.00    -0.297 N 
ATOM     16  H   UNL     1       0.755   5.743   0.105  0.00  0.00    +0.154 HD
BRANCH  15  21
ATOM     17  C   UNL     1      -0.837   1.763  -0.886  0.00  0.00    +0.122 A 
ATOM     18  C   UNL     1       0.002   1.076  -0.019  0.00  0.00    +0.046 A 
ATOM     19  C   UNL     1       0.806   1.772   0.862  0.00  0.00    +0.005 A 
ATOM     20  C   UNL     1       0.787   3.154   0.876  0.00  0.00    +0.023 A 
ATOM     21  C   UNL     1      -0.050   3.846   0.011  0.00  0.00    +0.036 A 
ATOM     22  C   UNL     1      -0.863   3.148  -0.871  0.00  0.00    +0.069 A 
BRANCH  17  24
ATOM     23  C   UNL     1      -1.554  -0.349  -1.708  0.00  0.00    +0.277 C 
ATOM     24  O   UNL     1      -1.633   1.077  -1.748  0.00  0.00    -0.495 OA
ENDBRANCH  17  24
ENDBRANCH  15  21
ENDBRANCH  13  15
ENDBRANCH  11  13
ENDBRANCH   1  11
BRANCH   9  25
ATOM     25  C   UNL     1      -2.647  10.849  -2.340  0.00  0.00    -0.002 C 
BRANCH  25  26
ATOM     26  C   UNL     1      -2.873  10.554  -3.800  0.00  0.00    +0.089 A 
ATOM     27  C   UNL     1      -3.549  11.332  -4.665  0.00  0.00    +0.042 A 
ATOM     28  C   UNL     1      -3.514  10.678  -5.918  0.00  0.00    +0.041 A 
ATOM     29  C   UNL     1      -2.818   9.540  -5.744  0.00  0.00    +0.195 A 
ATOM     30  O   UNL     1      -2.427   9.473  -4.461  0.00  0.00    -0.470 OA
ENDBRANCH  25  26
ENDBRANCH   9  25
TORSDOF 7
