REMARK  Name = ZINC64611614
REMARK  9 active torsions:
REMARK  status: ('A' for Active; 'I' for Inactive)
REMARK    1  A    between atoms: C_1  and  C_2
REMARK    2  A    between atoms: C_2  and  C_3
REMARK    3  A    between atoms: C_2  and  O_4
REMARK    4  A    between atoms: O_4  and  C_5
REMARK    5  A    between atoms: C_5  and  C_6
REMARK    6  A    between atoms: C_6  and  C_7
REMARK    7  A    between atoms: C_7  and  N_8
REMARK    8  A    between atoms: C_9  and  C_11
REMARK    9  A    between atoms: C_24  and  C_27
REMARK                            x       y       z     vdW  Elec       q    Type
REMARK                         _______ _______ _______ _____ _____    ______ ____
ROOT
ATOM      1  C   UNL     1      -6.376  -5.527  -1.685  0.00  0.00    +0.078 C 
ATOM      2  C   UNL     1      -6.810  -5.654  -0.223  0.00  0.00    +0.032 C 
ATOM      3  C   UNL     1      -8.287  -6.057  -0.166  0.00  0.00    +0.108 C 
ATOM      4  N   UNL     1      -8.474  -7.280  -0.959  0.00  0.00    -0.301 N 
ATOM      5  C   UNL     1      -8.009  -7.297  -2.352  0.00  0.00    +0.108 C 
ATOM      6  C   UNL     1      -6.535  -6.879  -2.385  0.00  0.00    +0.032 C 
ATOM      7  C   UNL     1      -9.073  -8.387  -0.408  0.00  0.00    +0.199 A 
ATOM      8  N   UNL     1      -9.327  -9.461  -1.210  0.00  0.00    -0.294 N 
ATOM      9  C   UNL     1      -9.916 -10.561  -0.684  0.00  0.00    +0.267 A 
ATOM     10  O   UNL     1     -10.155 -11.536  -1.377  0.00  0.00    -0.267 OA
ATOM     11  C   UNL     1     -10.241 -10.549   0.672  0.00  0.00    +0.103 A 
ATOM     12  C   UNL     1      -9.968  -9.430   1.473  0.00  0.00    +0.095 A 
ATOM     13  N   UNL     1      -9.370  -8.370   0.865  0.00  0.00    -0.215 NA
ATOM     14  C   UNL     1     -10.381  -9.610   2.855  0.00  0.00    +0.018 A 
ATOM     15  C   UNL     1     -10.959 -10.787   3.203  0.00  0.00    +0.056 A 
ATOM     16  S   UNL     1     -10.995 -11.694   1.791  0.00  0.00    -0.089 S 
ATOM     17  H   UNL     1      -9.088  -9.436  -2.150  0.00  0.00    +0.172 HD
ENDROOT
BRANCH  14  18
ATOM     18  C   UNL     1     -10.175  -8.536   3.857  0.00  0.00    +0.020 A 
ATOM     19  C   UNL     1      -9.302  -8.734   4.925  0.00  0.00    +0.011 A 
ATOM     20  C   UNL     1      -9.114  -7.732   5.854  0.00  0.00    +0.001 A 
ATOM     21  C   UNL     1      -9.790  -6.532   5.729  0.00  0.00    +0.003 A 
ATOM     22  C   UNL     1     -10.658  -6.327   4.672  0.00  0.00    +0.039 A 
ATOM     23  C   UNL     1     -10.851  -7.322   3.731  0.00  0.00    +0.131 A 
ATOM     24  F   UNL     1     -11.695  -7.120   2.696  0.00  0.00    -0.205 F 
ENDBRANCH  14  18
BRANCH   1  26
ATOM     25  N   UNL     1      -4.554  -3.930  -1.190  0.00  0.00    -0.315 N 
ATOM     26  C   UNL     1      -4.933  -5.098  -1.745  0.00  0.00    +0.216 C 
ATOM     27  O   UNL     1      -4.112  -5.803  -2.293  0.00  0.00    -0.276 OA
ATOM     28  H   UNL     1      -5.210  -3.366  -0.751  0.00  0.00    +0.149 HD
BRANCH  25  29
ATOM     29  C   UNL     1      -3.151  -3.512  -1.248  0.00  0.00    +0.106 C 
BRANCH  29  30
ATOM     30  C   UNL     1      -2.992  -2.160  -0.549  0.00  0.00    +0.047 C 
BRANCH  30  31
ATOM     31  C   UNL     1      -1.527  -1.724  -0.610  0.00  0.00    +0.161 C 
BRANCH  31  32
ATOM     32  O   UNL     1      -1.379  -0.462   0.043  0.00  0.00    -0.377 OA
BRANCH  32  34
ATOM     33  C   UNL     1      -0.068   1.569   0.044  0.00  0.00    +0.037 C 
ATOM     34  C   UNL     1      -0.040   0.039   0.043  0.00  0.00    +0.112 C 
ATOM     35  C   UNL     1       0.691  -0.458   1.292  0.00  0.00    +0.037 C 
ENDBRANCH  32  34
ENDBRANCH  31  32
ENDBRANCH  30  31
ENDBRANCH  29  30
ENDBRANCH  25  29
ENDBRANCH   1  26
TORSDOF 7
