REMARK  Name = ZINC23857859
REMARK  7 active torsions:
REMARK  status: ('A' for Active; 'I' for Inactive)
REMARK    1  A    between atoms: C_1  and  N_2
REMARK    2  A    between atoms: C_9  and  C_11
REMARK    3  A    between atoms: C_11  and  C_13
REMARK    4  A    between atoms: C_11  and  N_27
REMARK    5  A    between atoms: C_13  and  N_14
REMARK    6  A    between atoms: C_15  and  C_17
REMARK    7  A    between atoms: C_22  and  N_23
REMARK                            x       y       z     vdW  Elec       q    Type
REMARK                         _______ _______ _______ _____ _____    ______ ____
ROOT
ATOM      1  C   UNL     1      -3.753   5.572  -0.098  0.00  0.00    -0.020 C 
ENDROOT
BRANCH   1  10
ATOM      2  C   UNL     1      -0.989   1.395   3.992  0.00  0.00    +0.129 C 
ATOM      3  N   UNL     1      -1.472   1.150   2.626  0.00  0.00    -0.332 N 
ATOM      4  C   UNL     1      -0.354   0.807   1.722  0.00  0.00    +0.109 C 
ATOM      5  C   UNL     1      -0.830   1.365   0.361  0.00  0.00    +0.056 C 
ATOM      6  C   UNL     1      -1.784   2.471   0.766  0.00  0.00    -0.025 A 
ATOM      7  C   UNL     1      -2.113   2.283   2.104  0.00  0.00    +0.033 A 
ATOM      8  C   UNL     1      -2.980   3.183   2.721  0.00  0.00    +0.023 A 
ATOM      9  C   UNL     1      -3.505   4.241   2.008  0.00  0.00    +0.004 A 
ATOM     10  C   UNL     1      -3.175   4.416   0.677  0.00  0.00    -0.059 A 
ATOM     11  C   UNL     1      -2.313   3.529   0.058  0.00  0.00    +0.007 A 
ENDBRANCH   1  10
BRANCH   1  12
ATOM     12  N   UNL     1      -3.502   6.824   0.629  0.00  0.00    +0.385 N 
ATOM     13  C   UNL     1      -2.241   6.754   1.377  0.00  0.00    -0.078 C 
ATOM     14  C   UNL     1      -1.940   8.118   2.002  0.00  0.00    -0.019 C 
ATOM     15  C   UNL     1      -3.088   8.511   2.936  0.00  0.00    -0.004 C 
ATOM     16  C   UNL     1      -4.398   8.529   2.142  0.00  0.00    -0.019 C 
ATOM     17  C   UNL     1      -4.627   7.153   1.514  0.00  0.00    -0.078 C 
ATOM     18  H   UNL     1      -3.409   7.633  -0.110  0.00  0.00    -0.081 HD
ENDBRANCH   1  12
BRANCH   1  19
ATOM     19  C   UNL     1      -5.261   5.372  -0.264  0.00  0.00    +0.094 C 
BRANCH  19  20
ATOM     20  N   UNL     1      -5.835   6.532  -0.950  0.00  0.00    -0.313 N 
ATOM     21  C   UNL     1      -7.140   6.539  -1.286  0.00  0.00    +0.246 C 
ATOM     22  O   UNL     1      -7.841   5.582  -1.021  0.00  0.00    -0.270 OA
ATOM     23  H   UNL     1      -5.201   7.399  -1.190  0.00  0.00    +0.149 HD
BRANCH  21  24
ATOM     24  C   UNL     1      -7.720   7.710  -1.978  0.00  0.00    +0.068 A 
ATOM     25  C   UNL     1      -7.640   8.977  -1.398  0.00  0.00    +0.035 A 
ATOM     26  C   UNL     1      -8.183  10.066  -2.050  0.00  0.00    +0.042 A 
ATOM     27  C   UNL     1      -8.805   9.903  -3.276  0.00  0.00    +0.022 A 
ATOM     28  C   UNL     1      -8.886   8.650  -3.856  0.00  0.00    +0.035 A 
ATOM     29  C   UNL     1      -8.343   7.554  -3.217  0.00  0.00    +0.138 A 
ATOM     30 CL   UNL     1      -8.085  11.643  -1.331  0.00  0.00    -0.084 Cl
BRANCH  29  31
ATOM     31  N   UNL     1      -8.427   6.215  -3.841  0.00  0.00    +0.057 N 
ATOM     32  O   UNL     1      -9.078   6.057  -4.859  0.00  0.00    -0.126 OA
ATOM     33  O   UNL     1      -7.845   5.271  -3.338  0.00  0.00    -0.126 OA
ENDBRANCH  29  31
ENDBRANCH  21  24
ENDBRANCH  19  20
ENDBRANCH   1  19
TORSDOF 6
