REMARK  Name = ZINC01475373
REMARK  3 active torsions:
REMARK  status: ('A' for Active; 'I' for Inactive)
REMARK    1  A    between atoms: C_6  and  C_7
REMARK    2  A    between atoms: N_8  and  N_9
REMARK    3  A    between atoms: C_10  and  C_16
REMARK                            x       y       z     vdW  Elec       q    Type
REMARK                         _______ _______ _______ _____ _____    ______ ____
ROOT
ATOM      1  N   UNL     1      -1.757  -1.194  -0.894  0.00  0.00    -0.192 N 
ATOM      2  C   UNL     1      -0.993  -0.609   0.087  0.00  0.00    +0.156 A 
ATOM      3  N   UNL     1      -1.771  -0.219   1.046  0.00  0.00    -0.156 NA
ATOM      4  N   UNL     1      -3.090  -0.542   0.696  0.00  0.00    -0.253 N 
ATOM      5  H   UNL     1      -3.917  -0.289   1.376  0.00  0.00    +0.191 HD
ATOM      6  C   UNL     1      -3.049  -1.148  -0.509  0.00  0.00    +0.196 A 
ATOM      7  S   UNL     1      -4.390  -1.747  -1.388  0.00  0.00    -0.010 S 
ENDROOT
BRANCH   2   8
ATOM      8  C   UNL     1       0.505  -0.452   0.056  0.00  0.00    +0.059 C 
ATOM      9  C   UNL     1       0.865   1.033   0.128  0.00  0.00    +0.011 C 
ATOM     10  C   UNL     1       2.386   1.192   0.095  0.00  0.00    +0.001 C 
ATOM     11  C   UNL     1       3.001   0.461   1.290  0.00  0.00    +0.000 C 
ATOM     12  C   UNL     1       2.642  -1.025   1.218  0.00  0.00    +0.001 C 
ATOM     13  C   UNL     1       1.120  -1.184   1.250  0.00  0.00    +0.011 C 
ENDBRANCH   2   8
BRANCH   1  15
ATOM     14  C   UNL     1      -0.623  -2.866  -2.071  0.00  0.00    +0.141 C 
ATOM     15  N   UNL     1      -1.277  -1.744  -2.089  0.00  0.00    -0.171 NA
BRANCH  14  21
ATOM     16  C   UNL     1      -1.362  -3.320   0.262  0.00  0.00    +0.010 A 
ATOM     17  C   UNL     1      -1.310  -4.077   1.414  0.00  0.00    +0.016 A 
ATOM     18  C   UNL     1      -0.463  -5.170   1.490  0.00  0.00    +0.018 A 
ATOM     19  C   UNL     1       0.331  -5.515   0.409  0.00  0.00    +0.016 A 
ATOM     20  C   UNL     1       0.284  -4.771  -0.750  0.00  0.00    +0.010 A 
ATOM     21  C   UNL     1      -0.568  -3.666  -0.834  0.00  0.00    -0.005 A 
ATOM     22 BR   UNL     1      -0.392  -6.196   3.077  0.00  0.00    -0.050 Br
ENDBRANCH  14  21
ENDBRANCH   1  15
TORSDOF 3
