REMARK  Name = ZINC06176795
REMARK  8 active torsions:
REMARK  status: ('A' for Active; 'I' for Inactive)
REMARK    1  A    between atoms: C_1  and  O_2
REMARK    2  A    between atoms: O_2  and  C_3
REMARK    3  A    between atoms: C_10  and  C_15
REMARK    4  A    between atoms: C_15  and  C_17
REMARK    5  A    between atoms: C_15  and  N_67
REMARK    6  A    between atoms: N_21  and  C_22
REMARK    7  A    between atoms: C_22  and  C_23
REMARK    8  A    between atoms: N_31  and  C_34
REMARK                            x       y       z     vdW  Elec       q    Type
REMARK                         _______ _______ _______ _____ _____    ______ ____
ROOT
ATOM      1  C   UNL     1       1.667   6.426  -1.702  0.00  0.00    +0.039 C 
ENDROOT
BRANCH   1   9
ATOM      2  C   UNL     1       4.441  10.967   1.478  0.00  0.00    +0.121 A 
ATOM      3  C   UNL     1       5.127  11.511   0.394  0.00  0.00    +0.047 A 
ATOM      4  C   UNL     1       5.001  10.963  -0.863  0.00  0.00    +0.030 A 
ATOM      5  C   UNL     1       4.184   9.854  -1.059  0.00  0.00    +0.049 A 
ATOM      6  C   UNL     1       3.490   9.301   0.033  0.00  0.00    +0.002 A 
ATOM      7  C   UNL     1       3.625   9.867   1.305  0.00  0.00    +0.055 A 
ATOM      8  C   UNL     1       2.633   8.134  -0.188  0.00  0.00    +0.017 A 
ATOM      9  C   UNL     1       2.540   7.627  -1.442  0.00  0.00    +0.011 A 
ATOM     10  C   UNL     1       3.261   8.215  -2.502  0.00  0.00    +0.251 A 
ATOM     11  O   UNL     1       3.167   7.740  -3.621  0.00  0.00    -0.268 OA
ATOM     12  N   UNL     1       4.046   9.290  -2.311  0.00  0.00    -0.322 N 
ATOM     13  H   UNL     1       4.525   9.672  -3.063  0.00  0.00    +0.169 HD
BRANCH   2  15
ATOM     14  C   UNL     1       5.436  12.658   2.821  0.00  0.00    +0.277 C 
ATOM     15  O   UNL     1       4.577  11.521   2.712  0.00  0.00    -0.495 OA
ENDBRANCH   2  15
ENDBRANCH   1   9
BRANCH   1  21
ATOM     16  C   UNL     1      -0.090   7.929  -2.423  0.00  0.00    -0.058 C 
ATOM     17  C   UNL     1      -1.022   8.271  -3.589  0.00  0.00    +0.086 C 
ATOM     18  N   UNL     1      -1.892   7.120  -3.870  0.00  0.00    -0.331 N 
ATOM     19  C   UNL     1      -1.096   5.934  -4.214  0.00  0.00    +0.086 C 
ATOM     20  C   UNL     1      -0.165   5.592  -3.049  0.00  0.00    -0.058 C 
ATOM     21  N   UNL     1       0.719   6.748  -2.791  0.00  0.00    +0.391 N 
ATOM     22  H   UNL     1       1.250   6.960  -3.644  0.00  0.00    -0.080 HD
BRANCH  18  23
ATOM     23  C   UNL     1      -2.807   7.421  -4.884  0.00  0.00    +0.065 A 
ATOM     24  C   UNL     1      -3.770   6.490  -5.251  0.00  0.00    +0.026 A 
ATOM     25  C   UNL     1      -4.676   6.792  -6.250  0.00  0.00    +0.002 A 
ATOM     26  C   UNL     1      -4.619   8.015  -6.891  0.00  0.00    +0.003 A 
ATOM     27  C   UNL     1      -3.659   8.944  -6.533  0.00  0.00    +0.040 A 
ATOM     28  C   UNL     1      -2.752   8.651  -5.531  0.00  0.00    +0.144 A 
ATOM     29  F   UNL     1      -1.813   9.558  -5.182  0.00  0.00    -0.204 F 
ENDBRANCH  18  23
ENDBRANCH   1  21
BRANCH   1  30
ATOM     30  C   UNL     1       2.525   5.264  -2.130  0.00  0.00    +0.143 A 
ATOM     31  N   UNL     1       3.095   5.100  -3.299  0.00  0.00    -0.115 NA
ATOM     32  N   UNL     1       3.742   3.986  -3.273  0.00  0.00    -0.023 NA
ATOM     33  N   UNL     1       3.606   3.439  -2.116  0.00  0.00    -0.044 NA
ATOM     34  N   UNL     1       2.858   4.194  -1.384  0.00  0.00    -0.226 N 
BRANCH  34  35
ATOM     35  C   UNL     1       2.451   3.937  -0.001  0.00  0.00    +0.182 C 
BRANCH  35  36
ATOM     36  C   UNL     1       1.156   3.165   0.008  0.00  0.00    -0.026 A 
ATOM     37  C   UNL     1       1.175   1.783   0.000  0.00  0.00    +0.005 A 
ATOM     38  C   UNL     1      -0.013   1.076   0.008  0.00  0.00    +0.000 A 
ATOM     39  C   UNL     1      -1.219   1.751   0.017  0.00  0.00    +0.000 A 
ATOM     40  C   UNL     1      -1.238   3.133   0.030  0.00  0.00    +0.000 A 
ATOM     41  C   UNL     1      -0.050   3.840   0.023  0.00  0.00    +0.005 A 
ENDBRANCH  35  36
ENDBRANCH  34  35
ENDBRANCH   1  30
TORSDOF 7
