REMARK  Name = ZINC19647868
REMARK  9 active torsions:
REMARK  status: ('A' for Active; 'I' for Inactive)
REMARK    1  A    between atoms: C_1  and  C_2
REMARK    2  A    between atoms: C_2  and  O_3
REMARK    3  A    between atoms: O_3  and  C_4
REMARK    4  A    between atoms: C_7  and  N_10
REMARK    5  A    between atoms: C_13  and  C_33
REMARK    6  A    between atoms: C_19  and  C_32
REMARK    7  A    between atoms: C_26  and  C_30
REMARK    8  A    between atoms: C_26  and  C_31
REMARK    9  A    between atoms: C_28  and  C_29
REMARK                            x       y       z     vdW  Elec       q    Type
REMARK                         _______ _______ _______ _____ _____    ______ ____
ROOT
ATOM      1  N   UNL     1      -0.785   3.419  -4.316  0.00  0.00    -0.243 N 
ATOM      2  C   UNL     1      -1.504   3.661  -5.411  0.00  0.00    +0.234 C 
ATOM      3  O   UNL     1      -1.289   4.634  -6.103  0.00  0.00    -0.274 OA
ATOM      4  C   UNL     1      -2.605   2.671  -5.761  0.00  0.00    +0.132 C 
ATOM      5  S   UNL     1      -2.143   1.255  -4.668  0.00  0.00    -0.108 S 
ATOM      6  C   UNL     1      -1.080   2.225  -3.531  0.00  0.00    +0.193 C 
ATOM      7  C   UNL     1      -1.786   2.511  -2.245  0.00  0.00    +0.018 A 
ATOM      8  C   UNL     1      -2.935   3.155  -1.841  0.00  0.00    +0.012 A 
ATOM      9  C   UNL     1      -3.259   3.205  -0.492  0.00  0.00    -0.049 A 
ATOM     10  C   UNL     1      -2.453   2.618   0.467  0.00  0.00    +0.013 A 
ATOM     11  C   UNL     1      -1.287   1.963   0.069  0.00  0.00    -0.000 A 
ATOM     12  C   UNL     1      -0.984   1.927  -1.285  0.00  0.00    +0.051 A 
ATOM     13  N   UNL     1       0.137   1.313  -1.815  0.00  0.00    -0.259 N 
ATOM     14  C   UNL     1       0.152   1.445  -3.161  0.00  0.00    +0.260 C 
ATOM     15  O   UNL     1       0.995   1.017  -3.921  0.00  0.00    -0.271 OA
ATOM     16  C   UNL     1       1.057   0.662  -0.867  0.00  0.00    +0.055 C 
ATOM     17  C   UNL     1       0.719   0.705   0.606  0.00  0.00    +0.002 C 
ATOM     18  C   UNL     1      -0.379   1.317   1.035  0.00  0.00    -0.043 C 
ATOM     19  C   UNL     1      -0.698   1.349   2.508  0.00  0.00    +0.044 C 
ATOM     20  C   UNL     1       1.178  -0.808  -1.273  0.00  0.00    +0.036 C 
ATOM     21  C   UNL     1       2.435   1.302  -1.045  0.00  0.00    +0.036 C 
ATOM     22  C   UNL     1      -4.518   3.913  -0.063  0.00  0.00    +0.044 C 
ATOM     23  C   UNL     1      -3.984   3.224  -5.397  0.00  0.00    +0.029 C 
ENDROOT
BRANCH   1  27
ATOM     24  C   UNL     1       2.255   6.026  -3.155  0.00  0.00    +0.121 A 
ATOM     25  C   UNL     1       2.513   5.031  -4.086  0.00  0.00    +0.047 A 
ATOM     26  C   UNL     1       1.507   4.168  -4.471  0.00  0.00    +0.027 A 
ATOM     27  C   UNL     1       0.237   4.295  -3.925  0.00  0.00    +0.039 A 
ATOM     28  C   UNL     1      -0.022   5.294  -2.996  0.00  0.00    +0.027 A 
ATOM     29  C   UNL     1       0.987   6.154  -2.608  0.00  0.00    +0.047 A 
BRANCH  24  30
ATOM     30  O   UNL     1       3.247   6.877  -2.776  0.00  0.00    -0.492 OA
BRANCH  30  32
ATOM     31  C   UNL     1       4.144   8.732  -1.514  0.00  0.00    +0.048 C 
ATOM     32  C   UNL     1       2.910   7.877  -1.813  0.00  0.00    +0.225 C 
ENDBRANCH  30  32
ENDBRANCH  24  30
ENDBRANCH   1  27
TORSDOF 3
