REMARK  Name = ZINC14305092
REMARK  5 active torsions:
REMARK  status: ('A' for Active; 'I' for Inactive)
REMARK    1  A    between atoms: C_1  and  N_2
REMARK    2  A    between atoms: N_2  and  C_3
REMARK    3  A    between atoms: C_11  and  C_13
REMARK    4  A    between atoms: N_18  and  S_20
REMARK    5  A    between atoms: S_20  and  C_23
REMARK                            x       y       z     vdW  Elec       q    Type
REMARK                         _______ _______ _______ _____ _____    ______ ____
ROOT
ATOM      1  C   UNL     1      -3.122   2.397   3.438  0.00  0.00    +0.091 C 
ATOM      2  C   UNL     1      -2.989   0.915   3.795  0.00  0.00    +0.015 C 
ATOM      3  C   UNL     1      -1.970   0.254   2.865  0.00  0.00    +0.018 C 
ATOM      4  C   UNL     1      -2.466   0.358   1.415  0.00  0.00    +0.109 C 
ATOM      5  N   UNL     1      -2.730   1.771   1.112  0.00  0.00    -0.176 NA
ATOM      6  C   UNL     1      -3.627   2.527   1.997  0.00  0.00    +0.122 C 
ENDROOT
BRANCH   1   9
ATOM      7  C   UNL     1      -4.758   3.801   6.600  0.00  0.00    +0.132 C 
ATOM      8  N   UNL     1      -3.773   3.248   5.668  0.00  0.00    -0.300 N 
ATOM      9  C   UNL     1      -4.102   3.055   4.375  0.00  0.00    +0.220 C 
ATOM     10  O   UNL     1      -5.187   3.410   3.966  0.00  0.00    -0.275 OA
BRANCH   8  11
ATOM     11  C   UNL     1      -2.429   2.904   6.140  0.00  0.00    +0.098 C 
ATOM     12  C   UNL     1      -2.539   1.957   7.346  0.00  0.00    +0.046 C 
ATOM     13  C   UNL     1      -1.138   1.861   8.015  0.00  0.00    +0.168 C 
ATOM     14  S   UNL     1      -0.596   3.619   7.917  0.00  0.00    -0.029 S 
ATOM     15  O   UNL     1      -0.967   4.285   9.116  0.00  0.00    -0.174 OA
ATOM     16  O   UNL     1       0.756   3.662   7.482  0.00  0.00    -0.174 OA
ATOM     17  C   UNL     1      -1.683   4.197   6.551  0.00  0.00    +0.188 C 
ENDBRANCH   8  11
ENDBRANCH   1   9
BRANCH   5  18
ATOM     18  S   UNL     1      -2.037   2.496  -0.206  0.00  0.00    +0.061 S 
ATOM     19  O   UNL     1      -2.872   3.592  -0.553  0.00  0.00    -0.153 OA
ATOM     20  O   UNL     1      -1.724   1.457  -1.123  0.00  0.00    -0.153 OA
BRANCH  18  21
ATOM     21  C   UNL     1      -0.502   3.180   0.324  0.00  0.00    +0.106 A 
ATOM     22  C   UNL     1       0.652   2.422   0.257  0.00  0.00    +0.029 A 
ATOM     23  C   UNL     1       1.857   2.961   0.667  0.00  0.00    +0.017 A 
ATOM     24  C   UNL     1       1.907   4.256   1.149  0.00  0.00    +0.018 A 
ATOM     25  C   UNL     1       0.751   5.012   1.221  0.00  0.00    +0.017 A 
ATOM     26  C   UNL     1      -0.453   4.473   0.810  0.00  0.00    +0.029 A 
ATOM     27 BR   UNL     1       3.556   4.993   1.711  0.00  0.00    -0.050 Br
ENDBRANCH  18  21
ENDBRANCH   5  18
TORSDOF 4
