REMARK  Name = ZINC05305990
REMARK  9 active torsions:
REMARK  status: ('A' for Active; 'I' for Inactive)
REMARK    1  A    between atoms: C_1  and  C_2
REMARK    2  A    between atoms: C_4  and  C_27
REMARK    3  A    between atoms: C_4  and  C_28
REMARK    4  A    between atoms: N_8  and  C_9
REMARK    5  A    between atoms: C_12  and  C_15
REMARK    6  A    between atoms: C_15  and  C_17
REMARK    7  A    between atoms: C_18  and  C_19
REMARK    8  A    between atoms: C_22  and  O_25
REMARK    9  A    between atoms: O_25  and  C_26
REMARK                            x       y       z     vdW  Elec       q    Type
REMARK                         _______ _______ _______ _____ _____    ______ ____
ROOT
ATOM      1  C   UNL     1       0.910   4.330   3.903  0.00  0.00    +0.040 A 
ATOM      2  C   UNL     1       1.692   3.923   4.980  0.00  0.00    +0.024 A 
ATOM      3  C   UNL     1       2.252   4.859   5.819  0.00  0.00    +0.013 A 
ATOM      4  C   UNL     1       2.028   6.220   5.593  0.00  0.00    +0.022 A 
ATOM      5  C   UNL     1       1.238   6.626   4.513  0.00  0.00    +0.013 A 
ATOM      6  C   UNL     1       0.685   5.684   3.676  0.00  0.00    +0.024 A 
ENDROOT
BRANCH   1  14
ATOM      7  C   UNL     1       2.437   3.572   1.696  0.00  0.00    +0.061 C 
ATOM      8  C   UNL     1       1.075   2.975   1.943  0.00  0.00    +0.013 C 
ATOM      9  C   UNL     1       0.598   2.078   1.099  0.00  0.00    +0.017 C 
ATOM     10  C   UNL     1      -0.773   1.497   1.376  0.00  0.00    +0.048 C 
ATOM     11  N   UNL     1      -1.478   1.980   2.575  0.00  0.00    -0.317 N 
ATOM     12  C   UNL     1      -0.869   2.901   3.349  0.00  0.00    +0.142 C 
ATOM     13  S   UNL     1      -1.671   3.476   4.748  0.00  0.00    -0.018 S 
ATOM     14  N   UNL     1       0.348   3.379   3.052  0.00  0.00    -0.256 N 
ATOM     15  C   UNL     1      -1.659   1.784   0.162  0.00  0.00    +0.036 C 
ATOM     16  C   UNL     1      -0.625  -0.021   1.497  0.00  0.00    +0.036 C 
ATOM     17  H   UNL     1      -2.359   1.644   2.802  0.00  0.00    +0.149 HD
ENDBRANCH   1  14
BRANCH   4  18
ATOM     18  C   UNL     1       2.623   7.228   6.494  0.00  0.00    +0.186 C 
ATOM     19  O   UNL     1       2.426   8.413   6.297  0.00  0.00    -0.287 OA
BRANCH  18  20
ATOM     20  C   UNL     1       3.424   6.814   7.590  0.00  0.00    +0.052 C 
ATOM     21  C   UNL     1       3.969   7.736   8.415  0.00  0.00    +0.012 C 
BRANCH  21  22
ATOM     22  C   UNL     1       4.798   7.308   9.549  0.00  0.00    -0.025 A 
ATOM     23  C   UNL     1       5.021   5.946   9.781  0.00  0.00    +0.011 A 
ATOM     24  C   UNL     1       5.803   5.550  10.843  0.00  0.00    +0.046 A 
ATOM     25  C   UNL     1       6.363   6.501  11.690  0.00  0.00    +0.120 A 
ATOM     26  C   UNL     1       6.139   7.855  11.467  0.00  0.00    +0.046 A 
ATOM     27  C   UNL     1       5.363   8.261  10.405  0.00  0.00    +0.011 A 
BRANCH  25  28
ATOM     28  O   UNL     1       7.129   6.105  12.738  0.00  0.00    -0.495 OA
ATOM     29  C   UNL     1       7.318   4.699  12.909  0.00  0.00    +0.277 C 
ENDBRANCH  25  28
ENDBRANCH  21  22
ENDBRANCH  18  20
ENDBRANCH   4  18
TORSDOF 5
