REMARK  Name = ZINC02161329
REMARK  5 active torsions:
REMARK  status: ('A' for Active; 'I' for Inactive)
REMARK    1  A    between atoms: C_9  and  C_24
REMARK    2  A    between atoms: C_11  and  C_15
REMARK    3  A    between atoms: N_26  and  C_27
REMARK    4  A    between atoms: C_27  and  C_28
REMARK    5  A    between atoms: C_28  and  C_29
REMARK                            x       y       z     vdW  Elec       q    Type
REMARK                         _______ _______ _______ _____ _____    ______ ____
ROOT
ATOM      1  C   UNL     1      -0.017   1.374   0.010  0.00  0.00    +0.001 A 
ATOM      2  C   UNL     1       1.172   2.089   0.002  0.00  0.00    +0.002 A 
ATOM      3  C   UNL     1       2.383   1.433  -0.013  0.00  0.00    +0.026 A 
ATOM      4  C   UNL     1       2.424   0.042  -0.021  0.00  0.00    +0.048 A 
ATOM      5  C   UNL     1       1.220  -0.680  -0.014  0.00  0.00    +0.008 A 
ATOM      6  C   UNL     1       0.002  -0.004   0.002  0.00  0.00    +0.010 A 
ATOM      7  C   UNL     1       1.593  -2.104  -0.026  0.00  0.00    +0.012 A 
ATOM      8  C   UNL     1       0.880  -3.301  -0.026  0.00  0.00    +0.043 A 
ATOM      9  C   UNL     1       1.583  -4.502  -0.041  0.00  0.00    +0.127 A 
ATOM     10  N   UNL     1       2.913  -4.515  -0.054  0.00  0.00    -0.240 NA
ATOM     11  C   UNL     1       3.629  -3.405  -0.054  0.00  0.00    +0.096 A 
ATOM     12  C   UNL     1       2.997  -2.149  -0.040  0.00  0.00    +0.074 A 
ATOM     13  N   UNL     1       3.473  -0.859  -0.037  0.00  0.00    -0.352 N 
ATOM     14  H   UNL     1       4.412  -0.615  -0.045  0.00  0.00    +0.166 HD
ENDROOT
BRANCH  11  15
ATOM     15  C   UNL     1       5.109  -3.484  -0.068  0.00  0.00    +0.006 A 
ATOM     16  C   UNL     1       5.853  -2.526  -0.756  0.00  0.00    +0.014 A 
ATOM     17  C   UNL     1       7.230  -2.600  -0.768  0.00  0.00    +0.050 A 
ATOM     18  C   UNL     1       7.879  -3.626  -0.097  0.00  0.00    +0.166 A 
ATOM     19  C   UNL     1       7.141  -4.586   0.593  0.00  0.00    +0.167 A 
ATOM     20  C   UNL     1       5.760  -4.512   0.612  0.00  0.00    +0.059 A 
ATOM     21  O   UNL     1       8.006  -5.476   1.162  0.00  0.00    -0.453 OA
ATOM     22  C   UNL     1       9.257  -5.287   0.476  0.00  0.00    +0.466 C 
ATOM     23  O   UNL     1       9.206  -3.916   0.041  0.00  0.00    -0.453 OA
ENDBRANCH  11  15
BRANCH   9  24
ATOM     24  C   UNL     1       0.841  -5.781  -0.042  0.00  0.00    +0.262 C 
ATOM     25  O   UNL     1      -0.375  -5.779  -0.030  0.00  0.00    -0.269 OA
ATOM     26  N   UNL     1       1.512  -6.950  -0.056  0.00  0.00    -0.310 N 
ATOM     27  H   UNL     1       2.482  -6.952  -0.065  0.00  0.00    +0.149 HD
BRANCH  26  28
ATOM     28  C   UNL     1       0.777  -8.217  -0.056  0.00  0.00    +0.109 C 
BRANCH  28  29
ATOM     29  C   UNL     1       1.769  -9.382  -0.073  0.00  0.00    +0.056 C 
BRANCH  29  30
ATOM     30  C   UNL     1       1.013 -10.685  -0.074  0.00  0.00    -0.021 A 
ATOM     31  C   UNL     1       0.699 -11.427   1.000  0.00  0.00    +0.087 A 
ATOM     32  N   UNL     1       0.010 -12.543   0.611  0.00  0.00    -0.360 N 
ATOM     33  H   UNL     1      -0.323 -13.229   1.210  0.00  0.00    +0.165 HD
ATOM     34  C   UNL     1      -0.141 -12.547  -0.758  0.00  0.00    +0.047 A 
ATOM     35  C   UNL     1       0.475 -11.380  -1.246  0.00  0.00    +0.003 A 
ATOM     36  C   UNL     1       0.473 -11.113  -2.617  0.00  0.00    +0.010 A 
ATOM     37  C   UNL     1      -0.131 -11.986  -3.477  0.00  0.00    +0.001 A 
ATOM     38  C   UNL     1      -0.744 -13.136  -3.000  0.00  0.00    +0.002 A 
ATOM     39  C   UNL     1      -0.746 -13.424  -1.653  0.00  0.00    +0.026 A 
ENDBRANCH  29  30
ENDBRANCH  28  29
ENDBRANCH  26  28
ENDBRANCH   9  24
TORSDOF 5
