REMARK  Name = ZINC39935950
REMARK  12 active torsions:
REMARK  status: ('A' for Active; 'I' for Inactive)
REMARK    1  A    between atoms: C_1  and  C_2
REMARK    2  A    between atoms: C_2  and  C_3
REMARK    3  A    between atoms: C_3  and  C_5
REMARK    4  A    between atoms: C_3  and  N_33
REMARK    5  A    between atoms: C_9  and  S_18
REMARK    6  A    between atoms: N_10  and  C_11
REMARK    7  A    between atoms: C_11  and  C_12
REMARK    8  A    between atoms: S_18  and  C_19
REMARK    9  A    between atoms: C_19  and  C_20
REMARK   10  A    between atoms: C_20  and  C_22
REMARK   11  A    between atoms: N_33  and  C_34
REMARK   12  A    between atoms: N_33  and  C_35
REMARK                            x       y       z     vdW  Elec       q    Type
REMARK                         _______ _______ _______ _____ _____    ______ ____
ROOT
ATOM      1  C   UNL     1       0.474  -2.114  -1.182  0.00  0.00    +0.164 C 
ATOM      2  N   UNL     1       0.643  -2.655   0.177  0.00  0.00    -0.248 N 
ATOM      3  N   UNL     1      -0.614  -3.138   0.564  0.00  0.00    -0.163 NA
ATOM      4  C   UNL     1      -1.493  -2.962  -0.363  0.00  0.00    +0.176 C 
ATOM      5  N   UNL     1      -0.949  -2.345  -1.484  0.00  0.00    -0.286 N 
ATOM      6  H   UNL     1       1.460  -2.674   0.700  0.00  0.00    +0.170 HD
ENDROOT
BRANCH   1   7
ATOM      7  C   UNL     1       0.791  -0.618  -1.208  0.00  0.00    -0.029 C 
BRANCH   7   8
ATOM      8  N   UNL     1       2.235  -0.420  -1.017  0.00  0.00    +0.380 N 
ATOM      9  C   UNL     1       2.971  -1.167  -2.045  0.00  0.00    -0.096 C 
ATOM     10  C   UNL     1       2.552   1.010  -1.128  0.00  0.00    -0.096 C 
ATOM     11  H   UNL     1       2.502  -0.754  -0.103  0.00  0.00    -0.082 HD
ENDBRANCH   7   8
BRANCH   7  13
ATOM     12  C   UNL     1      -1.469   0.079  -0.403  0.00  0.00    +0.002 C 
ATOM     13  C   UNL     1       0.028   0.085  -0.084  0.00  0.00    -0.015 C 
ENDBRANCH   7  13
ENDBRANCH   1   7
BRANCH   5  14
ATOM     14  C   UNL     1      -1.650  -1.993  -2.721  0.00  0.00    +0.144 C 
BRANCH  14  15
ATOM     15  C   UNL     1      -1.568  -3.144  -3.690  0.00  0.00    -0.030 A 
ATOM     16  C   UNL     1      -0.512  -3.227  -4.579  0.00  0.00    +0.005 A 
ATOM     17  C   UNL     1      -0.437  -4.283  -5.467  0.00  0.00    +0.000 A 
ATOM     18  C   UNL     1      -1.418  -5.257  -5.467  0.00  0.00    +0.000 A 
ATOM     19  C   UNL     1      -2.473  -5.176  -4.579  0.00  0.00    +0.000 A 
ATOM     20  C   UNL     1      -2.546  -4.122  -3.687  0.00  0.00    +0.005 A 
ENDBRANCH  14  15
ENDBRANCH   5  14
BRANCH   4  21
ATOM     21  S   UNL     1      -3.182  -3.446  -0.227  0.00  0.00    -0.081 S 
BRANCH  21  22
ATOM     22  C   UNL     1      -3.294  -4.184   1.426  0.00  0.00    +0.156 C 
BRANCH  22  23
ATOM     23  C   UNL     1      -4.707  -4.647   1.675  0.00  0.00    +0.173 C 
ATOM     24  O   UNL     1      -5.554  -4.495   0.820  0.00  0.00    -0.291 OA
BRANCH  23  25
ATOM     25  C   UNL     1      -5.057  -5.283   2.951  0.00  0.00    +0.022 A 
ATOM     26  C   UNL     1      -4.080  -5.455   3.941  0.00  0.00    +0.013 A 
ATOM     27  C   UNL     1      -4.403  -6.046   5.129  0.00  0.00    +0.030 A 
ATOM     28  C   UNL     1      -5.703  -6.481   5.362  0.00  0.00    +0.087 A 
ATOM     29  C   UNL     1      -6.688  -6.316   4.384  0.00  0.00    +0.157 A 
ATOM     30  C   UNL     1      -6.369  -5.714   3.183  0.00  0.00    +0.060 A 
ATOM     31  O   UNL     1      -7.840  -6.828   4.883  0.00  0.00    -0.408 OA
ATOM     32  C   UNL     1      -7.610  -7.299   6.120  0.00  0.00    +0.419 A 
ATOM     33  O   UNL     1      -8.441  -7.821   6.837  0.00  0.00    -0.223 OA
ATOM     34  N   UNL     1      -6.317  -7.103   6.443  0.00  0.00    -0.288 N 
ATOM     35  H   UNL     1      -5.891  -7.351   7.278  0.00  0.00    +0.172 HD
ENDBRANCH  23  25
ENDBRANCH  22  23
ENDBRANCH  21  22
ENDBRANCH   4  21
TORSDOF 9
