REMARK  Name = ZINC35849080
REMARK  2 active torsions:
REMARK  status: ('A' for Active; 'I' for Inactive)
REMARK    1  A    between atoms: C_4  and  C_7
REMARK    2  A    between atoms: C_26  and  C_28
REMARK                            x       y       z     vdW  Elec       q    Type
REMARK                         _______ _______ _______ _____ _____    ______ ____
ROOT
ATOM      1  C   UNL     1       2.852  -0.464  -2.508  0.00  0.00    +0.135 A 
ATOM      2  N   UNL     1       3.934  -1.212  -2.384  0.00  0.00    -0.216 NA
ATOM      3  C   UNL     1       4.604  -1.660  -3.433  0.00  0.00    +0.133 A 
ATOM      4  C   UNL     1       4.150  -1.327  -4.739  0.00  0.00    +0.051 A 
ATOM      5  C   UNL     1       4.723  -1.702  -6.033  0.00  0.00    -0.025 A 
ATOM      6  C   UNL     1       4.092  -1.251  -7.136  0.00  0.00    -0.004 A 
ATOM      7  S   UNL     1       2.715  -0.313  -6.529  0.00  0.00    -0.073 S 
ATOM      8  C   UNL     1       2.991  -0.527  -4.790  0.00  0.00    +0.114 A 
ATOM      9  N   UNL     1       2.380  -0.127  -3.692  0.00  0.00    -0.224 NA
ATOM     10  C   UNL     1       4.476  -1.492  -8.564  0.00  0.00    +0.043 C 
ATOM     11  C   UNL     1       5.915  -2.025  -8.596  0.00  0.00    +0.005 C 
ATOM     12  C   UNL     1       6.046  -3.147  -7.562  0.00  0.00    +0.005 C 
ATOM     13  C   UNL     1       5.978  -2.563  -6.150  0.00  0.00    +0.037 C 
ATOM     14  N   UNL     1       5.733  -2.442  -3.262  0.00  0.00    -0.312 N 
ATOM     15  C   UNL     1       7.071  -1.835  -3.269  0.00  0.00    +0.125 C 
ATOM     16  C   UNL     1       7.790  -2.216  -1.969  0.00  0.00    +0.126 C 
ATOM     17  N   UNL     1       7.671  -3.668  -1.776  0.00  0.00    -0.298 N 
ATOM     18  C   UNL     1       6.333  -4.275  -1.768  0.00  0.00    +0.126 C 
ATOM     19  C   UNL     1       5.614  -3.893  -3.063  0.00  0.00    +0.125 C 
ATOM     20  C   UNL     1       8.771  -4.430  -1.609  0.00  0.00    +0.219 C 
ATOM     21  O   UNL     1       9.870  -3.918  -1.617  0.00  0.00    -0.275 OA
ENDROOT
BRANCH   1  25
ATOM     22  C   UNL     1      -0.042   1.492   0.010  0.00  0.00    +0.000 C 
ATOM     23  C   UNL     1       1.393   2.023   0.012  0.00  0.00    +0.001 C 
ATOM     24  C   UNL     1       2.117   1.541  -1.247  0.00  0.00    +0.011 C 
ATOM     25  C   UNL     1       2.139   0.011  -1.268  0.00  0.00    +0.057 C 
ATOM     26  C   UNL     1       0.705  -0.520  -1.269  0.00  0.00    +0.011 C 
ATOM     27  C   UNL     1      -0.019  -0.038  -0.011  0.00  0.00    +0.001 C 
ENDBRANCH   1  25
BRANCH  20  28
ATOM     28  C   UNL     1       8.634  -5.918  -1.412  0.00  0.00    +0.075 C 
ATOM     29  C   UNL     1       7.856  -6.209  -0.112  0.00  0.00    +0.013 C 
ATOM     30  C   UNL     1       8.548  -7.467   0.471  0.00  0.00    +0.001 C 
ATOM     31  C   UNL     1      10.042  -7.215   0.150  0.00  0.00    +0.001 C 
ATOM     32  C   UNL     1      10.024  -6.557  -1.245  0.00  0.00    +0.013 C 
ENDBRANCH  20  28
TORSDOF 2
