REMARK  Name = ZINC00913316
REMARK  11 active torsions:
REMARK  status: ('A' for Active; 'I' for Inactive)
REMARK    1  A    between atoms: C_1  and  C_2
REMARK    2  A    between atoms: C_2  and  O_3
REMARK    3  A    between atoms: O_3  and  C_4
REMARK    4  A    between atoms: C_4  and  C_6
REMARK    5  A    between atoms: C_7  and  C_30
REMARK    6  A    between atoms: C_12  and  C_14
REMARK    7  A    between atoms: C_17  and  O_22
REMARK    8  A    between atoms: C_18  and  O_20
REMARK    9  A    between atoms: O_20  and  C_21
REMARK   10  A    between atoms: O_22  and  C_23
REMARK   11  A    between atoms: C_23  and  C_25
REMARK                            x       y       z     vdW  Elec       q    Type
REMARK                         _______ _______ _______ _____ _____    ______ ____
ROOT
ATOM      1  C   UNL     1      -3.807  -0.448  -1.170  0.00  0.00    -0.019 A 
ATOM      2  C   UNL     1      -4.363  -0.763  -2.396  0.00  0.00    +0.009 A 
ATOM      3  C   UNL     1      -4.361   0.166  -3.419  0.00  0.00    +0.050 A 
ATOM      4  C   UNL     1      -3.800   1.417  -3.218  0.00  0.00    +0.173 A 
ATOM      5  C   UNL     1      -3.240   1.735  -1.984  0.00  0.00    +0.163 A 
ATOM      6  C   UNL     1      -3.251   0.801  -0.961  0.00  0.00    +0.055 A 
ENDROOT
BRANCH   1  13
ATOM      7  C   UNL     1      -2.766  -2.513  -0.378  0.00  0.00    +0.078 C 
ATOM      8  C   UNL     1      -3.172  -3.797  -0.473  0.00  0.00    +0.021 C 
ATOM      9  N   UNL     1      -4.482  -4.138  -0.290  0.00  0.00    -0.273 N 
ATOM     10  C   UNL     1      -5.447  -3.253  -0.011  0.00  0.00    +0.304 C 
ATOM     11  O   UNL     1      -6.586  -3.652   0.135  0.00  0.00    -0.252 OA
ATOM     12  N   UNL     1      -5.197  -1.934   0.115  0.00  0.00    -0.288 N 
ATOM     13  C   UNL     1      -3.812  -1.464  -0.058  0.00  0.00    +0.144 C 
ATOM     14  C   UNL     1      -2.163  -4.872  -0.785  0.00  0.00    +0.061 C 
ATOM     15  H   UNL     1      -4.727  -5.073  -0.367  0.00  0.00    +0.156 HD
ATOM     16  H   UNL     1      -5.912  -1.310   0.317  0.00  0.00    +0.151 HD
BRANCH   7  17
ATOM     17  C   UNL     1      -1.410  -2.159  -0.567  0.00  0.00    +0.339 C 
ATOM     18  O   UNL     1      -0.692  -1.964   0.397  0.00  0.00    -0.245 OA
BRANCH  17  19
ATOM     19  O   UNL     1      -0.911  -2.037  -1.815  0.00  0.00    -0.462 OA
BRANCH  19  21
ATOM     20  C   UNL     1       0.851  -1.582  -3.405  0.00  0.00    +0.048 C 
ATOM     21  C   UNL     1       0.491  -1.785  -1.932  0.00  0.00    +0.229 C 
ENDBRANCH  19  21
ENDBRANCH  17  19
ENDBRANCH   7  17
ENDBRANCH   1  13
BRANCH   5  22
ATOM     22  O   UNL     1      -2.689   2.961  -1.782  0.00  0.00    -0.491 OA
ATOM     23  C   UNL     1      -2.043   3.183  -0.526  0.00  0.00    +0.277 C 
ENDBRANCH   5  22
BRANCH   4  24
ATOM     24  O   UNL     1      -3.797   2.332  -4.224  0.00  0.00    -0.416 OA
BRANCH  24  25
ATOM     25  C   UNL     1      -2.687   2.434  -4.984  0.00  0.00    +0.380 C 
ATOM     26  O   UNL     1      -1.761   1.663  -4.814  0.00  0.00    -0.241 OA
BRANCH  25  27
ATOM     27  C   UNL     1      -2.596   3.473  -6.012  0.00  0.00    +0.212 A 
ATOM     28  C   UNL     1      -1.538   3.683  -6.850  0.00  0.00    +0.056 A 
ATOM     29  C   UNL     1      -1.879   4.772  -7.665  0.00  0.00    +0.042 A 
ATOM     30  C   UNL     1      -3.115   5.176  -7.295  0.00  0.00    +0.196 A 
ATOM     31  O   UNL     1      -3.546   4.386  -6.302  0.00  0.00    -0.456 OA
ENDBRANCH  25  27
ENDBRANCH  24  25
ENDBRANCH   4  24
TORSDOF 8
