REMARK  Name = ZINC22922899
REMARK  17 active torsions:
REMARK  status: ('A' for Active; 'I' for Inactive)
REMARK    1  A    between atoms: C_1  and  C_2
REMARK    2  A    between atoms: C_2  and  O_3
REMARK    3  A    between atoms: O_3  and  C_4
REMARK    4  A    between atoms: C_6  and  C_13
REMARK    5  A    between atoms: C_9  and  O_10
REMARK    6  A    between atoms: O_10  and  C_11
REMARK    7  A    between atoms: C_14  and  C_15
REMARK    8  A    between atoms: N_17  and  C_18
REMARK    9  A    between atoms: N_17  and  C_22
REMARK   10  A    between atoms: C_18  and  C_19
REMARK   11  A    between atoms: C_19  and  C_20
REMARK   12  A    between atoms: C_19  and  C_21
REMARK   13  A    between atoms: C_23  and  N_35
REMARK   14  A    between atoms: N_24  and  C_31
REMARK   15  A    between atoms: C_31  and  C_32
REMARK   16  A    between atoms: C_32  and  C_33
REMARK   17  A    between atoms: C_32  and  C_34
REMARK                            x       y       z     vdW  Elec       q    Type
REMARK                         _______ _______ _______ _____ _____    ______ ____
ROOT
ATOM      1  C   UNL     1      -0.058  -2.256   3.593  0.00  0.00    +0.244 C 
ATOM      2  O   UNL     1      -0.257  -1.060   3.702  0.00  0.00    -0.270 OA
ATOM      3  N   UNL     1       0.061  -2.811   2.370  0.00  0.00    -0.260 N 
ENDROOT
BRANCH   3   4
ATOM      4  C   UNL     1       0.049  -1.994   1.221  0.00  0.00    +0.140 A 
ATOM      5  C   UNL     1      -0.978  -2.089   0.303  0.00  0.00    +0.127 A 
ATOM      6  N   UNL     1      -0.962  -1.278  -0.808  0.00  0.00    -0.280 N 
ATOM      7  C   UNL     1       0.045  -0.406  -1.000  0.00  0.00    +0.331 A 
ATOM      8  O   UNL     1       0.043   0.298  -1.991  0.00  0.00    -0.246 OA
ATOM      9  N   UNL     1       1.050  -0.295  -0.114  0.00  0.00    -0.273 N 
ATOM     10  H   UNL     1       1.858   0.430  -0.286  0.00  0.00    +0.173 HD
ATOM     11  C   UNL     1       1.082  -1.066   0.991  0.00  0.00    +0.277 A 
ATOM     12  O   UNL     1       2.001  -0.961   1.786  0.00  0.00    -0.266 OA
BRANCH   5  13
ATOM     13  N   UNL     1      -2.003  -2.983   0.497  0.00  0.00    -0.343 N 
ATOM     14  H   UNL     1      -2.818  -3.054  -0.239  0.00  0.00    +0.144 HD
ATOM     15  H   UNL     1      -2.009  -3.628   1.388  0.00  0.00    +0.144 HD
ENDBRANCH   5  13
BRANCH   6  16
ATOM     16  C   UNL     1      -2.045  -1.368  -1.790  0.00  0.00    +0.131 C 
BRANCH  16  17
ATOM     17  C   UNL     1      -3.162  -0.395  -1.409  0.00  0.00    +0.003 C 
ATOM     18  C   UNL     1      -2.643   1.041  -1.510  0.00  0.00    +0.009 C 
ATOM     19  C   UNL     1      -4.345  -0.577  -2.363  0.00  0.00    +0.009 C 
ENDBRANCH  16  17
ENDBRANCH   6  16
ENDBRANCH   3   4
BRANCH   1  21
ATOM     20  C   UNL     1      -0.066  -2.536   6.013  0.00  0.00    +0.013 C 
ATOM     21  C   UNL     1       0.053  -3.091   4.789  0.00  0.00    +0.068 C 
BRANCH  20  24
ATOM     22  C   UNL     1       0.029  -3.594   9.611  0.00  0.00    +0.164 A 
ATOM     23  C   UNL     1      -0.077  -2.801   8.486  0.00  0.00    +0.057 A 
ATOM     24  C   UNL     1       0.046  -3.375   7.215  0.00  0.00    -0.020 A 
ATOM     25  C   UNL     1       0.270  -4.751   7.092  0.00  0.00    +0.031 A 
ATOM     26  C   UNL     1       0.380  -5.534   8.221  0.00  0.00    +0.087 A 
ATOM     27  C   UNL     1       0.257  -4.963   9.481  0.00  0.00    +0.180 A 
ATOM     28 CL   UNL     1       0.665  -7.240   8.067  0.00  0.00    -0.080 Cl
BRANCH  27  29
ATOM     29  O   UNL     1       0.361  -5.741  10.591  0.00  0.00    -0.490 OA
ATOM     30  C   UNL     1      -0.846  -6.319  11.092  0.00  0.00    +0.277 C 
ENDBRANCH  27  29
BRANCH  22  31
ATOM     31  O   UNL     1      -0.091  -3.039  10.847  0.00  0.00    -0.489 OA
BRANCH  31  33
ATOM     32  C   UNL     1      -0.430  -1.192  12.368  0.00  0.00    +0.048 C 
ATOM     33  C   UNL     1      -0.325  -1.631  10.906  0.00  0.00    +0.226 C 
ENDBRANCH  31  33
ENDBRANCH  22  31
ENDBRANCH  20  24
ENDBRANCH   1  21
BRANCH   3  34
ATOM     34  C   UNL     1       0.203  -4.263   2.236  0.00  0.00    +0.117 C 
BRANCH  34  35
ATOM     35  C   UNL     1       1.685  -4.621   2.112  0.00  0.00    +0.001 C 
ATOM     36  C   UNL     1       2.406  -4.263   3.413  0.00  0.00    +0.009 C 
ATOM     37  C   UNL     1       1.827  -6.121   1.847  0.00  0.00    +0.009 C 
ENDBRANCH  34  35
ENDBRANCH   3  34
TORSDOF 11
