REMARK  Name = ZINC08596056
REMARK  10 active torsions:
REMARK  status: ('A' for Active; 'I' for Inactive)
REMARK    1  A    between atoms: C_1  and  C_2
REMARK    2  A    between atoms: C_2  and  C_3
REMARK    3  A    between atoms: C_12  and  S_14
REMARK    4  A    between atoms: S_14  and  N_17
REMARK    5  A    between atoms: N_17  and  C_18
REMARK    6  A    between atoms: C_18  and  C_20
REMARK    7  A    between atoms: C_18  and  C_27
REMARK    8  A    between atoms: C_20  and  C_21
REMARK    9  A    between atoms: N_29  and  C_30
REMARK   10  A    between atoms: C_30  and  C_31
REMARK                            x       y       z     vdW  Elec       q    Type
REMARK                         _______ _______ _______ _____ _____    ______ ____
ROOT
ATOM      1  C   UNL     1      -6.242  -5.894  -2.467  0.00  0.00    +0.166 C 
ENDROOT
BRANCH   1   2
ATOM      2  C   UNL     1      -7.031  -6.572  -3.557  0.00  0.00    +0.232 C 
ATOM      3  O   UNL     1      -8.241  -6.482  -3.575  0.00  0.00    -0.274 OA
ATOM      4  N   UNL     1      -6.394  -7.277  -4.512  0.00  0.00    -0.310 N 
ATOM      5  H   UNL     1      -5.426  -7.349  -4.498  0.00  0.00    +0.149 HD
BRANCH   4   6
ATOM      6  C   UNL     1      -7.162  -7.935  -5.572  0.00  0.00    +0.139 C 
BRANCH   6   7
ATOM      7  C   UNL     1      -6.219  -8.651  -6.505  0.00  0.00    -0.030 A 
ATOM      8  C   UNL     1      -5.699  -7.991  -7.603  0.00  0.00    +0.008 A 
ATOM      9  C   UNL     1      -4.834  -8.646  -8.458  0.00  0.00    +0.038 A 
ATOM     10  C   UNL     1      -4.488  -9.965  -8.216  0.00  0.00    +0.123 A 
ATOM     11  C   UNL     1      -5.009 -10.625  -7.116  0.00  0.00    +0.038 A 
ATOM     12  C   UNL     1      -5.870  -9.966  -6.259  0.00  0.00    +0.008 A 
ATOM     13  F   UNL     1      -3.643 -10.607  -9.052  0.00  0.00    -0.205 F 
ENDBRANCH   6   7
ENDBRANCH   4   6
ENDBRANCH   1   2
BRANCH   1  14
ATOM     14  N   UNL     1      -7.158  -5.199  -1.560  0.00  0.00    -0.178 NA
ATOM     15  H   UNL     1      -7.450  -4.296  -1.764  0.00  0.00    +0.149 HD
BRANCH  14  16
ATOM     16  S   UNL     1      -7.696  -5.952  -0.188  0.00  0.00    +0.059 S 
ATOM     17  O   UNL     1      -8.181  -7.227  -0.588  0.00  0.00    -0.153 OA
ATOM     18  O   UNL     1      -8.507  -5.011   0.501  0.00  0.00    -0.153 OA
BRANCH  16  28
ATOM     19  C   UNL     1      -2.286  -6.406   4.067  0.00  0.00    +0.220 C 
ATOM     20  O   UNL     1      -2.656  -5.279   4.321  0.00  0.00    -0.275 OA
ATOM     21  N   UNL     1      -2.948  -7.143   3.153  0.00  0.00    -0.271 N 
ATOM     22  C   UNL     1      -2.601  -8.513   2.768  0.00  0.00    +0.118 C 
ATOM     23  C   UNL     1      -3.641  -8.909   1.706  0.00  0.00    +0.056 C 
ATOM     24  C   UNL     1      -4.526  -7.691   1.568  0.00  0.00    -0.023 A 
ATOM     25  C   UNL     1      -4.070  -6.713   2.437  0.00  0.00    +0.040 A 
ATOM     26  C   UNL     1      -4.739  -5.489   2.491  0.00  0.00    +0.026 A 
ATOM     27  C   UNL     1      -5.840  -5.262   1.692  0.00  0.00    +0.030 A 
ATOM     28  C   UNL     1      -6.289  -6.246   0.831  0.00  0.00    +0.106 A 
ATOM     29  C   UNL     1      -5.627  -7.458   0.766  0.00  0.00    +0.034 A 
BRANCH  19  31
ATOM     30  C   UNL     1      -0.525  -5.949   5.752  0.00  0.00    +0.013 C 
ATOM     31  C   UNL     1      -1.087  -6.982   4.774  0.00  0.00    +0.093 C 
ENDBRANCH  19  31
ENDBRANCH  16  28
ENDBRANCH  14  16
ENDBRANCH   1  14
BRANCH   1  32
ATOM     32  C   UNL     1      -5.275  -4.885  -3.089  0.00  0.00    +0.065 C 
BRANCH  32  33
ATOM     33  C   UNL     1      -4.400  -4.298  -2.012  0.00  0.00    -0.045 A 
ATOM     34  C   UNL     1      -4.828  -3.193  -1.300  0.00  0.00    +0.004 A 
ATOM     35  C   UNL     1      -4.025  -2.654  -0.312  0.00  0.00    +0.000 A 
ATOM     36  C   UNL     1      -2.795  -3.221  -0.035  0.00  0.00    +0.000 A 
ATOM     37  C   UNL     1      -2.367  -4.326  -0.747  0.00  0.00    +0.000 A 
ATOM     38  C   UNL     1      -3.172  -4.867  -1.732  0.00  0.00    +0.004 A 
ENDBRANCH  32  33
ENDBRANCH   1  32
TORSDOF 9
