REMARK  Name = ZINC04006341
REMARK  7 active torsions:
REMARK  status: ('A' for Active; 'I' for Inactive)
REMARK    1  A    between atoms: C_1  and  C_2
REMARK    2  A    between atoms: C_6  and  C_28
REMARK    3  A    between atoms: C_6  and  C_29
REMARK    4  A    between atoms: C_9  and  C_23
REMARK    5  A    between atoms: C_23  and  C_24
REMARK    6  A    between atoms: C_23  and  C_25
REMARK    7  A    between atoms: C_23  and  O_27
REMARK                            x       y       z     vdW  Elec       q    Type
REMARK                         _______ _______ _______ _____ _____    ______ ____
ROOT
ATOM      1  C   UNL     1      -1.039   1.813  -0.170  0.00  0.00    +0.041 C 
ATOM      2  C   UNL     1      -0.961   0.293  -0.320  0.00  0.00    +0.084 C 
ATOM      3  C   UNL     1      -0.841   0.074  -1.806  0.00  0.00    +0.034 C 
ATOM      4  C   UNL     1       0.072  -1.113  -2.104  0.00  0.00    +0.003 C 
ATOM      5  C   UNL     1       1.481  -0.725  -1.643  0.00  0.00    +0.011 C 
ATOM      6  C   UNL     1       1.519  -0.620  -0.123  0.00  0.00    -0.012 C 
ATOM      7  C   UNL     1       0.219  -0.167   0.478  0.00  0.00    -0.039 C 
ATOM      8  C   UNL     1       0.112  -0.209   1.798  0.00  0.00    +0.005 C 
ATOM      9  C   UNL     1      -1.161   0.147   2.517  0.00  0.00    +0.175 C 
ATOM     10  N   UNL     1      -2.337  -0.075   1.672  0.00  0.00    -0.235 N 
ATOM     11  N   UNL     1      -2.172  -0.255   0.281  0.00  0.00    -0.236 N 
ATOM     12  C   UNL     1      -3.096  -0.930  -0.424  0.00  0.00    +0.275 A 
ATOM     13  O   UNL     1      -2.843  -1.461  -1.484  0.00  0.00    -0.266 OA
ATOM     14  C   UNL     1      -4.474  -1.036   0.112  0.00  0.00    +0.053 A 
ATOM     15  C   UNL     1      -5.517  -1.532  -0.657  0.00  0.00    +0.014 A 
ATOM     16  C   UNL     1      -6.790  -1.601  -0.113  0.00  0.00    +0.001 A 
ATOM     17  C   UNL     1      -7.024  -1.178   1.185  0.00  0.00    +0.001 A 
ATOM     18  C   UNL     1      -5.992  -0.678   1.962  0.00  0.00    +0.014 A 
ATOM     19  C   UNL     1      -4.711  -0.612   1.433  0.00  0.00    +0.053 A 
ATOM     20  C   UNL     1      -3.563  -0.129   2.230  0.00  0.00    +0.274 A 
ATOM     21  O   UNL     1      -3.732   0.205   3.387  0.00  0.00    -0.266 OA
ATOM     22  C   UNL     1       1.880  -2.000   0.446  0.00  0.00    +0.015 C 
ATOM     23  C   UNL     1       2.620   0.372   0.274  0.00  0.00    +0.015 C 
ENDROOT
BRANCH   9  24
ATOM     24  C   UNL     1      -1.106   1.581   3.047  0.00  0.00    +0.149 C 
ATOM     25  C   UNL     1      -2.523   2.063   3.363  0.00  0.00    +0.058 C 
BRANCH  24  26
ATOM     26  C   UNL     1      -0.290   1.620   4.271  0.00  0.00    -0.069 C 
ATOM     27  C   UNL     1       0.361   1.652   5.247  0.00  0.00    +0.007 C 
ENDBRANCH  24  26
BRANCH  24  28
ATOM     28  O   UNL     1      -0.523   2.432   2.058  0.00  0.00    -0.374 OA
ATOM     29  H   UNL     1       0.407   2.241   1.874  0.00  0.00    +0.211 HD
ENDBRANCH  24  28
ENDBRANCH   9  24
TORSDOF 3
