REMARK  Name = ZINC20881820
REMARK  6 active torsions:
REMARK  status: ('A' for Active; 'I' for Inactive)
REMARK    1  A    between atoms: C_1  and  C_2
REMARK    2  A    between atoms: C_2  and  C_3
REMARK    3  A    between atoms: C_3  and  O_4
REMARK    4  A    between atoms: O_4  and  C_5
REMARK    5  A    between atoms: C_8  and  C_11
REMARK    6  A    between atoms: C_16  and  C_22
REMARK                            x       y       z     vdW  Elec       q    Type
REMARK                         _______ _______ _______ _____ _____    ______ ____
ROOT
ATOM      1  C   UNL     1      -1.913   3.544   3.275  0.00  0.00    +0.032 C 
ATOM      2  C   UNL     1      -2.801   2.572   2.493  0.00  0.00    +0.059 C 
ATOM      3  C   UNL     1      -2.071   2.099   1.260  0.00  0.00    +0.018 C 
ATOM      4  C   UNL     1      -0.726   1.990   1.253  0.00  0.00    +0.020 C 
ATOM      5  C   UNL     1      -0.018   1.503   0.010  0.00  0.00    +0.063 C 
ATOM      6  C   UNL     1      -0.759   2.010  -1.228  0.00  0.00    +0.109 C 
ATOM      7  C   UNL     1      -2.232   1.732  -1.071  0.00  0.00    +0.218 C 
ATOM      8  O   UNL     1      -2.904   1.466  -2.045  0.00  0.00    -0.275 OA
ATOM      9  N   UNL     1      -2.802   1.778   0.145  0.00  0.00    -0.289 N 
ATOM     10  C   UNL     1       0.042   2.323   2.381  0.00  0.00    +0.162 C 
ATOM     11  O   UNL     1       1.250   2.202   2.339  0.00  0.00    -0.292 OA
ATOM     12  C   UNL     1      -0.609   2.827   3.641  0.00  0.00    +0.088 C 
ATOM     13  H   UNL     1      -3.874   1.551   0.236  0.00  0.00    +0.155 HD
ENDROOT
BRANCH   5  14
ATOM     14  C   UNL     1       0.002  -0.004   0.002  0.00  0.00    -0.036 A 
ATOM     15  C   UNL     1      -1.187  -0.710   0.010  0.00  0.00    +0.008 A 
ATOM     16  C   UNL     1      -1.173  -2.092   0.002  0.00  0.00    +0.050 A 
ATOM     17  C   UNL     1       0.033  -2.774  -0.012  0.00  0.00    +0.166 A 
ATOM     18  C   UNL     1       1.230  -2.063  -0.020  0.00  0.00    +0.167 A 
ATOM     19  C   UNL     1       1.209  -0.677  -0.019  0.00  0.00    +0.053 A 
ATOM     20  O   UNL     1       2.266  -2.952  -0.035  0.00  0.00    -0.453 OA
ATOM     21  C   UNL     1       1.690  -4.205  -0.448  0.00  0.00    +0.466 C 
ATOM     22  O   UNL     1       0.319  -4.109  -0.022  0.00  0.00    -0.453 OA
ENDBRANCH   5  14
BRANCH   1  26
ATOM     23  C   UNL     1      -3.923   4.774   6.840  0.00  0.00    +0.121 A 
ATOM     24  C   UNL     1      -3.531   5.718   5.902  0.00  0.00    +0.046 A 
ATOM     25  C   UNL     1      -2.881   5.318   4.751  0.00  0.00    +0.007 A 
ATOM     26  C   UNL     1      -2.622   3.978   4.532  0.00  0.00    -0.043 A 
ATOM     27  C   UNL     1      -3.016   3.034   5.463  0.00  0.00    +0.007 A 
ATOM     28  C   UNL     1      -3.661   3.429   6.619  0.00  0.00    +0.046 A 
BRANCH  23  29
ATOM     29  O   UNL     1      -4.563   5.165   7.973  0.00  0.00    -0.492 OA
BRANCH  29  30
ATOM     30  C   UNL     1      -4.937   4.138   8.895  0.00  0.00    +0.229 C 
BRANCH  30  32
ATOM     31  C   UNL     1      -6.041   3.666  11.086  0.00  0.00    +0.007 C 
ATOM     32  C   UNL     1      -5.641   4.765  10.100  0.00  0.00    +0.038 C 
ENDBRANCH  30  32
ENDBRANCH  29  30
ENDBRANCH  23  29
ENDBRANCH   1  26
TORSDOF 5
