REMARK  Name = ZINC13174459
REMARK  8 active torsions:
REMARK  status: ('A' for Active; 'I' for Inactive)
REMARK    1  A    between atoms: C_1  and  C_2
REMARK    2  A    between atoms: C_5  and  N_9
REMARK    3  A    between atoms: C_6  and  C_8
REMARK    4  A    between atoms: C_10  and  C_12
REMARK    5  A    between atoms: C_12  and  S_13
REMARK    6  A    between atoms: S_13  and  C_14
REMARK    7  A    between atoms: C_15  and  C_33
REMARK    8  A    between atoms: C_16  and  C_26
REMARK                            x       y       z     vdW  Elec       q    Type
REMARK                         _______ _______ _______ _____ _____    ______ ____
ROOT
ATOM      1  C   UNL     1      -0.356  -8.692  -2.728  0.00  0.00    +0.112 C 
ATOM      2  C   UNL     1      -0.455  -9.467  -3.870  0.00  0.00    +0.073 C 
ATOM      3  C   UNL     1      -0.539 -10.972  -3.684  0.00  0.00    +0.097 C 
ATOM      4  C   UNL     1      -0.504 -11.463  -2.249  0.00  0.00    +0.029 C 
ATOM      5  C   UNL     1      -0.570 -12.779  -1.989  0.00  0.00    +0.162 C 
ATOM      6  C   UNL     1      -0.539 -13.300  -0.577  0.00  0.00    +0.080 C 
ATOM      7  C   UNL     1       0.267 -12.338   0.299  0.00  0.00    +0.014 C 
ATOM      8  C   UNL     1      -0.365 -10.946   0.216  0.00  0.00    +0.056 C 
ATOM      9  C   UNL     1      -0.401 -10.502  -1.227  0.00  0.00    +0.050 C 
ATOM     10  N   UNL     1      -0.329  -9.224  -1.504  0.00  0.00    -0.244 NA
ATOM     11  O   UNL     1      -0.666 -13.651  -3.013  0.00  0.00    -0.292 OA
ENDROOT
BRANCH   3  12
ATOM     12  C   UNL     1      -1.822 -11.453  -4.311  0.00  0.00    -0.035 A 
ATOM     13  C   UNL     1      -3.036 -10.969  -3.861  0.00  0.00    +0.006 A 
ATOM     14  C   UNL     1      -4.213 -11.409  -4.436  0.00  0.00    +0.020 A 
ATOM     15  C   UNL     1      -4.176 -12.336  -5.463  0.00  0.00    +0.041 A 
ATOM     16  C   UNL     1      -2.961 -12.820  -5.913  0.00  0.00    +0.020 A 
ATOM     17  C   UNL     1      -1.784 -12.374  -5.341  0.00  0.00    +0.006 A 
ATOM     18 CL   UNL     1      -5.654 -12.890  -6.185  0.00  0.00    -0.084 Cl
ENDBRANCH   3  12
BRANCH   2  19
ATOM     19  C   UNL     1      -0.477  -8.875  -5.174  0.00  0.00    +0.098 C 
ATOM     20  N   UNL     1      -0.495  -8.405  -6.208  0.00  0.00    -0.191 NA
ENDBRANCH   2  19
BRANCH   1  21
ATOM     21  S   UNL     1      -0.255  -6.941  -2.895  0.00  0.00    -0.096 S 
BRANCH  21  22
ATOM     22  C   UNL     1      -0.134  -6.343  -1.187  0.00  0.00    +0.172 C 
BRANCH  22  24
ATOM     23  N   UNL     1       0.059  -4.170  -0.021  0.00  0.00    -0.285 N 
ATOM     24  C   UNL     1      -0.040  -4.839  -1.187  0.00  0.00    +0.227 C 
ATOM     25  O   UNL     1      -0.054  -4.230  -2.236  0.00  0.00    -0.275 OA
ATOM     26  H   UNL     1       0.135  -4.658   0.814  0.00  0.00    +0.155 HD
BRANCH  23  31
ATOM     27  C   UNL     1       0.025   1.503   0.005  0.00  0.00    +0.044 C 
ATOM     28  C   UNL     1       0.034  -0.004  -0.002  0.00  0.00    -0.050 A 
ATOM     29  C   UNL     1       0.632  -0.685  -1.046  0.00  0.00    +0.005 A 
ATOM     30  C   UNL     1       0.641  -2.066  -1.055  0.00  0.00    +0.024 A 
ATOM     31  C   UNL     1       0.051  -2.771  -0.014  0.00  0.00    +0.036 A 
ATOM     32  C   UNL     1      -0.548  -2.083   1.033  0.00  0.00    -0.029 A 
ATOM     33  C   UNL     1      -0.550  -0.702   1.039  0.00  0.00    +0.008 A 
ATOM     34  C   UNL     1      -1.190  -2.843   2.165  0.00  0.00    +0.045 C 
ENDBRANCH  23  31
ENDBRANCH  22  24
ENDBRANCH  21  22
ENDBRANCH   1  21
TORSDOF 6
