REMARK  Name = ZINC00149371
REMARK  4 active torsions:
REMARK  status: ('A' for Active; 'I' for Inactive)
REMARK    1  A    between atoms: C_3  and  C_9
REMARK    2  A    between atoms: C_9  and  S_10
REMARK    3  A    between atoms: S_10  and  C_11
REMARK    4  A    between atoms: N_17  and  N_18
REMARK                            x       y       z     vdW  Elec       q    Type
REMARK                         _______ _______ _______ _____ _____    ______ ____
ROOT
ATOM      1  S   UNL     1      -0.022   1.806   0.012  0.00  0.00    -0.080 S 
ENDROOT
BRANCH   1   2
ATOM      2  C   UNL     1       1.708   2.135  -0.003  0.00  0.00    +0.210 A 
ATOM      3  N   UNL     1       2.569   1.131  -0.011  0.00  0.00    -0.122 NA
ATOM      4  N   UNL     1       3.839   1.322  -0.028  0.00  0.00    -0.150 NA
ATOM      5  C   UNL     1       4.350   2.531  -0.026  0.00  0.00    +0.206 A 
ATOM      6  C   UNL     1       3.487   3.648  -0.012  0.00  0.00    +0.290 A 
ATOM      7  O   UNL     1       3.932   4.784  -0.010  0.00  0.00    -0.264 OA
ATOM      8  N   UNL     1       2.152   3.424  -0.000  0.00  0.00    -0.207 N 
BRANCH   8   9
ATOM      9  N   UNL     1       1.270   4.466   0.014  0.00  0.00    -0.293 N 
ATOM     10  H   UNL     1       1.755   5.351   0.014  0.00  0.00    +0.163 HD
ATOM     11  H   UNL     1       0.627   4.407  -0.761  0.00  0.00    +0.163 HD
ENDBRANCH   8   9
ENDBRANCH   1   2
BRANCH   1  12
ATOM     12  C   UNL     1       0.002  -0.004   0.002  0.00  0.00    +0.114 C 
BRANCH  12  15
ATOM     13  C   UNL     1      -3.368  -1.237  -1.170  0.00  0.00    +0.020 A 
ATOM     14  C   UNL     1      -2.071  -0.758  -1.179  0.00  0.00    +0.007 A 
ATOM     15  C   UNL     1      -1.412  -0.526   0.013  0.00  0.00    -0.019 A 
ATOM     16  C   UNL     1      -2.047  -0.777   1.216  0.00  0.00    +0.046 A 
ATOM     17  C   UNL     1      -3.346  -1.251   1.226  0.00  0.00    +0.040 A 
ATOM     18  C   UNL     1      -4.006  -1.484   0.032  0.00  0.00    +0.042 A 
ATOM     19 CL   UNL     1      -5.635  -2.085   0.043  0.00  0.00    -0.083 Cl
ATOM     20 CL   UNL     1      -1.216  -0.491   2.713  0.00  0.00    -0.083 Cl
ENDBRANCH  12  15
ENDBRANCH   1  12
TORSDOF 4
