REMARK  Name = ZINC20704392
REMARK  5 active torsions:
REMARK  status: ('A' for Active; 'I' for Inactive)
REMARK    1  A    between atoms: C_2  and  C_3
REMARK    2  A    between atoms: C_3  and  N_4
REMARK    3  A    between atoms: C_5  and  C_7
REMARK    4  A    between atoms: C_14  and  C_23
REMARK    5  A    between atoms: C_27  and  N_29
REMARK                            x       y       z     vdW  Elec       q    Type
REMARK                         _______ _______ _______ _____ _____    ______ ____
ROOT
ATOM      1  C   UNL     1      -2.376   2.540   0.320  0.00  0.00    +0.058 A 
ATOM      2  C   UNL     1      -2.849   3.842   0.472  0.00  0.00    +0.015 A 
ATOM      3  C   UNL     1      -4.203   4.080   0.549  0.00  0.00    +0.001 A 
ATOM      4  C   UNL     1      -5.095   3.023   0.467  0.00  0.00    +0.006 A 
ATOM      5  C   UNL     1      -4.646   1.731   0.308  0.00  0.00    -0.019 A 
ATOM      6  C   UNL     1      -3.277   1.458   0.238  0.00  0.00    +0.044 A 
ATOM      7  N   UNL     1      -2.741   0.187   0.118  0.00  0.00    -0.336 N 
ATOM      8  C   UNL     1      -3.692  -0.921  -0.068  0.00  0.00    +0.105 C 
ATOM      9  C   UNL     1      -4.884  -0.639   0.823  0.00  0.00    +0.029 C 
ATOM     10  C   UNL     1      -5.582   0.592   0.181  0.00  0.00    +0.049 C 
ATOM     11  C   UNL     1      -6.928   0.586   0.792  0.00  0.00    -0.023 C 
ATOM     12  C   UNL     1      -7.238  -0.666   1.114  0.00  0.00    -0.030 C 
ATOM     13  C   UNL     1      -6.078  -1.598   0.754  0.00  0.00    +0.033 C 
ATOM     14  H   UNL     1      -1.661  -0.017   0.156  0.00  0.00    +0.147 HD
ENDROOT
BRANCH   8  15
ATOM     15  C   UNL     1      -4.132  -0.984  -1.508  0.00  0.00    -0.025 A 
ATOM     16  C   UNL     1      -4.082   0.151  -2.297  0.00  0.00    +0.007 A 
ATOM     17  C   UNL     1      -4.484   0.093  -3.617  0.00  0.00    +0.022 A 
ATOM     18  C   UNL     1      -4.939  -1.100  -4.150  0.00  0.00    +0.071 A 
ATOM     19  C   UNL     1      -4.989  -2.235  -3.361  0.00  0.00    +0.145 A 
ATOM     20  C   UNL     1      -4.581  -2.178  -2.042  0.00  0.00    +0.039 A 
ATOM     21 CL   UNL     1      -5.445  -1.173  -5.809  0.00  0.00    -0.081 Cl
BRANCH  19  22
ATOM     22  N   UNL     1      -5.475  -3.512  -3.931  0.00  0.00    +0.058 N 
ATOM     23  O   UNL     1      -5.519  -4.511  -3.236  0.00  0.00    -0.126 OA
ATOM     24  O   UNL     1      -5.830  -3.563  -5.095  0.00  0.00    -0.126 OA
ENDBRANCH  19  22
ENDBRANCH   8  15
BRANCH   1  26
ATOM     25  N   UNL     1      -0.060   3.325   0.306  0.00  0.00    -0.308 N 
ATOM     26  C   UNL     1      -0.925   2.293   0.239  0.00  0.00    +0.246 C 
ATOM     27  O   UNL     1      -0.508   1.158   0.107  0.00  0.00    -0.270 OA
ATOM     28  H   UNL     1      -0.438   4.351   0.426  0.00  0.00    +0.149 HD
BRANCH  25  29
ATOM     29  C   UNL     1       1.381   3.080   0.220  0.00  0.00    +0.131 C 
BRANCH  29  31
ATOM     30  C   UNL     1       3.047   4.550   1.232  0.00  0.00    +0.005 C 
ATOM     31  C   UNL     1       2.120   4.389   0.321  0.00  0.00    -0.016 C 
ENDBRANCH  29  31
ENDBRANCH  25  29
ENDBRANCH   1  26
TORSDOF 5
