REMARK  Name = ZINC18996645
REMARK  2 active torsions:
REMARK  status: ('A' for Active; 'I' for Inactive)
REMARK    1  A    between atoms: C_4  and  N_7
REMARK    2  A    between atoms: C_13  and  C_14
REMARK                            x       y       z     vdW  Elec       q    Type
REMARK                         _______ _______ _______ _____ _____    ______ ____
ROOT
ATOM      1  N   UNL     1       3.646  -0.561   0.042  0.00  0.00    -0.226 NA
ATOM      2  C   UNL     1       3.856  -1.567   0.861  0.00  0.00    +0.166 C 
ATOM      3  N   UNL     1       3.126  -1.934   1.971  0.00  0.00    -0.260 N 
ATOM      4  C   UNL     1       3.478  -2.984   2.693  0.00  0.00    +0.256 C 
ATOM      5  O   UNL     1       2.846  -3.323   3.675  0.00  0.00    -0.269 OA
ATOM      6  C   UNL     1       4.676  -3.728   2.251  0.00  0.00    +0.078 C 
ATOM      7  C   UNL     1       5.255  -4.827   2.794  0.00  0.00    +0.029 C 
ATOM      8  S   UNL     1       5.151  -2.794   0.803  0.00  0.00    -0.049 S 
ATOM      9  H   UNL     1       2.346  -1.417   2.225  0.00  0.00    +0.157 HD
ENDROOT
BRANCH   1  13
ATOM     10  C   UNL     1       0.448   1.989   0.671  0.00  0.00    +0.000 A 
ATOM     11  C   UNL     1       1.694   2.508   0.363  0.00  0.00    +0.002 A 
ATOM     12  C   UNL     1       2.764   1.664   0.152  0.00  0.00    +0.028 A 
ATOM     13  C   UNL     1       2.588   0.282   0.250  0.00  0.00    +0.067 A 
ATOM     14  C   UNL     1       1.329  -0.236   0.561  0.00  0.00    +0.028 A 
ATOM     15  C   UNL     1       0.268   0.620   0.769  0.00  0.00    +0.002 A 
ENDBRANCH   1  13
BRANCH   7  16
ATOM     16  C   UNL     1       4.591  -5.541   3.894  0.00  0.00    -0.006 A 
ATOM     17  C   UNL     1       3.199  -5.724   3.889  0.00  0.00    +0.011 A 
ATOM     18  C   UNL     1       2.624  -6.402   4.948  0.00  0.00    +0.020 A 
ATOM     19  C   UNL     1       3.431  -6.874   5.969  0.00  0.00    +0.111 A 
ATOM     20  N   UNL     1       4.737  -6.688   5.949  0.00  0.00    -0.263 NA
ATOM     21  C   UNL     1       5.335  -6.054   4.962  0.00  0.00    +0.118 A 
ENDBRANCH   7  16
TORSDOF 2
