REMARK  Name = ZINC39699258
REMARK  12 active torsions:
REMARK  status: ('A' for Active; 'I' for Inactive)
REMARK    1  A    between atoms: C_1  and  C_2
REMARK    2  A    between atoms: C_7  and  C_14
REMARK    3  A    between atoms: C_14  and  C_16
REMARK    4  A    between atoms: C_14  and  N_26
REMARK    5  A    between atoms: N_21  and  C_22
REMARK    6  A    between atoms: C_22  and  C_23
REMARK    7  A    between atoms: C_22  and  C_24
REMARK    8  A    between atoms: C_22  and  C_25
REMARK    9  A    between atoms: N_26  and  C_27
REMARK   10  A    between atoms: N_26  and  C_33
REMARK   11  A    between atoms: C_27  and  C_28
REMARK   12  A    between atoms: C_33  and  C_34
REMARK                            x       y       z     vdW  Elec       q    Type
REMARK                         _______ _______ _______ _____ _____    ______ ____
ROOT
ATOM      1  C   UNL     1       1.559  -6.242   0.869  0.00  0.00    -0.009 C 
ENDROOT
BRANCH   1   8
ATOM      2  C   UNL     1      -0.299  -2.972   7.354  0.00  0.00    +0.044 C 
ATOM      3  C   UNL     1       0.152  -3.283   5.951  0.00  0.00    -0.049 A 
ATOM      4  C   UNL     1       1.291  -2.646   5.457  0.00  0.00    +0.004 A 
ATOM      5  C   UNL     1       1.747  -2.885   4.200  0.00  0.00    +0.010 A 
ATOM      6  C   UNL     1       1.020  -3.833   3.355  0.00  0.00    -0.007 A 
ATOM      7  C   UNL     1       1.442  -4.105   2.087  0.00  0.00    -0.006 C 
ATOM      8  C   UNL     1       0.628  -5.101   1.283  0.00  0.00    +0.088 C 
ATOM      9  C   UNL     1      -0.583  -5.710   1.953  0.00  0.00    +0.223 C 
ATOM     10  O   UNL     1      -1.271  -6.515   1.354  0.00  0.00    -0.275 OA
ATOM     11  N   UNL     1      -0.891  -5.366   3.192  0.00  0.00    -0.285 N 
ATOM     12  C   UNL     1      -0.179  -4.491   3.902  0.00  0.00    +0.041 A 
ATOM     13  C   UNL     1      -0.563  -4.176   5.218  0.00  0.00    +0.027 A 
ATOM     14  H   UNL     1      -1.671  -5.769   3.603  0.00  0.00    +0.155 HD
ENDBRANCH   1   8
BRANCH   1  15
ATOM     15  C   UNL     1       2.921  -5.670   0.469  0.00  0.00    +0.205 C 
ATOM     16  N   UNL     1       3.483  -4.870   1.566  0.00  0.00    -0.152 NA
ATOM     17  N   UNL     1       3.629  -3.709   1.179  0.00  0.00    -0.070 NA
ATOM     18  N   UNL     1       3.225  -3.523  -0.143  0.00  0.00    -0.179 N 
ATOM     19  N   UNL     1       2.771  -4.715  -0.649  0.00  0.00    -0.183 NA
ATOM     20  H   UNL     1       3.260  -2.684  -0.628  0.00  0.00    +0.191 HD
BRANCH  19  21
ATOM     21  C   UNL     1       1.366  -4.610  -1.067  0.00  0.00    +0.035 C 
ATOM     22  C   UNL     1       0.664  -3.539  -0.229  0.00  0.00    +0.029 C 
ATOM     23  C   UNL     1       1.301  -4.225  -2.546  0.00  0.00    +0.029 C 
ATOM     24  C   UNL     1       0.670  -5.956  -0.859  0.00  0.00    +0.029 C 
ENDBRANCH  19  21
ENDBRANCH   1  15
BRANCH   1  25
ATOM     25  N   UNL     1       1.730  -7.168   1.996  0.00  0.00    +0.389 N 
ATOM     26  H   UNL     1       1.846  -6.642   2.850  0.00  0.00    -0.081 HD
BRANCH  25  27
ATOM     27  C   UNL     1       0.543  -8.027   2.108  0.00  0.00    -0.035 C 
BRANCH  27  28
ATOM     28  C   UNL     1       0.674  -8.909   3.323  0.00  0.00    -0.027 A 
ATOM     29  C   UNL     1       0.189  -8.718   4.574  0.00  0.00    +0.009 A 
ATOM     30  C   UNL     1       0.434  -9.674   5.542  0.00  0.00    +0.008 A 
ATOM     31  C   UNL     1       1.154 -10.774   5.211  0.00  0.00    +0.045 A 
ATOM     32  S   UNL     1       1.503 -10.482   3.485  0.00  0.00    -0.103 S 
ENDBRANCH  27  28
ENDBRANCH  25  27
BRANCH  25  33
ATOM     33  C   UNL     1       2.918  -8.002   1.770  0.00  0.00    -0.046 C 
BRANCH  33  34
ATOM     34  C   UNL     1       2.795  -8.709   0.419  0.00  0.00    +0.102 C 
ATOM     35  C   UNL     1       3.901  -9.777   0.283  0.00  0.00    +0.032 C 
ATOM     36  C   UNL     1       4.313  -9.637  -1.207  0.00  0.00    +0.030 C 
ATOM     37  C   UNL     1       4.127  -8.114  -1.423  0.00  0.00    +0.160 C 
ATOM     38  O   UNL     1       2.971  -7.763  -0.642  0.00  0.00    -0.378 OA
ENDBRANCH  33  34
ENDBRANCH  25  33
ENDBRANCH   1  25
TORSDOF 8
