REMARK  Name = ZINC04014017
REMARK  11 active torsions:
REMARK  status: ('A' for Active; 'I' for Inactive)
REMARK    1  A    between atoms: C_1  and  C_2
REMARK    2  A    between atoms: C_5  and  C_7
REMARK    3  A    between atoms: C_12  and  C_30
REMARK    4  A    between atoms: C_17  and  C_29
REMARK    5  A    between atoms: C_18  and  C_19
REMARK    6  A    between atoms: C_19  and  O_21
REMARK    7  A    between atoms: O_21  and  C_22
REMARK    8  A    between atoms: C_22  and  C_23
REMARK    9  A    between atoms: C_33  and  N_36
REMARK   10  A    between atoms: N_36  and  C_37
REMARK   11  A    between atoms: N_36  and  C_38
REMARK                            x       y       z     vdW  Elec       q    Type
REMARK                         _______ _______ _______ _____ _____    ______ ____
ROOT
ATOM      1  C   UNL     1       1.684  -3.245  -0.023  0.00  0.00    +0.129 C 
ATOM      2  C   UNL     1       2.486  -3.200  -1.310  0.00  0.00    +0.031 C 
ATOM      3  C   UNL     1       1.858  -3.226  -2.498  0.00  0.00    +0.163 C 
ATOM      4  C   UNL     1       2.631  -3.181  -3.790  0.00  0.00    +0.088 C 
ATOM      5  C   UNL     1       4.005  -3.823  -3.580  0.00  0.00    +0.032 C 
ATOM      6  C   UNL     1       4.730  -3.083  -2.453  0.00  0.00    +0.064 C 
ATOM      7  C   UNL     1       3.885  -3.134  -1.202  0.00  0.00    +0.050 C 
ATOM      8  N   UNL     1       4.470  -3.114  -0.027  0.00  0.00    -0.256 NA
ATOM      9  C   UNL     1       3.851  -3.151   1.144  0.00  0.00    +0.049 C 
ATOM     10  C   UNL     1       2.498  -3.213   1.258  0.00  0.00    +0.072 C 
ATOM     11  C   UNL     1       4.683  -3.121   2.401  0.00  0.00    +0.066 C 
ATOM     12  O   UNL     1       0.514  -3.294  -2.534  0.00  0.00    -0.292 OA
ENDROOT
BRANCH   1  17
ATOM     13  C   UNL     1      -0.018   1.503   0.010  0.00  0.00    +0.086 C 
ATOM     14  C   UNL     1       0.002  -0.004   0.002  0.00  0.00    +0.102 A 
ATOM     15  C   UNL     1      -1.078  -0.805   0.003  0.00  0.00    +0.044 A 
ATOM     16  C   UNL     1      -0.601  -2.136  -0.007  0.00  0.00    +0.046 A 
ATOM     17  C   UNL     1       0.742  -2.069  -0.013  0.00  0.00    +0.117 A 
ATOM     18  O   UNL     1       1.102  -0.775  -0.013  0.00  0.00    -0.464 OA
ENDBRANCH   1  17
BRANCH   5  19
ATOM     19  C   UNL     1       4.809  -3.722  -4.851  0.00  0.00    -0.043 A 
ATOM     20  C   UNL     1       5.103  -2.480  -5.385  0.00  0.00    +0.006 A 
ATOM     21  C   UNL     1       5.839  -2.384  -6.549  0.00  0.00    +0.023 A 
ATOM     22  C   UNL     1       6.284  -3.536  -7.185  0.00  0.00    +0.029 A 
ATOM     23  C   UNL     1       5.986  -4.782  -6.647  0.00  0.00    +0.023 A 
ATOM     24  C   UNL     1       5.255  -4.870  -5.479  0.00  0.00    +0.006 A 
BRANCH  22  25
ATOM     25  N   UNL     1       7.028  -3.443  -8.363  0.00  0.00    -0.336 N 
ATOM     26  C   UNL     1       7.341  -2.128  -8.930  0.00  0.00    +0.129 C 
ATOM     27  C   UNL     1       7.496  -4.659  -9.032  0.00  0.00    +0.129 C 
ENDBRANCH  22  25
ENDBRANCH   5  19
BRANCH  10  28
ATOM     28  C   UNL     1       1.876  -3.248   2.522  0.00  0.00    +0.338 C 
ATOM     29  O   UNL     1       2.552  -3.220   3.534  0.00  0.00    -0.245 OA
BRANCH  28  30
ATOM     30  O   UNL     1       0.530  -3.311   2.611  0.00  0.00    -0.459 OA
BRANCH  30  31
ATOM     31  C   UNL     1      -0.033  -3.343   3.924  0.00  0.00    +0.264 C 
BRANCH  31  32
ATOM     32  C   UNL     1      -1.558  -3.414   3.823  0.00  0.00    +0.156 C 
ATOM     33  C   UNL     1      -2.180  -3.328   5.233  0.00  0.00    +0.037 C 
ATOM     34  C   UNL     1      -3.350  -4.345   5.140  0.00  0.00    +0.031 C 
ATOM     35  C   UNL     1      -2.738  -5.411   4.196  0.00  0.00    +0.160 C 
ATOM     36  O   UNL     1      -1.949  -4.668   3.251  0.00  0.00    -0.373 OA
ENDBRANCH  31  32
ENDBRANCH  30  31
ENDBRANCH  28  30
ENDBRANCH  10  28
TORSDOF 7
