REMARK  Name = ZINC47311802
REMARK  10 active torsions:
REMARK  status: ('A' for Active; 'I' for Inactive)
REMARK    1  A    between atoms: C_1  and  C_2
REMARK    2  A    between atoms: C_2  and  C_3
REMARK    3  A    between atoms: C_3  and  C_4
REMARK    4  A    between atoms: C_4  and  C_5
REMARK    5  A    between atoms: C_12  and  N_27
REMARK    6  A    between atoms: C_13  and  C_25
REMARK    7  A    between atoms: C_14  and  C_16
REMARK    8  A    between atoms: C_19  and  C_22
REMARK    9  A    between atoms: C_22  and  C_23
REMARK   10  A    between atoms: C_22  and  C_24
REMARK                            x       y       z     vdW  Elec       q    Type
REMARK                         _______ _______ _______ _____ _____    ______ ____
ROOT
ATOM      1  C   UNL     1       1.444  -2.513  -2.505  0.00  0.00    +0.044 A 
ATOM      2  C   UNL     1       2.768  -2.675  -2.651  0.00  0.00    +0.049 A 
ATOM      3  C   UNL     1       3.011  -3.148  -3.960  0.00  0.00    +0.245 A 
ATOM      4  N   UNL     1       1.865  -3.260  -4.566  0.00  0.00    -0.135 NA
ATOM      5  N   UNL     1       0.856  -2.871  -3.670  0.00  0.00    -0.278 N 
ATOM      6  H   UNL     1      -0.096  -2.860  -3.855  0.00  0.00    +0.189 HD
ATOM      7  O   UNL     1       4.267  -3.412  -4.409  0.00  0.00    -0.421 OA
ATOM      8  C   UNL     1       5.254  -3.471  -3.494  0.00  0.00    +0.201 C 
ATOM      9  C   UNL     1       5.144  -3.039  -2.220  0.00  0.00    +0.098 C 
ATOM     10  C   UNL     1       3.882  -2.426  -1.666  0.00  0.00    +0.101 C 
ENDROOT
BRANCH  10  11
ATOM     11  C   UNL     1       4.076  -0.944  -1.480  0.00  0.00    -0.035 A 
ATOM     12  C   UNL     1       4.402  -0.148  -2.563  0.00  0.00    +0.005 A 
ATOM     13  C   UNL     1       4.580   1.212  -2.392  0.00  0.00    +0.004 A 
ATOM     14  C   UNL     1       4.431   1.777  -1.139  0.00  0.00    -0.045 A 
ATOM     15  C   UNL     1       4.103   0.982  -0.057  0.00  0.00    +0.004 A 
ATOM     16  C   UNL     1       3.921  -0.378  -0.229  0.00  0.00    +0.005 A 
BRANCH  14  17
ATOM     17  C   UNL     1       4.625   3.260  -0.953  0.00  0.00    +0.013 C 
ATOM     18  C   UNL     1       3.334   3.880  -0.417  0.00  0.00    +0.012 C 
ATOM     19  C   UNL     1       5.761   3.504   0.043  0.00  0.00    +0.012 C 
ENDBRANCH  14  17
ENDBRANCH  10  11
BRANCH   8  20
ATOM     20  N   UNL     1       6.456  -4.008  -3.884  0.00  0.00    -0.328 N 
ATOM     21  H   UNL     1       6.572  -4.329  -4.792  0.00  0.00    +0.145 HD
ATOM     22  H   UNL     1       7.189  -4.066  -3.252  0.00  0.00    +0.145 HD
ENDBRANCH   8  20
BRANCH   9  23
ATOM     23  C   UNL     1       6.277  -3.169  -1.354  0.00  0.00    +0.101 C 
ATOM     24  N   UNL     1       7.176  -3.272  -0.667  0.00  0.00    -0.191 NA
ENDBRANCH   9  23
BRANCH   1  25
ATOM     25  C   UNL     1       0.739  -2.027  -1.265  0.00  0.00    +0.055 C 
BRANCH  25  26
ATOM     26  C   UNL     1       0.718  -0.497  -1.257  0.00  0.00    +0.006 C 
BRANCH  26  28
ATOM     27  C   UNL     1      -0.019   1.526   0.010  0.00  0.00    +0.004 C 
ATOM     28  C   UNL     1       0.002  -0.004   0.002  0.00  0.00    -0.003 C 
ENDBRANCH  26  28
ENDBRANCH  25  26
ENDBRANCH   1  25
TORSDOF 7
