REMARK  Name = ZINC08995824
REMARK  4 active torsions:
REMARK  status: ('A' for Active; 'I' for Inactive)
REMARK    1  A    between atoms: C_1  and  O_2
REMARK    2  A    between atoms: O_2  and  C_3
REMARK    3  A    between atoms: C_5  and  C_10
REMARK    4  A    between atoms: C_8  and  O_9
REMARK                            x       y       z     vdW  Elec       q    Type
REMARK                         _______ _______ _______ _____ _____    ______ ____
ROOT
ATOM      1  C   UNL     1      -0.013   1.086   0.008  0.00  0.00    +0.071 C 
ATOM      2  C   UNL     1      -0.858   1.542   1.182  0.00  0.00    +0.111 C 
ATOM      3  C   UNL     1      -2.145   1.154   1.278  0.00  0.00    +0.143 C 
ATOM      4  C   UNL     1      -3.009   1.592   2.431  0.00  0.00    +0.075 C 
ATOM      5  C   UNL     1      -2.527   2.957   2.931  0.00  0.00    +0.013 C 
ATOM      6  C   UNL     1      -1.053   2.847   3.327  0.00  0.00    +0.052 C 
ATOM      7  C   UNL     1      -0.252   2.368   2.139  0.00  0.00    +0.031 C 
ATOM      8  N   UNL     1       1.004   2.735   2.025  0.00  0.00    -0.255 NA
ATOM      9  C   UNL     1       1.836   2.393   1.040  0.00  0.00    +0.079 C 
ATOM     10  C   UNL     1       1.420   1.579  -0.003  0.00  0.00    +0.034 C 
ATOM     11  C   UNL     1       2.479   1.374  -0.900  0.00  0.00    +0.192 C 
ATOM     12  O   UNL     1       2.437   0.708  -1.918  0.00  0.00    -0.287 OA
ATOM     13  C   UNL     1       3.663   2.115  -0.387  0.00  0.00    +0.031 A 
ATOM     14  C   UNL     1       3.267   2.741   0.805  0.00  0.00    +0.012 A 
ATOM     15  C   UNL     1       4.174   3.510   1.512  0.00  0.00    +0.011 A 
ATOM     16  C   UNL     1       5.472   3.659   1.037  0.00  0.00    +0.001 A 
ATOM     17  C   UNL     1       5.860   3.044  -0.134  0.00  0.00    +0.001 A 
ATOM     18  C   UNL     1       4.956   2.269  -0.852  0.00  0.00    +0.012 A 
ATOM     19  O   UNL     1      -2.668   0.361   0.324  0.00  0.00    -0.297 OA
ENDROOT
BRANCH   1  22
ATOM     20  C   UNL     1      -1.759   1.054  -3.342  0.00  0.00    +0.162 A 
ATOM     21  C   UNL     1      -1.139   0.627  -2.178  0.00  0.00    +0.053 A 
ATOM     22  C   UNL     1      -0.682   1.552  -1.259  0.00  0.00    -0.035 A 
ATOM     23  C   UNL     1      -0.831   2.905  -1.503  0.00  0.00    +0.008 A 
ATOM     24  C   UNL     1      -1.443   3.338  -2.664  0.00  0.00    +0.049 A 
ATOM     25  C   UNL     1      -1.909   2.416  -3.587  0.00  0.00    +0.158 A 
BRANCH  20  27
ATOM     26  C   UNL     1      -2.027  -1.236  -3.927  0.00  0.00    +0.277 C 
ATOM     27  O   UNL     1      -2.215   0.145  -4.245  0.00  0.00    -0.491 OA
ENDBRANCH  20  27
BRANCH  25  28
ATOM     28  O   UNL     1      -2.511   2.840  -4.730  0.00  0.00    -0.503 OA
ATOM     29  H   UNL     1      -1.902   2.975  -5.469  0.00  0.00    +0.292 HD
ENDBRANCH  25  28
ENDBRANCH   1  22
TORSDOF 3
