REMARK  Name = ZINC14984741
REMARK  11 active torsions:
REMARK  status: ('A' for Active; 'I' for Inactive)
REMARK    1  A    between atoms: C_1  and  C_2
REMARK    2  A    between atoms: C_2  and  C_3
REMARK    3  A    between atoms: C_3  and  C_4
REMARK    4  A    between atoms: C_3  and  C_6
REMARK    5  A    between atoms: C_4  and  C_5
REMARK    6  A    between atoms: C_6  and  N_67
REMARK    7  A    between atoms: C_9  and  C_12
REMARK    8  A    between atoms: C_9  and  O_31
REMARK    9  A    between atoms: C_19  and  C_21
REMARK   10  A    between atoms: N_23  and  C_24
REMARK   11  A    between atoms: C_24  and  C_25
REMARK                            x       y       z     vdW  Elec       q    Type
REMARK                         _______ _______ _______ _____ _____    ______ ____
ROOT
ATOM      1  C   UNL     1      -2.699   2.115  -2.476  0.00  0.00    -0.015 A 
ATOM      2  C   UNL     1      -2.210   3.332  -2.931  0.00  0.00    +0.010 A 
ATOM      3  C   UNL     1      -2.777   3.956  -4.021  0.00  0.00    +0.047 A 
ATOM      4  C   UNL     1      -3.858   3.370  -4.669  0.00  0.00    +0.136 A 
ATOM      5  C   UNL     1      -4.354   2.139  -4.200  0.00  0.00    +0.021 A 
ATOM      6  C   UNL     1      -3.761   1.520  -3.097  0.00  0.00    +0.018 A 
ATOM      7  C   UNL     1      -5.471   1.800  -5.081  0.00  0.00    +0.063 A 
ATOM      8  C   UNL     1      -5.562   2.813  -5.980  0.00  0.00    +0.190 A 
ATOM      9  O   UNL     1      -4.607   3.733  -5.729  0.00  0.00    -0.450 OA
ENDROOT
BRANCH   1  12
ATOM     10  C   UNL     1       0.058   1.186   0.012  0.00  0.00    -0.076 C 
ATOM     11  C   UNL     1      -0.573   1.816  -1.232  0.00  0.00    +0.021 C 
ATOM     12  C   UNL     1      -2.059   1.449  -1.286  0.00  0.00    +0.088 C 
ATOM     13  C   UNL     1      -2.741   1.928  -0.002  0.00  0.00    +0.021 C 
ATOM     14  C   UNL     1      -2.047   1.295   1.206  0.00  0.00    -0.076 C 
ATOM     15  N   UNL     1      -0.628   1.707   1.214  0.00  0.00    +0.380 N 
ATOM     16  H   UNL     1      -0.578   2.732   1.207  0.00  0.00    -0.082 HD
BRANCH  12  17
ATOM     17  O   UNL     1      -2.196   0.031  -1.399  0.00  0.00    -0.384 OA
ATOM     18  H   UNL     1      -3.114  -0.273  -1.438  0.00  0.00    +0.211 HD
ENDBRANCH  12  17
BRANCH  15  19
ATOM     19  C   UNL     1       0.037   1.202   2.432  0.00  0.00    -0.075 C 
BRANCH  19  20
ATOM     20  C   UNL     1      -0.546   1.926   3.648  0.00  0.00    -0.028 C 
BRANCH  20  22
ATOM     21  C   UNL     1      -0.570   2.015   6.144  0.00  0.00    +0.004 C 
ATOM     22  C   UNL     1       0.100   1.382   4.924  0.00  0.00    -0.002 C 
ENDBRANCH  20  22
BRANCH  20  23
ATOM     23  C   UNL     1      -0.264   3.425   3.532  0.00  0.00    -0.002 C 
ATOM     24  C   UNL     1       1.242   3.651   3.381  0.00  0.00    +0.004 C 
ENDBRANCH  20  23
ENDBRANCH  19  20
ENDBRANCH  15  19
ENDBRANCH   1  12
BRANCH   8  25
ATOM     25  C   UNL     1      -6.551   2.896  -7.064  0.00  0.00    +0.279 C 
ATOM     26  O   UNL     1      -7.373   2.011  -7.206  0.00  0.00    -0.267 OA
ATOM     27  N   UNL     1      -6.547   3.953  -7.901  0.00  0.00    -0.306 N 
ATOM     28  H   UNL     1      -5.891   4.659  -7.788  0.00  0.00    +0.149 HD
BRANCH  27  29
ATOM     29  C   UNL     1      -7.533   4.035  -8.981  0.00  0.00    +0.136 C 
BRANCH  29  30
ATOM     30  C   UNL     1      -7.311   5.323  -9.777  0.00  0.00    +0.135 C 
ATOM     31  C   UNL     1      -8.344   5.420 -10.916  0.00  0.00    +0.035 C 
ATOM     32  C   UNL     1      -9.091   6.747 -10.640  0.00  0.00    +0.031 C 
ATOM     33  C   UNL     1      -8.082   7.507  -9.742  0.00  0.00    +0.160 C 
ATOM     34  O   UNL     1      -7.507   6.464  -8.925  0.00  0.00    -0.375 OA
ENDBRANCH  29  30
ENDBRANCH  27  29
ENDBRANCH   8  25
TORSDOF 9
