REMARK  Name = ZINC60368087
REMARK  12 active torsions:
REMARK  status: ('A' for Active; 'I' for Inactive)
REMARK    1  A    between atoms: C_1  and  N_2
REMARK    2  A    between atoms: N_2  and  C_3
REMARK    3  A    between atoms: N_2  and  C_10
REMARK    4  A    between atoms: C_3  and  C_4
REMARK    5  A    between atoms: C_10  and  C_11
REMARK    6  A    between atoms: C_11  and  C_13
REMARK    7  A    between atoms: C_11  and  O_32
REMARK    8  A    between atoms: C_13  and  S_14
REMARK    9  A    between atoms: S_14  and  C_15
REMARK   10  A    between atoms: C_18  and  C_26
REMARK   11  A    between atoms: N_19  and  C_20
REMARK   12  A    between atoms: C_26  and  C_27
REMARK                            x       y       z     vdW  Elec       q    Type
REMARK                         _______ _______ _______ _____ _____    ______ ____
ROOT
ATOM      1  C   UNL     1       5.332  -0.607   3.816  0.00  0.00    +0.192 A 
ATOM      2  N   UNL     1       4.734  -1.381   4.692  0.00  0.00    -0.122 NA
ATOM      3  N   UNL     1       5.548  -1.676   5.641  0.00  0.00    -0.133 NA
ATOM      4  C   UNL     1       6.704  -1.114   5.430  0.00  0.00    +0.139 A 
ATOM      5  N   UNL     1       6.610  -0.418   4.257  0.00  0.00    -0.303 N 
ENDROOT
BRANCH   5   6
ATOM      6  C   UNL     1       7.662   0.371   3.610  0.00  0.00    +0.091 C 
ATOM      7  C   UNL     1       7.205   1.826   3.485  0.00  0.00    +0.025 C 
ATOM      8  C   UNL     1       8.303   2.649   2.809  0.00  0.00    +0.002 C 
ATOM      9  C   UNL     1       8.582   2.081   1.416  0.00  0.00    +0.000 C 
ATOM     10  C   UNL     1       9.039   0.626   1.541  0.00  0.00    +0.002 C 
ATOM     11  C   UNL     1       7.941  -0.197   2.217  0.00  0.00    +0.025 C 
ENDBRANCH   5   6
BRANCH   1  12
ATOM     12  S   UNL     1       4.622   0.056   2.346  0.00  0.00    -0.084 S 
BRANCH  12  13
ATOM     13  C   UNL     1       2.921  -0.572   2.359  0.00  0.00    +0.106 C 
BRANCH  13  14
ATOM     14  C   UNL     1       2.180  -0.066   1.119  0.00  0.00    +0.108 C 
BRANCH  14  15
ATOM     15  O   UNL     1       2.780  -0.621  -0.053  0.00  0.00    -0.393 OA
ATOM     16  H   UNL     1       2.760  -1.587  -0.085  0.00  0.00    +0.210 HD
ENDBRANCH  14  15
BRANCH  14  17
ATOM     17  C   UNL     1       0.713  -0.491   1.192  0.00  0.00    -0.046 C 
BRANCH  17  19
ATOM     18  C   UNL     1      -0.018   1.465   0.010  0.00  0.00    -0.096 C 
ATOM     19  N   UNL     1       0.002  -0.004   0.002  0.00  0.00    +0.382 N 
ATOM     20  H   UNL     1       0.474  -0.330  -0.828  0.00  0.00    -0.082 HD
BRANCH  19  21
ATOM     21  C   UNL     1      -1.376  -0.512   0.012  0.00  0.00    -0.043 C 
BRANCH  21  22
ATOM     22  C   UNL     1      -2.067  -0.116  -1.267  0.00  0.00    -0.064 A 
ATOM     23  C   UNL     1      -2.750   1.083  -1.340  0.00  0.00    +0.002 A 
ATOM     24  C   UNL     1      -3.385   1.447  -2.513  0.00  0.00    +0.000 A 
ATOM     25  C   UNL     1      -3.335   0.611  -3.613  0.00  0.00    +0.000 A 
ATOM     26  C   UNL     1      -2.652  -0.588  -3.540  0.00  0.00    +0.000 A 
ATOM     27  C   UNL     1      -2.014  -0.950  -2.368  0.00  0.00    +0.002 A 
ENDBRANCH  21  22
ENDBRANCH  19  21
ENDBRANCH  17  19
ENDBRANCH  14  17
ENDBRANCH  13  14
ENDBRANCH  12  13
ENDBRANCH   1  12
BRANCH   4  28
ATOM     28  C   UNL     1       7.922  -1.218   6.312  0.00  0.00    +0.118 C 
BRANCH  28  29
ATOM     29  C   UNL     1       8.754  -2.399   5.884  0.00  0.00    -0.003 A 
ATOM     30  C   UNL     1       9.763  -2.449   4.980  0.00  0.00    +0.011 A 
ATOM     31  C   UNL     1      10.392  -3.657   4.745  0.00  0.00    +0.008 A 
ATOM     32  C   UNL     1       9.981  -4.756   5.424  0.00  0.00    +0.045 A 
ATOM     33  S   UNL     1       8.671  -4.093   6.440  0.00  0.00    -0.101 S 
ENDBRANCH  28  29
ENDBRANCH   4  28
TORSDOF 11
