REMARK  Name = ZINC08827152
REMARK  18 active torsions:
REMARK  status: ('A' for Active; 'I' for Inactive)
REMARK    1  A    between atoms: C_1  and  C_2
REMARK    2  A    between atoms: C_2  and  O_3
REMARK    3  A    between atoms: O_3  and  C_4
REMARK    4  A    between atoms: C_4  and  C_6
REMARK    5  A    between atoms: C_7  and  C_36
REMARK    6  A    between atoms: C_8  and  C_13
REMARK    7  A    between atoms: C_9  and  C_12
REMARK    8  A    between atoms: C_13  and  C_15
REMARK    9  A    between atoms: C_16  and  O_35
REMARK   10  A    between atoms: N_19  and  C_30
REMARK   11  A    between atoms: C_20  and  C_22
REMARK   12  A    between atoms: C_26  and  O_28
REMARK   13  A    between atoms: O_28  and  C_29
REMARK   14  A    between atoms: C_30  and  C_31
REMARK   15  A    between atoms: C_31  and  C_32
REMARK   16  A    between atoms: C_32  and  N_68
REMARK   17  A    between atoms: C_33  and  N_68
REMARK   18  A    between atoms: C_34  and  N_68
REMARK                            x       y       z     vdW  Elec       q    Type
REMARK                         _______ _______ _______ _____ _____    ______ ____
ROOT
ATOM      1  C   UNL     1      -3.617   5.974   3.422  0.00  0.00    +0.071 C 
ATOM      2  C   UNL     1      -3.621   7.327   3.406  0.00  0.00    +0.188 C 
ATOM      3  C   UNL     1      -2.377   7.824   4.031  0.00  0.00    +0.282 C 
ATOM      4  O   UNL     1      -2.085   8.995   4.167  0.00  0.00    -0.267 OA
ATOM      5  N   UNL     1      -1.616   6.787   4.427  0.00  0.00    -0.284 N 
ATOM      6  C   UNL     1      -2.325   5.550   4.081  0.00  0.00    +0.145 C 
ENDROOT
BRANCH   6   7
ATOM      7  C   UNL     1      -1.500   4.730   3.122  0.00  0.00    -0.019 A 
ATOM      8  C   UNL     1      -0.902   5.336   2.033  0.00  0.00    +0.006 A 
ATOM      9  C   UNL     1      -0.144   4.588   1.152  0.00  0.00    +0.004 A 
ATOM     10  C   UNL     1       0.022   3.232   1.361  0.00  0.00    +0.045 A 
ATOM     11  C   UNL     1      -0.581   2.621   2.451  0.00  0.00    +0.120 A 
ATOM     12  C   UNL     1      -1.341   3.374   3.333  0.00  0.00    +0.051 A 
BRANCH  11  13
ATOM     13  O   UNL     1      -0.423   1.287   2.656  0.00  0.00    -0.495 OA
ATOM     14  C   UNL     1       0.373   0.574   1.707  0.00  0.00    +0.277 C 
ENDBRANCH  11  13
ENDBRANCH   6   7
BRANCH   1  15
ATOM     15  C   UNL     1      -4.665   5.090   2.901  0.00  0.00    +0.197 C 
ATOM     16  O   UNL     1      -4.520   4.545   1.823  0.00  0.00    -0.287 OA
BRANCH  15  19
ATOM     17  C   UNL     1      -7.916   4.149   4.307  0.00  0.00    +0.128 A 
ATOM     18  C   UNL     1      -7.009   4.090   3.289  0.00  0.00    -0.008 A 
ATOM     19  C   UNL     1      -5.894   4.863   3.683  0.00  0.00    +0.046 A 
ATOM     20  C   UNL     1      -6.171   5.362   4.944  0.00  0.00    +0.025 A 
ATOM     21  N   UNL     1      -7.390   4.934   5.310  0.00  0.00    -0.352 N 
ATOM     22  H   UNL     1      -7.829   5.142   6.150  0.00  0.00    +0.166 HD
ATOM     23  C   UNL     1      -5.262   6.240   5.763  0.00  0.00    +0.064 C 
ATOM     24  C   UNL     1      -7.167   3.341   1.990  0.00  0.00    +0.047 C 
BRANCH  17  25
ATOM     25  C   UNL     1      -9.225   3.489   4.330  0.00  0.00    +0.356 C 
ATOM     26  O   UNL     1      -9.584   2.817   3.382  0.00  0.00    -0.243 OA
BRANCH  25  27
ATOM     27  O   UNL     1     -10.031   3.628   5.402  0.00  0.00    -0.460 OA
BRANCH  27  29
ATOM     28  C   UNL     1     -12.082   3.219   6.650  0.00  0.00    +0.048 C 
ATOM     29  C   UNL     1     -11.313   2.947   5.356  0.00  0.00    +0.229 C 
ENDBRANCH  27  29
ENDBRANCH  25  27
ENDBRANCH  17  25
ENDBRANCH  15  19
ENDBRANCH   1  15
BRANCH   2  30
ATOM     30  O   UNL     1      -4.607   8.102   2.898  0.00  0.00    -0.502 OA
ATOM     31  H   UNL     1      -4.365   9.066   3.011  0.00  0.00    +0.292 HD
ENDBRANCH   2  30
BRANCH   5  32
ATOM     32  C   UNL     1      -0.311   6.878   5.086  0.00  0.00    +0.107 C 
BRANCH  32  33
ATOM     33  C   UNL     1       0.794   6.896   4.029  0.00  0.00    +0.000 C 
BRANCH  33  34
ATOM     34  C   UNL     1       2.157   6.990   4.718  0.00  0.00    -0.078 C 
BRANCH  34  37
ATOM     35  C   UNL     1       4.518   7.335   4.305  0.00  0.00    -0.097 C 
ATOM     36  C   UNL     1       3.279   5.729   2.982  0.00  0.00    -0.097 C 
ATOM     37  N   UNL     1       3.212   7.028   3.683  0.00  0.00    +0.376 N 
ATOM     38  H   UNL     1       2.986   7.763   3.003  0.00  0.00    -0.083 HD
ENDBRANCH  34  37
ENDBRANCH  33  34
ENDBRANCH  32  33
ENDBRANCH   5  32
TORSDOF 12
