REMARK  Name = ZINC12919164
REMARK  6 active torsions:
REMARK  status: ('A' for Active; 'I' for Inactive)
REMARK    1  A    between atoms: C_1  and  C_2
REMARK    2  A    between atoms: C_5  and  C_7
REMARK    3  A    between atoms: C_13  and  C_15
REMARK    4  A    between atoms: C_15  and  N_16
REMARK    5  A    between atoms: C_17  and  C_19
REMARK    6  A    between atoms: C_22  and  C_24
REMARK                            x       y       z     vdW  Elec       q    Type
REMARK                         _______ _______ _______ _____ _____    ______ ____
ROOT
ATOM      1  C   UNL     1      -2.173  10.595   0.070  0.00  0.00    +0.087 A 
ATOM      2  C   UNL     1      -0.805  10.651   0.063  0.00  0.00    +0.077 A 
ATOM      3  S   UNL     1      -0.400   8.910   0.052  0.00  0.00    -0.060 S 
ATOM      4  C   UNL     1      -2.075   8.288   0.058  0.00  0.00    +0.165 A 
ATOM      5  N   UNL     1      -2.774   9.407   0.062  0.00  0.00    -0.224 NA
ATOM      6  N   UNL     1      -2.523   6.973   0.053  0.00  0.00    -0.263 N 
ATOM      7  C   UNL     1      -1.636   5.958   0.043  0.00  0.00    +0.236 C 
ATOM      8  O   UNL     1      -0.446   6.193   0.038  0.00  0.00    -0.274 OA
ATOM      9  H   UNL     1      -3.475   6.785   0.056  0.00  0.00    +0.157 HD
ENDROOT
BRANCH   1  14
ATOM     10  C   UNL     1      -4.345  15.796   0.106  0.00  0.00    +0.051 C 
ATOM     11  C   UNL     1      -4.016  14.326   0.098  0.00  0.00    -0.013 A 
ATOM     12  C   UNL     1      -4.859  13.263   0.097  0.00  0.00    +0.011 A 
ATOM     13  C   UNL     1      -4.334  11.988   0.082  0.00  0.00    +0.018 A 
ATOM     14  C   UNL     1      -2.973  11.838   0.080  0.00  0.00    +0.038 A 
ATOM     15  S   UNL     1      -2.416  13.534   0.085  0.00  0.00    -0.092 S 
ENDBRANCH   1  14
BRANCH   7  16
ATOM     16  C   UNL     1      -2.122   4.532   0.037  0.00  0.00    +0.200 C 
BRANCH  16  17
ATOM     17  N   UNL     1      -0.973   3.624   0.027  0.00  0.00    -0.302 N 
ATOM     18  C   UNL     1      -1.167   2.290   0.020  0.00  0.00    +0.251 C 
ATOM     19  O   UNL     1      -2.298   1.840   0.024  0.00  0.00    -0.270 OA
ATOM     20  H   UNL     1      -0.071   3.983   0.024  0.00  0.00    +0.150 HD
BRANCH  18  21
ATOM     21  C   UNL     1      -0.017   1.382   0.010  0.00  0.00    +0.074 A 
ATOM     22  C   UNL     1       0.002  -0.004   0.002  0.00  0.00    +0.021 A 
ATOM     23  C   UNL     1       1.232  -0.613  -0.013  0.00  0.00    +0.011 A 
ATOM     24  C   UNL     1       2.353   0.156  -0.020  0.00  0.00    -0.013 A 
ATOM     25  S   UNL     1       1.724   1.772  -0.005  0.00  0.00    -0.089 S 
ATOM     26  C   UNL     1       3.793  -0.288  -0.035  0.00  0.00    +0.051 C 
ENDBRANCH  18  21
ENDBRANCH  16  17
ENDBRANCH   7  16
TORSDOF 4
