REMARK  Name = ZINC09087621
REMARK  13 active torsions:
REMARK  status: ('A' for Active; 'I' for Inactive)
REMARK    1  A    between atoms: C_1  and  C_2
REMARK    2  A    between atoms: C_4  and  C_38
REMARK    3  A    between atoms: C_5  and  N_9
REMARK    4  A    between atoms: C_6  and  C_8
REMARK    5  A    between atoms: C_10  and  C_12
REMARK    6  A    between atoms: C_12  and  S_13
REMARK    7  A    between atoms: S_13  and  C_14
REMARK    8  A    between atoms: C_15  and  C_36
REMARK    9  A    between atoms: C_16  and  C_28
REMARK   10  A    between atoms: C_21  and  C_25
REMARK   11  A    between atoms: C_21  and  C_26
REMARK   12  A    between atoms: C_31  and  O_34
REMARK   13  A    between atoms: O_34  and  C_35
REMARK                            x       y       z     vdW  Elec       q    Type
REMARK                         _______ _______ _______ _____ _____    ______ ____
ROOT
ATOM      1  C   UNL     1       6.612   1.485   0.912  0.00  0.00    +0.111 C 
ATOM      2  C   UNL     1       5.236   1.343   0.845  0.00  0.00    +0.069 C 
ATOM      3  C   UNL     1       4.542   1.875  -0.396  0.00  0.00    +0.078 C 
ATOM      4  C   UNL     1       5.444   2.511  -1.437  0.00  0.00    +0.112 C 
ATOM      5  C   UNL     1       4.917   3.012  -2.566  0.00  0.00    +0.143 C 
ATOM      6  C   UNL     1       5.784   3.648  -3.620  0.00  0.00    +0.081 C 
ATOM      7  C   UNL     1       7.016   4.267  -2.954  0.00  0.00    -0.023 C 
ATOM      8  C   UNL     1       7.762   3.175  -2.182  0.00  0.00    +0.058 C 
ATOM      9  C   UNL     1       6.825   2.553  -1.172  0.00  0.00    +0.032 C 
ATOM     10  N   UNL     1       7.318   2.062  -0.063  0.00  0.00    -0.248 NA
ATOM     11  C   UNL     1       6.578   5.370  -1.989  0.00  0.00    +0.011 C 
ATOM     12  C   UNL     1       7.937   4.857  -4.024  0.00  0.00    +0.011 C 
ATOM     13  O   UNL     1       3.585   2.943  -2.760  0.00  0.00    -0.297 OA
ENDROOT
BRANCH   3  14
ATOM     14  C   UNL     1       3.802   0.735  -1.048  0.00  0.00    -0.038 A 
ATOM     15  C   UNL     1       2.421   0.747  -1.095  0.00  0.00    +0.008 A 
ATOM     16  C   UNL     1       1.740  -0.297  -1.691  0.00  0.00    +0.046 A 
ATOM     17  C   UNL     1       2.444  -1.357  -2.243  0.00  0.00    +0.120 A 
ATOM     18  C   UNL     1       3.831  -1.369  -2.189  0.00  0.00    +0.046 A 
ATOM     19  C   UNL     1       4.507  -0.320  -1.597  0.00  0.00    +0.008 A 
BRANCH  17  20
ATOM     20  O   UNL     1       1.777  -2.385  -2.831  0.00  0.00    -0.495 OA
ATOM     21  C   UNL     1       2.567  -3.443  -3.378  0.00  0.00    +0.277 C 
ENDBRANCH  17  20
ENDBRANCH   3  14
BRANCH   2  22
ATOM     22  C   UNL     1       4.498   0.721   1.903  0.00  0.00    +0.098 C 
ATOM     23  N   UNL     1       3.913   0.227   2.742  0.00  0.00    -0.191 NA
ENDBRANCH   2  22
BRANCH   1  24
ATOM     24  S   UNL     1       7.460   0.883   2.334  0.00  0.00    -0.096 S 
BRANCH  24  25
ATOM     25  C   UNL     1       9.161   1.319   1.894  0.00  0.00    +0.172 C 
BRANCH  25  27
ATOM     26  N   UNL     1      11.416   1.111   2.887  0.00  0.00    -0.284 N 
ATOM     27  C   UNL     1      10.092   0.887   2.997  0.00  0.00    +0.227 C 
ATOM     28  O   UNL     1       9.649   0.338   3.984  0.00  0.00    -0.275 OA
ATOM     29  H   UNL     1      11.776   1.502   2.076  0.00  0.00    +0.155 HD
BRANCH  26  34
ATOM     30  C   UNL     1      14.886  -0.234   7.170  0.00  0.00    +0.044 C 
ATOM     31  C   UNL     1      13.964   0.124   6.032  0.00  0.00    -0.050 A 
ATOM     32  C   UNL     1      14.233  -0.336   4.756  0.00  0.00    +0.008 A 
ATOM     33  C   UNL     1      13.390  -0.011   3.711  0.00  0.00    -0.029 A 
ATOM     34  C   UNL     1      12.272   0.779   3.944  0.00  0.00    +0.039 A 
ATOM     35  C   UNL     1      12.007   1.243   5.225  0.00  0.00    -0.029 A 
ATOM     36  C   UNL     1      12.851   0.910   6.267  0.00  0.00    +0.008 A 
ATOM     37  C   UNL     1      10.798   2.105   5.481  0.00  0.00    +0.045 C 
ATOM     38  C   UNL     1      13.684  -0.511   2.321  0.00  0.00    +0.045 C 
ENDBRANCH  26  34
ENDBRANCH  25  27
ENDBRANCH  24  25
ENDBRANCH   1  24
TORSDOF 7
