REMARK  Name = ZINC06846956
REMARK  5 active torsions:
REMARK  status: ('A' for Active; 'I' for Inactive)
REMARK    1  A    between atoms: C_5  and  C_7
REMARK    2  A    between atoms: C_8  and  C_9
REMARK    3  A    between atoms: C_8  and  C_11
REMARK    4  A    between atoms: C_13  and  C_16
REMARK    5  A    between atoms: C_21  and  O_22
REMARK                            x       y       z     vdW  Elec       q    Type
REMARK                         _______ _______ _______ _____ _____    ______ ____
ROOT
ATOM      1  C   UNL     1      -1.161  -2.019  -0.307  0.00  0.00    +0.119 A 
ATOM      2  N   UNL     1      -1.165  -0.696  -0.385  0.00  0.00    -0.238 NA
ATOM      3  C   UNL     1      -0.058  -0.022  -0.634  0.00  0.00    +0.082 A 
ATOM      4  C   UNL     1       1.117  -0.703  -0.823  0.00  0.00    +0.075 A 
ATOM      5  S   UNL     1       0.560  -2.389  -0.613  0.00  0.00    -0.074 S 
ENDROOT
BRANCH   3   6
ATOM      6  C   UNL     1      -0.087   1.459  -0.716  0.00  0.00    +0.042 A 
ATOM      7  C   UNL     1       1.083   2.167  -0.981  0.00  0.00    +0.013 A 
ATOM      8  C   UNL     1       1.052   3.545  -1.056  0.00  0.00    +0.001 A 
ATOM      9  C   UNL     1      -0.139   4.226  -0.871  0.00  0.00    +0.004 A 
ATOM     10  C   UNL     1      -1.305   3.533  -0.608  0.00  0.00    +0.046 A 
ATOM     11  C   UNL     1      -1.289   2.149  -0.534  0.00  0.00    +0.126 A 
BRANCH  11  12
ATOM     12  O   UNL     1      -2.436   1.466  -0.282  0.00  0.00    -0.506 OA
ATOM     13  H   UNL     1      -2.607   1.320   0.659  0.00  0.00    +0.292 HD
ENDBRANCH  11  12
ENDBRANCH   3   6
BRANCH   1  15
ATOM     14  C   UNL     1      -2.062  -4.286  -0.003  0.00  0.00    +0.031 C 
ATOM     15  C   UNL     1      -2.281  -2.941  -0.041  0.00  0.00    +0.084 C 
BRANCH  14  20
ATOM     16  C   UNL     1      -5.487  -5.767  -0.361  0.00  0.00    +0.001 A 
ATOM     17  C   UNL     1      -5.337  -6.957   0.332  0.00  0.00    +0.001 A 
ATOM     18  C   UNL     1      -4.125  -7.280   0.915  0.00  0.00    +0.020 A 
ATOM     19  C   UNL     1      -3.053  -6.417   0.811  0.00  0.00    +0.048 A 
ATOM     20  C   UNL     1      -3.196  -5.211   0.113  0.00  0.00    -0.005 A 
ATOM     21  C   UNL     1      -4.429  -4.891  -0.469  0.00  0.00    +0.009 A 
ATOM     22 CL   UNL     1      -1.533  -6.824   1.545  0.00  0.00    -0.083 Cl
ENDBRANCH  14  20
BRANCH  15  23
ATOM     23  C   UNL     1      -3.598  -2.423   0.179  0.00  0.00    +0.102 C 
ATOM     24  N   UNL     1      -4.643  -2.013   0.353  0.00  0.00    -0.191 NA
ENDBRANCH  15  23
ENDBRANCH   1  15
TORSDOF 5
