REMARK  Name = ZINC39982557
REMARK  8 active torsions:
REMARK  status: ('A' for Active; 'I' for Inactive)
REMARK    1  A    between atoms: C_1  and  C_2
REMARK    2  A    between atoms: C_2  and  C_4
REMARK    3  A    between atoms: C_2  and  S_16
REMARK    4  A    between atoms: N_6  and  C_7
REMARK    5  A    between atoms: N_6  and  C_8
REMARK    6  A    between atoms: C_8  and  C_9
REMARK    7  A    between atoms: S_16  and  C_17
REMARK    8  A    between atoms: C_21  and  C_23
REMARK                            x       y       z     vdW  Elec       q    Type
REMARK                         _______ _______ _______ _____ _____    ______ ____
ROOT
ATOM      1  C   UNL     1       2.582  -0.025   1.234  0.00  0.00    +0.340 C 
ATOM      2  N   UNL     1       3.133  -0.553  -0.026  0.00  0.00    -0.219 N 
ATOM      3  N   UNL     1       3.429   0.574  -0.807  0.00  0.00    -0.145 NA
ATOM      4  C   UNL     1       3.120   1.665  -0.158  0.00  0.00    +0.238 C 
ATOM      5  O   UNL     1       2.608   1.399   1.071  0.00  0.00    -0.443 OA
ATOM      6  H   UNL     1       3.264  -1.484  -0.265  0.00  0.00    +0.173 HD
ENDROOT
BRANCH   4   7
ATOM      7  C   UNL     1       3.296   2.958  -0.670  0.00  0.00    +0.043 C 
ATOM      8  C   UNL     1       3.809   3.308  -1.920  0.00  0.00    +0.008 A 
ATOM      9  C   UNL     1       4.286   2.540  -3.004  0.00  0.00    +0.010 A 
ATOM     10  C   UNL     1       4.737   3.162  -4.124  0.00  0.00    +0.001 A 
ATOM     11  C   UNL     1       4.742   4.554  -4.235  0.00  0.00    +0.002 A 
ATOM     12  C   UNL     1       4.299   5.353  -3.233  0.00  0.00    +0.026 A 
ATOM     13  C   UNL     1       3.813   4.775  -2.032  0.00  0.00    +0.043 A 
ATOM     14  N   UNL     1       3.336   5.323  -0.931  0.00  0.00    -0.380 N 
ATOM     15  C   UNL     1       2.965   4.266   0.014  0.00  0.00    +0.154 C 
ATOM     16  H   UNL     1       3.242   6.275  -0.774  0.00  0.00    +0.160 HD
ENDBRANCH   4   7
BRANCH   1  17
ATOM     17  S   UNL     1       0.879  -0.605   1.472  0.00  0.00    -0.084 S 
BRANCH  17  19
ATOM     18  C   UNL     1      -0.019   1.526   0.010  0.00  0.00    +0.029 C 
ATOM     19  C   UNL     1       0.002  -0.004   0.002  0.00  0.00    +0.134 C 
BRANCH  19  20
ATOM     20  C   UNL     1      -1.412  -0.526   0.013  0.00  0.00    +0.228 C 
ATOM     21  O   UNL     1      -1.939  -0.827   1.062  0.00  0.00    -0.274 OA
ATOM     22  N   UNL     1      -2.090  -0.657  -1.144  0.00  0.00    -0.299 N 
ATOM     23  C   UNL     1      -1.453  -0.293  -2.412  0.00  0.00    +0.132 C 
BRANCH  22  24
ATOM     24  C   UNL     1      -3.465  -1.164  -1.134  0.00  0.00    +0.142 C 
BRANCH  24  25
ATOM     25  C   UNL     1      -4.425  -0.011  -0.995  0.00  0.00    -0.027 A 
ATOM     26  C   UNL     1      -4.813   0.417   0.261  0.00  0.00    +0.005 A 
ATOM     27  C   UNL     1      -5.693   1.475   0.391  0.00  0.00    +0.003 A 
ATOM     28  C   UNL     1      -6.187   2.106  -0.736  0.00  0.00    +0.038 A 
ATOM     29  C   UNL     1      -5.799   1.678  -1.994  0.00  0.00    +0.124 A 
ATOM     30  C   UNL     1      -4.912   0.622  -2.122  0.00  0.00    +0.043 A 
ATOM     31  F   UNL     1      -6.281   2.293  -3.096  0.00  0.00    -0.205 F 
ENDBRANCH  24  25
ENDBRANCH  22  24
ENDBRANCH  19  20
ENDBRANCH  17  19
ENDBRANCH   1  17
TORSDOF 6
