REMARK  Name = ZINC19858551
REMARK  12 active torsions:
REMARK  status: ('A' for Active; 'I' for Inactive)
REMARK    1  A    between atoms: C_1  and  C_2
REMARK    2  A    between atoms: C_3  and  C_34
REMARK    3  A    between atoms: C_4  and  C_25
REMARK    4  A    between atoms: C_10  and  C_20
REMARK    5  A    between atoms: C_12  and  C_16
REMARK    6  A    between atoms: C_16  and  O_18
REMARK    7  A    between atoms: O_18  and  C_19
REMARK    8  A    between atoms: C_28  and  O_33
REMARK    9  A    between atoms: C_29  and  O_31
REMARK   10  A    between atoms: O_31  and  C_32
REMARK   11  A    between atoms: C_34  and  O_36
REMARK   12  A    between atoms: O_36  and  C_37
REMARK                            x       y       z     vdW  Elec       q    Type
REMARK                         _______ _______ _______ _____ _____    ______ ____
ROOT
ATOM      1  C   UNL     1      -5.235   2.601   2.360  0.00  0.00    +0.061 C 
ATOM      2  C   UNL     1      -4.406   2.215   1.161  0.00  0.00    +0.016 C 
ATOM      3  C   UNL     1      -3.358   1.387   1.313  0.00  0.00    +0.065 C 
ATOM      4  C   UNL     1      -2.507   0.986   0.144  0.00  0.00    +0.092 C 
ATOM      5  C   UNL     1      -3.217   1.257  -1.159  0.00  0.00    +0.025 C 
ATOM      6  C   UNL     1      -4.271   2.096  -1.209  0.00  0.00    +0.016 C 
ATOM      7  N   UNL     1      -4.725   2.710  -0.072  0.00  0.00    -0.321 N 
ATOM      8  C   UNL     1      -4.973   2.385  -2.513  0.00  0.00    +0.061 C 
ATOM      9  C   UNL     1      -4.891   1.158  -3.423  0.00  0.00    +0.053 C 
ATOM     10  C   UNL     1      -3.414   0.818  -3.649  0.00  0.00    +0.176 C 
ATOM     11  C   UNL     1      -2.750   0.607  -2.316  0.00  0.00    +0.176 C 
ATOM     12  O   UNL     1      -1.794  -0.139  -2.238  0.00  0.00    -0.291 OA
ATOM     13  H   UNL     1      -5.352   3.610  -0.159  0.00  0.00    +0.152 HD
ENDROOT
BRANCH   4  14
ATOM     14  C   UNL     1      -1.220   1.770   0.178  0.00  0.00    -0.032 A 
ATOM     15  C   UNL     1      -1.250   3.150   0.108  0.00  0.00    +0.008 A 
ATOM     16  C   UNL     1      -0.072   3.873   0.134  0.00  0.00    +0.049 A 
ATOM     17  C   UNL     1       1.143   3.214   0.235  0.00  0.00    +0.158 A 
ATOM     18  C   UNL     1       1.173   1.825   0.311  0.00  0.00    +0.162 A 
ATOM     19  C   UNL     1      -0.011   1.107   0.285  0.00  0.00    +0.054 A 
BRANCH  18  20
ATOM     20  O   UNL     1       2.363   1.174   0.411  0.00  0.00    -0.491 OA
ATOM     21  C   UNL     1       2.318  -0.252   0.485  0.00  0.00    +0.277 C 
ENDBRANCH  18  20
BRANCH  17  22
ATOM     22  O   UNL     1       2.302   3.924   0.260  0.00  0.00    -0.503 OA
ATOM     23  H   UNL     1       3.266   3.400   0.341  0.00  0.00    +0.292 HD
ENDBRANCH  17  22
ENDBRANCH   4  14
BRANCH   9  24
ATOM     24  C   UNL     1      -5.549   1.462  -4.744  0.00  0.00    -0.006 A 
ATOM     25  C   UNL     1      -6.607   0.852  -5.332  0.00  0.00    +0.011 A 
ATOM     26  C   UNL     1      -7.045   1.306  -6.562  0.00  0.00    +0.008 A 
ATOM     27  C   UNL     1      -6.403   2.349  -7.143  0.00  0.00    +0.045 A 
ATOM     28  S   UNL     1      -5.142   2.726  -5.938  0.00  0.00    -0.101 S 
ENDBRANCH   9  24
BRANCH  10  29
ATOM     29  C   UNL     1      -3.307  -0.439  -4.473  0.00  0.00    +0.318 C 
ATOM     30  O   UNL     1      -4.307  -1.007  -4.843  0.00  0.00    -0.250 OA
BRANCH  29  31
ATOM     31  O   UNL     1      -2.099  -0.928  -4.797  0.00  0.00    -0.467 OA
ATOM     32  C   UNL     1      -2.072  -2.143  -5.592  0.00  0.00    +0.280 C 
ENDBRANCH  29  31
ENDBRANCH  10  29
BRANCH   3  33
ATOM     33  C   UNL     1      -3.053   0.882   2.599  0.00  0.00    +0.337 C 
ATOM     34  O   UNL     1      -3.668   1.280   3.570  0.00  0.00    -0.245 OA
BRANCH  33  35
ATOM     35  O   UNL     1      -2.080  -0.041   2.748  0.00  0.00    -0.465 OA
ATOM     36  C   UNL     1      -1.825  -0.506   4.075  0.00  0.00    +0.280 C 
ENDBRANCH  33  35
ENDBRANCH   3  33
TORSDOF 8
