REMARK  Name = ZINC28674903
REMARK  9 active torsions:
REMARK  status: ('A' for Active; 'I' for Inactive)
REMARK    1  A    between atoms: C_1  and  C_2
REMARK    2  A    between atoms: C_2  and  O_3
REMARK    3  A    between atoms: O_3  and  C_4
REMARK    4  A    between atoms: C_11  and  C_18
REMARK    5  A    between atoms: C_13  and  O_14
REMARK    6  A    between atoms: C_18  and  S_19
REMARK    7  A    between atoms: S_19  and  C_20
REMARK    8  A    between atoms: C_23  and  C_26
REMARK    9  A    between atoms: N_24  and  N_25
REMARK                            x       y       z     vdW  Elec       q    Type
REMARK                         _______ _______ _______ _____ _____    ______ ____
ROOT
ATOM      1  C   UNL     1      -1.425   8.284  10.766  0.00  0.00    +0.405 C 
ATOM      2  O   UNL     1      -2.571   7.965  11.012  0.00  0.00    -0.226 OA
ATOM      3  N   UNL     1      -0.813   7.801   9.666  0.00  0.00    -0.251 N 
ATOM      4  C   UNL     1      -1.528   7.026   8.753  0.00  0.00    +0.040 A 
ATOM      5  C   UNL     1      -0.886   5.993   8.070  0.00  0.00    +0.024 A 
ATOM      6  C   UNL     1      -1.572   5.227   7.173  0.00  0.00    +0.013 A 
ATOM      7  C   UNL     1      -2.931   5.474   6.942  0.00  0.00    +0.022 A 
ATOM      8  C   UNL     1      -3.690   4.672   5.981  0.00  0.00    -0.020 A 
ATOM      9  C   UNL     1      -5.004   4.965   5.796  0.00  0.00    +0.092 A 
ATOM     10  C   UNL     1      -5.595   6.021   6.519  0.00  0.00    +0.285 A 
ATOM     11  O   UNL     1      -4.892   6.757   7.394  0.00  0.00    -0.425 OA
ATOM     12  C   UNL     1      -3.583   6.518   7.625  0.00  0.00    +0.141 A 
ATOM     13  C   UNL     1      -2.872   7.288   8.532  0.00  0.00    +0.070 A 
ATOM     14  H   UNL     1       0.251   8.018   9.489  0.00  0.00    +0.158 HD
ENDROOT
BRANCH  10  15
ATOM     15  O   UNL     1      -6.774   6.273   6.343  0.00  0.00    -0.480 OA
ATOM     16  H   UNL     1      -7.249   7.095   6.899  0.00  0.00    +0.295 HD
ENDBRANCH  10  15
BRANCH   1  17
ATOM     17  O   UNL     1      -0.766   9.120  11.591  0.00  0.00    -0.450 OA
BRANCH  17  19
ATOM     18  C   UNL     1      -0.584  10.530  13.568  0.00  0.00    +0.048 C 
ATOM     19  C   UNL     1      -1.488   9.600  12.756  0.00  0.00    +0.230 C 
ENDBRANCH  17  19
ENDBRANCH   1  17
BRANCH   8  20
ATOM     20  C   UNL     1      -3.034   3.547   5.222  0.00  0.00    +0.113 C 
BRANCH  20  21
ATOM     21  S   UNL     1      -2.353   4.183   3.671  0.00  0.00    -0.080 S 
BRANCH  21  22
ATOM     22  C   UNL     1      -1.667   2.702   3.007  0.00  0.00    +0.209 A 
ATOM     23  N   UNL     1      -1.693   1.513   3.563  0.00  0.00    -0.121 NA
ATOM     24  N   UNL     1      -1.103   0.662   2.801  0.00  0.00    -0.123 NA
ATOM     25  C   UNL     1      -0.660   1.254   1.728  0.00  0.00    +0.255 A 
ATOM     26  N   UNL     1      -1.007   2.574   1.819  0.00  0.00    -0.220 N 
BRANCH  25  27
ATOM     27  C   UNL     1       0.089   0.604   0.594  0.00  0.00    +0.454 C 
ATOM     28  F   UNL     1      -0.040  -0.786   0.686  0.00  0.00    -0.163 F 
ATOM     29  F   UNL     1       1.442   0.952   0.668  0.00  0.00    -0.163 F 
ATOM     30  F   UNL     1      -0.439   1.041  -0.625  0.00  0.00    -0.163 F 
ENDBRANCH  25  27
BRANCH  26  31
ATOM     31  N   UNL     1      -0.746   3.560   0.910  0.00  0.00    -0.295 N 
ATOM     32  H   UNL     1      -0.201   3.324  -0.016  0.00  0.00    +0.163 HD
ATOM     33  H   UNL     1      -1.082   4.589   1.104  0.00  0.00    +0.163 HD
ENDBRANCH  26  31
ENDBRANCH  21  22
ENDBRANCH  20  21
ENDBRANCH   8  20
TORSDOF 8
