REMARK  Name = ZINC17294852
REMARK  12 active torsions:
REMARK  status: ('A' for Active; 'I' for Inactive)
REMARK    1  A    between atoms: C_1  and  C_2
REMARK    2  A    between atoms: C_5  and  S_8
REMARK    3  A    between atoms: S_8  and  N_11
REMARK    4  A    between atoms: N_11  and  C_12
REMARK    5  A    between atoms: C_12  and  C_14
REMARK    6  A    between atoms: C_12  and  C_18
REMARK    7  A    between atoms: C_14  and  C_15
REMARK    8  A    between atoms: C_15  and  C_16
REMARK    9  A    between atoms: C_15  and  C_17
REMARK   10  A    between atoms: N_20  and  C_21
REMARK   11  A    between atoms: C_21  and  C_22
REMARK   12  A    between atoms: C_22  and  C_23
REMARK                            x       y       z     vdW  Elec       q    Type
REMARK                         _______ _______ _______ _____ _____    ______ ____
ROOT
ATOM      1  C   UNL     1      -4.821  -3.246  -2.170  0.00  0.00    +0.162 C 
ENDROOT
BRANCH   1   2
ATOM      2  C   UNL     1      -3.751  -2.220  -1.898  0.00  0.00    +0.232 C 
ATOM      3  O   UNL     1      -3.097  -1.769  -2.814  0.00  0.00    -0.274 OA
ATOM      4  N   UNL     1      -3.522  -1.805  -0.636  0.00  0.00    -0.314 N 
ATOM      5  H   UNL     1      -4.045  -2.166   0.096  0.00  0.00    +0.149 HD
BRANCH   4   6
ATOM      6  C   UNL     1      -2.482  -0.807  -0.372  0.00  0.00    +0.109 C 
BRANCH   6   7
ATOM      7  C   UNL     1      -2.427  -0.513   1.129  0.00  0.00    +0.056 C 
BRANCH   7   8
ATOM      8  C   UNL     1      -1.357   0.512   1.401  0.00  0.00    -0.021 A 
ATOM      9  C   UNL     1      -0.089   0.266   1.766  0.00  0.00    +0.087 A 
ATOM     10  N   UNL     1       0.588   1.444   1.924  0.00  0.00    -0.360 N 
ATOM     11  H   UNL     1       1.519   1.521   2.185  0.00  0.00    +0.165 HD
ATOM     12  C   UNL     1      -0.249   2.505   1.658  0.00  0.00    +0.047 A 
ATOM     13  C   UNL     1      -1.504   1.968   1.319  0.00  0.00    +0.003 A 
ATOM     14  C   UNL     1      -2.564   2.820   1.001  0.00  0.00    +0.010 A 
ATOM     15  C   UNL     1      -2.373   4.173   1.013  0.00  0.00    +0.001 A 
ATOM     16  C   UNL     1      -1.137   4.708   1.347  0.00  0.00    +0.002 A 
ATOM     17  C   UNL     1      -0.079   3.885   1.668  0.00  0.00    +0.026 A 
ENDBRANCH   7   8
ENDBRANCH   6   7
ENDBRANCH   4   6
ENDBRANCH   1   2
BRANCH   1  18
ATOM     18  N   UNL     1      -4.873  -3.528  -3.607  0.00  0.00    -0.178 NA
ATOM     19  H   UNL     1      -5.410  -2.970  -4.191  0.00  0.00    +0.149 HD
BRANCH  18  20
ATOM     20  S   UNL     1      -4.016  -4.799  -4.233  0.00  0.00    +0.059 S 
ATOM     21  O   UNL     1      -4.356  -4.879  -5.611  0.00  0.00    -0.153 OA
ATOM     22  O   UNL     1      -2.676  -4.644  -3.788  0.00  0.00    -0.153 OA
BRANCH  20  27
ATOM     23  C   UNL     1      -6.125  -9.823  -1.641  0.00  0.00    +0.044 C 
ATOM     24  C   UNL     1      -5.598  -8.568  -2.289  0.00  0.00    -0.050 A 
ATOM     25  C   UNL     1      -6.207  -8.068  -3.424  0.00  0.00    +0.005 A 
ATOM     26  C   UNL     1      -5.724  -6.917  -4.018  0.00  0.00    +0.029 A 
ATOM     27  C   UNL     1      -4.632  -6.266  -3.476  0.00  0.00    +0.105 A 
ATOM     28  C   UNL     1      -4.019  -6.769  -2.344  0.00  0.00    +0.029 A 
ATOM     29  C   UNL     1      -4.505  -7.917  -1.747  0.00  0.00    +0.005 A 
ENDBRANCH  20  27
ENDBRANCH  18  20
ENDBRANCH   1  18
BRANCH   1  30
ATOM     30  C   UNL     1      -6.175  -2.706  -1.707  0.00  0.00    +0.032 C 
BRANCH  30  31
ATOM     31  C   UNL     1      -7.236  -3.800  -1.846  0.00  0.00    -0.015 C 
ATOM     32  C   UNL     1      -8.547  -3.322  -1.219  0.00  0.00    +0.007 C 
ATOM     33  C   UNL     1      -7.460  -4.107  -3.328  0.00  0.00    +0.007 C 
ENDBRANCH  30  31
ENDBRANCH   1  30
TORSDOF 9
