REMARK  Name = ZINC33230863
REMARK  4 active torsions:
REMARK  status: ('A' for Active; 'I' for Inactive)
REMARK    1  A    between atoms: C_7  and  C_11
REMARK    2  A    between atoms: C_11  and  C_12
REMARK    3  A    between atoms: N_16  and  N_20
REMARK    4  A    between atoms: C_21  and  C_23
REMARK                            x       y       z     vdW  Elec       q    Type
REMARK                         _______ _______ _______ _____ _____    ______ ____
ROOT
ATOM      1  C   UNL     1       1.467  -0.394  -0.014  0.00  0.00    +0.167 C 
ATOM      2  C   UNL     1       0.002  -0.004   0.002  0.00  0.00    +0.260 C 
ATOM      3  O   UNL     1      -0.954  -0.749   0.008  0.00  0.00    -0.272 OA
ATOM      4  N   UNL     1      -0.016   1.343   0.009  0.00  0.00    -0.137 N 
ATOM      5  C   UNL     1       1.220   1.854   0.000  0.00  0.00    +0.326 C 
ATOM      6  O   UNL     1       1.460   3.045   0.004  0.00  0.00    -0.251 OA
ATOM      7  N   UNL     1       2.170   0.901  -0.014  0.00  0.00    -0.286 N 
ATOM      8  H   UNL     1       3.269   0.929  -0.024  0.00  0.00    +0.151 HD
ENDROOT
BRANCH   4   9
ATOM      9  N   UNL     1      -1.186   2.115   0.019  0.00  0.00    -0.217 N 
ATOM     10  C   UNL     1      -1.577   2.732   1.152  0.00  0.00    +0.296 C 
ATOM     11  O   UNL     1      -0.914   2.619   2.166  0.00  0.00    -0.265 OA
ATOM     12  H   UNL     1      -1.785   2.217  -0.897  0.00  0.00    +0.174 HD
BRANCH  10  13
ATOM     13  C   UNL     1      -2.804   3.541   1.162  0.00  0.00    +0.192 A 
ATOM     14  C   UNL     1      -3.293   4.205   2.241  0.00  0.00    +0.063 A 
ATOM     15  C   UNL     1      -4.517   4.865   1.790  0.00  0.00    +0.022 A 
ATOM     16  C   UNL     1      -5.466   5.685   2.406  0.00  0.00    +0.012 A 
ATOM     17  C   UNL     1      -6.528   6.152   1.686  0.00  0.00    +0.002 A 
ATOM     18  C   UNL     1      -6.670   5.820   0.345  0.00  0.00    +0.019 A 
ATOM     19  C   UNL     1      -5.745   5.013  -0.282  0.00  0.00    +0.061 A 
ATOM     20  C   UNL     1      -4.655   4.524   0.432  0.00  0.00    +0.150 A 
ATOM     21  O   UNL     1      -3.611   3.740   0.100  0.00  0.00    -0.449 OA
ATOM     22 BR   UNL     1      -5.957   4.570  -2.108  0.00  0.00    -0.046 Br
ENDBRANCH  10  13
ENDBRANCH   4   9
BRANCH   1  23
ATOM     23  C   UNL     1       1.799  -1.187  -1.280  0.00  0.00    +0.069 C 
BRANCH  23  30
ATOM     24  C   UNL     1       3.834  -4.942   0.652  0.00  0.00    +0.001 A 
ATOM     25  C   UNL     1       5.208  -4.971   0.459  0.00  0.00    +0.002 A 
ATOM     26  C   UNL     1       5.842  -3.967  -0.239  0.00  0.00    +0.026 A 
ATOM     27  C   UNL     1       5.099  -2.910  -0.756  0.00  0.00    +0.047 A 
ATOM     28  C   UNL     1       3.707  -2.882  -0.552  0.00  0.00    +0.003 A 
ATOM     29  C   UNL     1       3.085  -3.914   0.153  0.00  0.00    +0.010 A 
ATOM     30  C   UNL     1       3.226  -1.666  -1.212  0.00  0.00    -0.020 A 
ATOM     31  C   UNL     1       4.299  -1.056  -1.741  0.00  0.00    +0.087 A 
ATOM     32  N   UNL     1       5.427  -1.785  -1.478  0.00  0.00    -0.360 N 
ATOM     33  H   UNL     1       6.474  -1.594  -1.753  0.00  0.00    +0.165 HD
ENDBRANCH  23  30
ENDBRANCH   1  23
TORSDOF 4
