REMARK  Name = ZINC56059753
REMARK  4 active torsions:
REMARK  status: ('A' for Active; 'I' for Inactive)
REMARK    1  A    between atoms: C_4  and  C_24
REMARK    2  A    between atoms: C_6  and  S_7
REMARK    3  A    between atoms: S_7  and  N_10
REMARK    4  A    between atoms: C_16  and  C_18
REMARK                            x       y       z     vdW  Elec       q    Type
REMARK                         _______ _______ _______ _____ _____    ______ ____
ROOT
ATOM      1  N   UNL     1      -2.064  -1.485  -1.334  0.00  0.00    -0.169 NA
ATOM      2  C   UNL     1      -2.907  -0.438  -1.942  0.00  0.00    +0.110 C 
ATOM      3  C   UNL     1      -3.841  -1.002  -3.028  0.00  0.00    +0.017 C 
ATOM      4  C   UNL     1      -4.405  -2.330  -2.587  0.00  0.00    +0.001 C 
ATOM      5  C   UNL     1      -3.503  -3.455  -3.087  0.00  0.00    +0.002 C 
ATOM      6  C   UNL     1      -2.362  -3.752  -2.208  0.00  0.00    +0.025 C 
ATOM      7  C   UNL     1      -1.420  -2.519  -2.111  0.00  0.00    +0.110 C 
ENDROOT
BRANCH   7   8
ATOM      8  C   UNL     1      -0.129  -2.918  -1.444  0.00  0.00    -0.026 A 
ATOM      9  C   UNL     1       0.001  -4.155  -0.831  0.00  0.00    +0.025 A 
ATOM     10  C   UNL     1       1.200  -4.487  -0.229  0.00  0.00    +0.111 A 
ATOM     11  N   UNL     1       2.212  -3.642  -0.234  0.00  0.00    -0.263 NA
ATOM     12  C   UNL     1       2.125  -2.458  -0.807  0.00  0.00    +0.111 A 
ATOM     13  C   UNL     1       0.960  -2.060  -1.434  0.00  0.00    +0.025 A 
ENDBRANCH   7   8
BRANCH   1  14
ATOM     14  S   UNL     1      -1.841  -1.471   0.307  0.00  0.00    +0.061 S 
ATOM     15  O   UNL     1      -2.249  -0.187   0.761  0.00  0.00    -0.153 OA
ATOM     16  O   UNL     1      -0.538  -1.984   0.545  0.00  0.00    -0.153 OA
BRANCH  14  22
ATOM     17  C   UNL     1      -2.553  -3.918   1.283  0.00  0.00    +0.030 A 
ATOM     18  C   UNL     1      -3.434  -4.837   1.825  0.00  0.00    +0.023 A 
ATOM     19  C   UNL     1      -4.741  -4.475   2.083  0.00  0.00    +0.058 A 
ATOM     20  C   UNL     1      -5.172  -3.176   1.796  0.00  0.00    +0.072 A 
ATOM     21  C   UNL     1      -4.276  -2.256   1.250  0.00  0.00    +0.048 A 
ATOM     22  C   UNL     1      -2.973  -2.632   0.997  0.00  0.00    +0.107 A 
ATOM     23 CL   UNL     1      -5.846  -5.629   2.762  0.00  0.00    -0.082 Cl
BRANCH  20  24
ATOM     24  C   UNL     1      -6.526  -2.793   2.061  0.00  0.00    +0.101 C 
ATOM     25  N   UNL     1      -7.600  -2.489   2.271  0.00  0.00    -0.191 NA
ENDBRANCH  20  24
ENDBRANCH  14  22
ENDBRANCH   1  14
TORSDOF 4
