REMARK  Name = ZINC01820140
REMARK  7 active torsions:
REMARK  status: ('A' for Active; 'I' for Inactive)
REMARK    1  A    between atoms: C_1  and  C_2
REMARK    2  A    between atoms: C_2  and  C_3
REMARK    3  A    between atoms: C_3  and  C_4
REMARK    4  A    between atoms: C_4  and  O_5
REMARK    5  A    between atoms: O_5  and  C_6
REMARK    6  A    between atoms: C_9  and  C_12
REMARK    7  A    between atoms: C_18  and  C_20
REMARK                            x       y       z     vdW  Elec       q    Type
REMARK                         _______ _______ _______ _____ _____    ______ ____
ROOT
ATOM      1  C   UNL     1      -3.415  -8.151  -0.009  0.00  0.00    +0.294 C 
ATOM      2  N   UNL     1      -4.592  -8.513   0.751  0.00  0.00    -0.175 NA
ATOM      3  C   UNL     1      -5.745  -7.696   0.259  0.00  0.00    +0.138 C 
ATOM      4  C   UNL     1      -6.789  -8.081   1.271  0.00  0.00    +0.023 C 
ATOM      5  C   UNL     1      -6.074  -8.443   2.367  0.00  0.00    +0.053 C 
ATOM      6  N   UNL     1      -4.691  -8.320   2.086  0.00  0.00    -0.273 N 
ATOM      7  C   UNL     1      -5.969  -8.119  -1.155  0.00  0.00    +0.019 A 
ATOM      8  C   UNL     1      -7.222  -8.102  -1.727  0.00  0.00    +0.024 A 
ATOM      9  C   UNL     1      -7.390  -8.490  -3.045  0.00  0.00    +0.019 A 
ATOM     10  C   UNL     1      -6.295  -8.895  -3.788  0.00  0.00    +0.034 A 
ATOM     11  C   UNL     1      -5.038  -8.917  -3.217  0.00  0.00    +0.061 A 
ATOM     12  C   UNL     1      -4.861  -8.535  -1.892  0.00  0.00    +0.142 A 
ATOM     13  O   UNL     1      -3.625  -8.616  -1.354  0.00  0.00    -0.467 OA
ATOM     14 BR   UNL     1      -3.550  -9.472  -4.243  0.00  0.00    -0.046 Br
ATOM     15 BR   UNL     1      -9.111  -8.467  -3.828  0.00  0.00    -0.050 Br
ATOM     16  H   UNL     1      -3.974  -8.137   2.713  0.00  0.00    +0.167 HD
ENDROOT
BRANCH   1  20
ATOM     17  C   UNL     1      -2.913  -3.908   0.009  0.00  0.00    +0.121 A 
ATOM     18  C   UNL     1      -2.834  -4.612  -1.183  0.00  0.00    +0.046 A 
ATOM     19  C   UNL     1      -2.996  -5.984  -1.187  0.00  0.00    +0.012 A 
ATOM     20  C   UNL     1      -3.238  -6.655  -0.002  0.00  0.00    +0.009 A 
ATOM     21  C   UNL     1      -3.318  -5.955   1.188  0.00  0.00    +0.012 A 
ATOM     22  C   UNL     1      -3.151  -4.584   1.197  0.00  0.00    +0.046 A 
BRANCH  17  23
ATOM     23  O   UNL     1      -2.754  -2.558   0.015  0.00  0.00    -0.492 OA
BRANCH  23  24
ATOM     24  C   UNL     1      -2.512  -1.928  -1.245  0.00  0.00    +0.229 C 
BRANCH  24  25
ATOM     25  C   UNL     1      -2.360  -0.419  -1.040  0.00  0.00    +0.041 C 
BRANCH  25  27
ATOM     26  C   UNL     1      -1.949   1.764  -2.183  0.00  0.00    +0.004 C 
ATOM     27  C   UNL     1      -2.101   0.255  -2.388  0.00  0.00    -0.000 C 
ENDBRANCH  25  27
ENDBRANCH  24  25
ENDBRANCH  23  24
ENDBRANCH  17  23
ENDBRANCH   1  20
BRANCH   5  28
ATOM     28  C   UNL     1      -6.647  -8.894   3.649  0.00  0.00    +0.034 A 
ATOM     29  C   UNL     1      -6.003  -9.270   4.798  0.00  0.00    +0.017 A 
ATOM     30  C   UNL     1      -6.757  -9.658   5.883  0.00  0.00    +0.008 A 
ATOM     31  C   UNL     1      -8.111  -9.656   5.782  0.00  0.00    +0.046 A 
ATOM     32  S   UNL     1      -8.362  -9.085   4.109  0.00  0.00    -0.095 S 
ENDBRANCH   5  28
TORSDOF 6
