REMARK  Name = ZINC46913487
REMARK  8 active torsions:
REMARK  status: ('A' for Active; 'I' for Inactive)
REMARK    1  A    between atoms: C_7  and  C_11
REMARK    2  A    between atoms: C_11  and  C_12
REMARK    3  A    between atoms: N_16  and  N_20
REMARK    4  A    between atoms: C_21  and  C_23
REMARK    5  A    between atoms: C_23  and  C_24
REMARK    6  A    between atoms: C_24  and  C_25
REMARK    7  A    between atoms: C_25  and  O_26
REMARK    8  A    between atoms: O_26  and  C_27
REMARK                            x       y       z     vdW  Elec       q    Type
REMARK                         _______ _______ _______ _____ _____    ______ ____
ROOT
ATOM      1  C   UNL     1       0.236  -3.589  -1.455  0.00  0.00    +0.167 C 
ATOM      2  C   UNL     1      -0.763  -4.729  -1.475  0.00  0.00    +0.260 C 
ATOM      3  O   UNL     1      -1.859  -4.752  -0.956  0.00  0.00    -0.272 OA
ATOM      4  N   UNL     1      -0.181  -5.712  -2.191  0.00  0.00    -0.137 N 
ATOM      5  C   UNL     1       1.035  -5.355  -2.621  0.00  0.00    +0.326 C 
ATOM      6  O   UNL     1       1.754  -6.074  -3.286  0.00  0.00    -0.251 OA
ATOM      7  N   UNL     1       1.373  -4.107  -2.236  0.00  0.00    -0.286 N 
ATOM      8  H   UNL     1       2.201  -3.642  -2.433  0.00  0.00    +0.151 HD
ENDROOT
BRANCH   4   9
ATOM      9  N   UNL     1      -0.775  -6.953  -2.451  0.00  0.00    -0.224 N 
ATOM     10  C   UNL     1      -1.272  -7.219  -3.675  0.00  0.00    +0.230 C 
ATOM     11  O   UNL     1      -1.206  -6.383  -4.551  0.00  0.00    -0.274 OA
ATOM     12  H   UNL     1      -0.828  -7.622  -1.750  0.00  0.00    +0.174 HD
BRANCH  10  13
ATOM     13  C   UNL     1      -1.911  -8.555  -3.954  0.00  0.00    +0.100 C 
BRANCH  13  14
ATOM     14  C   UNL     1      -2.389  -8.598  -5.407  0.00  0.00    +0.050 C 
BRANCH  14  15
ATOM     15  C   UNL     1      -3.038  -9.954  -5.691  0.00  0.00    +0.229 C 
BRANCH  15  16
ATOM     16  O   UNL     1      -3.484  -9.994  -7.048  0.00  0.00    -0.491 OA
BRANCH  16  17
ATOM     17  C   UNL     1      -4.088 -11.138  -7.466  0.00  0.00    +0.134 A 
ATOM     18  C   UNL     1      -4.252 -12.198  -6.587  0.00  0.00    +0.047 A 
ATOM     19  C   UNL     1      -4.865 -13.360  -7.013  0.00  0.00    +0.004 A 
ATOM     20  C   UNL     1      -5.316 -13.466  -8.316  0.00  0.00    +0.001 A 
ATOM     21  C   UNL     1      -5.154 -12.412  -9.195  0.00  0.00    +0.019 A 
ATOM     22  C   UNL     1      -4.546 -11.245  -8.772  0.00  0.00    +0.059 A 
ATOM     23 BR   UNL     1      -4.332  -9.799  -9.972  0.00  0.00    -0.047 Br
ENDBRANCH  16  17
ENDBRANCH  15  16
ENDBRANCH  14  15
ENDBRANCH  13  14
ENDBRANCH  10  13
ENDBRANCH   4   9
BRANCH   1  24
ATOM     24  C   UNL     1       0.666  -3.275  -0.021  0.00  0.00    +0.069 C 
BRANCH  24  31
ATOM     25  C   UNL     1      -0.017   1.362   0.009  0.00  0.00    +0.001 A 
ATOM     26  C   UNL     1       1.170   2.083   0.002  0.00  0.00    +0.002 A 
ATOM     27  C   UNL     1       2.386   1.436  -0.013  0.00  0.00    +0.026 A 
ATOM     28  C   UNL     1       2.428   0.046  -0.021  0.00  0.00    +0.047 A 
ATOM     29  C   UNL     1       1.223  -0.681  -0.013  0.00  0.00    +0.003 A 
ATOM     30  C   UNL     1       0.002  -0.004   0.002  0.00  0.00    +0.010 A 
ATOM     31  C   UNL     1       1.604  -2.095  -0.025  0.00  0.00    -0.020 A 
ATOM     32  C   UNL     1       2.945  -2.141  -0.038  0.00  0.00    +0.087 A 
ATOM     33  N   UNL     1       3.455  -0.871  -0.036  0.00  0.00    -0.360 N 
ATOM     34  H   UNL     1       4.399  -0.650  -0.044  0.00  0.00    +0.165 HD
ENDBRANCH  24  31
ENDBRANCH   1  24
TORSDOF 8
