REMARK  Name = ZINC04113199
REMARK  6 active torsions:
REMARK  status: ('A' for Active; 'I' for Inactive)
REMARK    1  A    between atoms: C_4  and  C_7
REMARK    2  A    between atoms: C_7  and  N_8
REMARK    3  A    between atoms: C_15  and  C_18
REMARK    4  A    between atoms: C_15  and  O_31
REMARK    5  A    between atoms: C_18  and  C_19
REMARK    6  A    between atoms: C_19  and  C_21
REMARK                            x       y       z     vdW  Elec       q    Type
REMARK                         _______ _______ _______ _____ _____    ______ ____
ROOT
ATOM      1  N   UNL     1       4.152  -0.952   1.338  0.00  0.00    -0.264 N 
ATOM      2  C   UNL     1       4.947  -0.069   2.069  0.00  0.00    +0.043 A 
ATOM      3  C   UNL     1       5.488   1.168   1.725  0.00  0.00    +0.024 A 
ATOM      4  C   UNL     1       6.255   1.866   2.635  0.00  0.00    +0.002 A 
ATOM      5  C   UNL     1       6.493   1.345   3.893  0.00  0.00    +0.000 A 
ATOM      6  C   UNL     1       5.959   0.117   4.243  0.00  0.00    +0.009 A 
ATOM      7  C   UNL     1       5.193  -0.581   3.336  0.00  0.00    +0.015 A 
ATOM      8  C   UNL     1       4.483  -1.914   3.402  0.00  0.00    +0.176 C 
ATOM      9  C   UNL     1       3.832  -2.051   2.042  0.00  0.00    +0.257 C 
ATOM     10  O   UNL     1       3.151  -2.979   1.660  0.00  0.00    -0.272 OA
ENDROOT
BRANCH   8  11
ATOM     11  O   UNL     1       3.490  -1.902   4.429  0.00  0.00    -0.374 OA
ATOM     12  H   UNL     1       3.003  -2.733   4.516  0.00  0.00    +0.211 HD
ENDBRANCH   8  11
BRANCH   1  13
ATOM     13  C   UNL     1       3.711  -0.707  -0.038  0.00  0.00    +0.148 C 
BRANCH  13  17
ATOM     14  C   UNL     1      -0.017   1.378   0.010  0.00  0.00    +0.000 A 
ATOM     15  C   UNL     1       1.171   2.086   0.002  0.00  0.00    +0.000 A 
ATOM     16  C   UNL     1       2.377   1.411  -0.013  0.00  0.00    +0.005 A 
ATOM     17  C   UNL     1       2.396   0.029  -0.020  0.00  0.00    -0.030 A 
ATOM     18  C   UNL     1       1.208  -0.679  -0.012  0.00  0.00    +0.005 A 
ATOM     19  C   UNL     1       0.002  -0.004   0.002  0.00  0.00    +0.000 A 
ENDBRANCH  13  17
ENDBRANCH   1  13
BRANCH   8  20
ATOM     20  C   UNL     1       5.486  -3.045   3.637  0.00  0.00    +0.132 C 
BRANCH  20  21
ATOM     21  C   UNL     1       4.772  -4.371   3.576  0.00  0.00    +0.201 C 
ATOM     22  O   UNL     1       3.579  -4.407   3.366  0.00  0.00    -0.289 OA
BRANCH  21  23
ATOM     23  C   UNL     1       5.523  -5.621   3.773  0.00  0.00    +0.175 A 
ATOM     24  N   UNL     1       4.983  -6.882   3.734  0.00  0.00    -0.336 N 
ATOM     25  H   UNL     1       4.053  -7.106   3.575  0.00  0.00    +0.167 HD
ATOM     26  C   UNL     1       6.010  -7.767   3.963  0.00  0.00    +0.067 A 
ATOM     27  C   UNL     1       6.091  -9.153   4.043  0.00  0.00    +0.028 A 
ATOM     28  C   UNL     1       7.305  -9.752   4.292  0.00  0.00    +0.002 A 
ATOM     29  C   UNL     1       8.450  -8.984   4.465  0.00  0.00    +0.002 A 
ATOM     30  C   UNL     1       8.395  -7.623   4.391  0.00  0.00    +0.030 A 
ATOM     31  C   UNL     1       7.171  -6.987   4.137  0.00  0.00    +0.090 A 
ATOM     32  N   UNL     1       6.811  -5.700   4.006  0.00  0.00    -0.225 NA
ENDBRANCH  21  23
ENDBRANCH  20  21
ENDBRANCH   8  20
TORSDOF 6
