REMARK  Name = ZINC39526843
REMARK  4 active torsions:
REMARK  status: ('A' for Active; 'I' for Inactive)
REMARK    1  A    between atoms: C_1  and  O_2
REMARK    2  A    between atoms: O_2  and  C_3
REMARK    3  A    between atoms: N_15  and  S_16
REMARK    4  A    between atoms: S_16  and  C_19
REMARK                            x       y       z     vdW  Elec       q    Type
REMARK                         _______ _______ _______ _____ _____    ______ ____
ROOT
ATOM      1  C   UNL     1       0.760  -1.148   1.178  0.00  0.00    +0.120 C 
ATOM      2  C   UNL     1       2.230  -1.255   0.766  0.00  0.00    +0.032 C 
ATOM      3  C   UNL     1       3.084  -1.560   1.998  0.00  0.00    +0.004 C 
ATOM      4  C   UNL     1       2.632  -2.884   2.617  0.00  0.00    +0.024 C 
ATOM      5  C   UNL     1       1.162  -2.778   3.027  0.00  0.00    +0.047 C 
ATOM      6  C   UNL     1       0.306  -2.471   1.798  0.00  0.00    +0.055 C 
ATOM      7  C   UNL     1       0.708  -4.099   3.654  0.00  0.00    +0.024 C 
ATOM      8  C   UNL     1       1.471  -4.328   4.961  0.00  0.00    +0.004 C 
ATOM      9  C   UNL     1       1.162  -3.193   5.940  0.00  0.00    +0.032 C 
ATOM     10  C   UNL     1       1.625  -1.863   5.337  0.00  0.00    +0.147 C 
ATOM     11  N   UNL     1       1.006  -1.703   4.014  0.00  0.00    -0.157 NA
ATOM     12 BR   UNL     1       1.078  -0.382   6.509  0.00  0.00    -0.069 Br
ENDROOT
BRANCH  11  13
ATOM     13  S   UNL     1       0.148  -0.336   3.643  0.00  0.00    +0.062 S 
ATOM     14  O   UNL     1      -0.655  -0.653   2.515  0.00  0.00    -0.153 OA
ATOM     15  O   UNL     1      -0.406   0.140   4.863  0.00  0.00    -0.153 OA
BRANCH  13  16
ATOM     16  C   UNL     1       1.308   0.879   3.110  0.00  0.00    +0.106 A 
ATOM     17  C   UNL     1       1.998   1.631   4.042  0.00  0.00    +0.028 A 
ATOM     18  C   UNL     1       2.908   2.584   3.624  0.00  0.00    +0.002 A 
ATOM     19  C   UNL     1       3.128   2.784   2.274  0.00  0.00    +0.000 A 
ATOM     20  C   UNL     1       2.438   2.031   1.342  0.00  0.00    +0.002 A 
ATOM     21  C   UNL     1       1.532   1.075   1.760  0.00  0.00    +0.028 A 
ENDBRANCH  13  16
ENDBRANCH  11  13
BRANCH   1  23
ATOM     22  C   UNL     1      -0.094   0.524  -0.311  0.00  0.00    +0.194 C 
ATOM     23  O   UNL     1      -0.037  -0.863   0.027  0.00  0.00    -0.380 OA
ENDBRANCH   1  23
TORSDOF 3
