REMARK  Name = ZINC33039784
REMARK  10 active torsions:
REMARK  status: ('A' for Active; 'I' for Inactive)
REMARK    1  A    between atoms: C_1  and  C_2
REMARK    2  A    between atoms: C_2  and  C_3
REMARK    3  A    between atoms: C_2  and  O_4
REMARK    4  A    between atoms: O_4  and  C_5
REMARK    5  A    between atoms: C_8  and  C_11
REMARK    6  A    between atoms: C_11  and  N_12
REMARK    7  A    between atoms: C_13  and  C_15
REMARK    8  A    between atoms: C_15  and  N_16
REMARK    9  A    between atoms: C_19  and  S_26
REMARK   10  A    between atoms: S_26  and  N_29
REMARK                            x       y       z     vdW  Elec       q    Type
REMARK                         _______ _______ _______ _____ _____    ______ ____
ROOT
ATOM      1  N   UNL     1       1.795  -5.949  -3.034  0.00  0.00    -0.260 N 
ATOM      2  C   UNL     1       0.563  -6.626  -3.254  0.00  0.00    +0.059 A 
ATOM      3  C   UNL     1      -0.602  -6.028  -3.739  0.00  0.00    +0.061 A 
ATOM      4  C   UNL     1      -1.725  -6.766  -3.907  0.00  0.00    +0.145 A 
ATOM      5  S   UNL     1      -1.192  -8.390  -3.381  0.00  0.00    -0.060 S 
ATOM      6  C   UNL     1       0.472  -7.970  -2.979  0.00  0.00    +0.069 A 
ATOM      7  S   UNL     1       1.782  -8.959  -2.370  0.00  0.00    -0.107 S 
ATOM      8  C   UNL     1       3.237  -8.028  -2.957  0.00  0.00    +0.171 C 
ATOM      9  C   UNL     1       2.962  -6.557  -2.839  0.00  0.00    +0.230 C 
ATOM     10  O   UNL     1       3.899  -5.851  -2.528  0.00  0.00    -0.274 OA
ENDROOT
BRANCH   4  11
ATOM     11  S   UNL     1      -3.306  -6.257  -4.496  0.00  0.00    +0.067 S 
ATOM     12  O   UNL     1      -4.250  -7.185  -3.979  0.00  0.00    -0.152 OA
ATOM     13  O   UNL     1      -3.399  -4.860  -4.252  0.00  0.00    -0.152 OA
BRANCH  11  14
ATOM     14  N   UNL     1      -3.302  -6.451  -6.140  0.00  0.00    -0.176 NA
ATOM     15  C   UNL     1      -2.898  -5.434  -7.122  0.00  0.00    +0.109 C 
ATOM     16  C   UNL     1      -3.082  -6.052  -8.524  0.00  0.00    +0.018 C 
ATOM     17  C   UNL     1      -4.121  -7.177  -8.272  0.00  0.00    +0.018 C 
ATOM     18  C   UNL     1      -3.709  -7.670  -6.862  0.00  0.00    +0.109 C 
ENDBRANCH  11  14
ENDBRANCH   4  11
BRANCH   1  19
ATOM     19  C   UNL     1       1.778  -4.484  -3.028  0.00  0.00    +0.209 C 
BRANCH  19  21
ATOM     20  N   UNL     1       1.469  -2.667  -1.378  0.00  0.00    -0.310 N 
ATOM     21  C   UNL     1       1.527  -3.990  -1.626  0.00  0.00    +0.231 C 
ATOM     22  O   UNL     1       1.377  -4.784  -0.721  0.00  0.00    -0.274 OA
ATOM     23  H   UNL     1       1.605  -1.947  -2.199  0.00  0.00    +0.149 HD
BRANCH  20  24
ATOM     24  C   UNL     1       1.225  -2.187  -0.015  0.00  0.00    +0.139 C 
BRANCH  24  28
ATOM     25  C   UNL     1       1.176   2.086   0.003  0.00  0.00    +0.121 A 
ATOM     26  C   UNL     1       0.001   1.378  -0.207  0.00  0.00    +0.046 A 
ATOM     27  C   UNL     1       0.020  -0.003  -0.213  0.00  0.00    +0.009 A 
ATOM     28  C   UNL     1       1.208  -0.680  -0.009  0.00  0.00    -0.030 A 
ATOM     29  C   UNL     1       2.380   0.023   0.201  0.00  0.00    +0.009 A 
ATOM     30  C   UNL     1       2.366   1.404   0.208  0.00  0.00    +0.046 A 
BRANCH  25  31
ATOM     31  O   UNL     1       1.160   3.445   0.009  0.00  0.00    -0.489 OA
BRANCH  31  33
ATOM     32  C   UNL     1       2.314   5.506  -0.500  0.00  0.00    +0.051 C 
ATOM     33  C   UNL     1       2.422   4.108   0.112  0.00  0.00    +0.167 C 
ATOM     34  C   UNL     1       2.819   4.224   1.585  0.00  0.00    +0.051 C 
ENDBRANCH  31  33
ENDBRANCH  25  31
ENDBRANCH  24  28
ENDBRANCH  20  24
ENDBRANCH  19  21
ENDBRANCH   1  19
TORSDOF 8
