REMARK  Name = ZINC36203499
REMARK  12 active torsions:
REMARK  status: ('A' for Active; 'I' for Inactive)
REMARK    1  A    between atoms: C_1  and  C_2
REMARK    2  A    between atoms: C_2  and  C_3
REMARK    3  A    between atoms: C_3  and  N_4
REMARK    4  A    between atoms: N_4  and  C_5
REMARK    5  A    between atoms: N_4  and  C_13
REMARK    6  A    between atoms: C_5  and  C_6
REMARK    7  A    between atoms: C_10  and  C_12
REMARK    8  A    between atoms: C_13  and  C_14
REMARK    9  A    between atoms: C_17  and  C_19
REMARK   10  A    between atoms: C_19  and  C_20
REMARK   11  A    between atoms: C_19  and  C_27
REMARK   12  A    between atoms: C_19  and  O_34
REMARK                            x       y       z     vdW  Elec       q    Type
REMARK                         _______ _______ _______ _____ _____    ______ ____
ROOT
ATOM      1  C   UNL     1      -0.785  -2.284   4.221  0.00  0.00    +0.089 A 
ATOM      2  C   UNL     1      -1.873  -2.632   4.931  0.00  0.00    +0.043 A 
ATOM      3  C   UNL     1      -2.108  -1.590   5.857  0.00  0.00    +0.048 A 
ATOM      4  C   UNL     1      -1.149  -0.667   5.657  0.00  0.00    +0.146 A 
ATOM      5  O   UNL     1      -0.347  -1.096   4.669  0.00  0.00    -0.463 OA
ENDROOT
BRANCH   1   6
ATOM      6  C   UNL     1      -0.159  -3.094   3.114  0.00  0.00    -0.003 C 
BRANCH   6   7
ATOM      7  N   UNL     1      -0.759  -2.712   1.829  0.00  0.00    +0.387 N 
ATOM      8  H   UNL     1      -1.762  -2.812   1.883  0.00  0.00    -0.081 HD
BRANCH   7   9
ATOM      9  C   UNL     1      -0.422  -1.315   1.526  0.00  0.00    -0.078 C 
BRANCH   9  11
ATOM     10  C   UNL     1      -0.927   0.621   0.029  0.00  0.00    +0.002 C 
ATOM     11  C   UNL     1      -1.166  -0.872   0.265  0.00  0.00    -0.022 C 
ENDBRANCH   9  11
ENDBRANCH   7   9
BRANCH   7  12
ATOM     12  C   UNL     1      -0.237  -3.583   0.767  0.00  0.00    -0.042 C 
BRANCH  12  13
ATOM     13  C   UNL     1      -0.700  -4.997   1.004  0.00  0.00    -0.064 A 
ATOM     14  C   UNL     1       0.123  -5.893   1.660  0.00  0.00    +0.002 A 
ATOM     15  C   UNL     1      -0.301  -7.190   1.877  0.00  0.00    +0.000 A 
ATOM     16  C   UNL     1      -1.550  -7.592   1.439  0.00  0.00    +0.003 A 
ATOM     17  C   UNL     1      -2.373  -6.696   0.784  0.00  0.00    -0.050 A 
ATOM     18  C   UNL     1      -1.950  -5.397   0.570  0.00  0.00    +0.005 A 
ATOM     19  C   UNL     1      -3.734  -7.133   0.306  0.00  0.00    +0.044 C 
ENDBRANCH  12  13
ENDBRANCH   7  12
ENDBRANCH   6   7
ENDBRANCH   1   6
BRANCH   4  20
ATOM     20  C   UNL     1      -0.997   0.625   6.417  0.00  0.00    +0.174 C 
BRANCH  20  21
ATOM     21  C   UNL     1       0.460   1.007   6.472  0.00  0.00    -0.002 A 
ATOM     22  C   UNL     1       1.133   0.990   7.680  0.00  0.00    +0.007 A 
ATOM     23  C   UNL     1       2.469   1.340   7.732  0.00  0.00    +0.003 A 
ATOM     24  C   UNL     1       3.133   1.708   6.577  0.00  0.00    +0.038 A 
ATOM     25  C   UNL     1       2.460   1.726   5.368  0.00  0.00    +0.124 A 
ATOM     26  C   UNL     1       1.123   1.369   5.316  0.00  0.00    +0.045 A 
ATOM     27  F   UNL     1       3.108   2.087   4.238  0.00  0.00    -0.205 F 
ENDBRANCH  20  21
BRANCH  20  28
ATOM     28  C   UNL     1      -1.776   1.712   5.721  0.00  0.00    -0.002 A 
ATOM     29  C   UNL     1      -1.782   1.781   4.340  0.00  0.00    +0.007 A 
ATOM     30  C   UNL     1      -2.495   2.777   3.700  0.00  0.00    +0.003 A 
ATOM     31  C   UNL     1      -3.203   3.705   4.440  0.00  0.00    +0.038 A 
ATOM     32  C   UNL     1      -3.197   3.637   5.823  0.00  0.00    +0.124 A 
ATOM     33  C   UNL     1      -2.487   2.635   6.463  0.00  0.00    +0.045 A 
ATOM     34  F   UNL     1      -3.888   4.545   6.547  0.00  0.00    -0.205 F 
ENDBRANCH  20  28
BRANCH  20  35
ATOM     35  O   UNL     1      -1.496   0.458   7.746  0.00  0.00    -0.372 OA
ATOM     36  H   UNL     1      -2.430   0.211   7.787  0.00  0.00    +0.212 HD
ENDBRANCH  20  35
ENDBRANCH   4  20
TORSDOF 10
