REMARK  Name = ZINC59788189
REMARK  11 active torsions:
REMARK  status: ('A' for Active; 'I' for Inactive)
REMARK    1  A    between atoms: C_1  and  C_2
REMARK    2  A    between atoms: C_2  and  C_3
REMARK    3  A    between atoms: C_3  and  C_4
REMARK    4  A    between atoms: C_4  and  S_5
REMARK    5  A    between atoms: S_5  and  C_6
REMARK    6  A    between atoms: C_11  and  N_15
REMARK    7  A    between atoms: C_16  and  C_18
REMARK    8  A    between atoms: C_18  and  S_19
REMARK    9  A    between atoms: S_19  and  C_20
REMARK   10  A    between atoms: C_23  and  C_26
REMARK   11  A    between atoms: C_30  and  N_32
REMARK                            x       y       z     vdW  Elec       q    Type
REMARK                         _______ _______ _______ _____ _____    ______ ____
ROOT
ATOM      1  N   UNL     1       1.353 -10.634  -2.195  0.00  0.00    -0.285 N 
ATOM      2  C   UNL     1       0.922 -11.458  -1.219  0.00  0.00    +0.227 C 
ATOM      3  O   UNL     1       0.360 -11.003  -0.245  0.00  0.00    -0.275 OA
ATOM      4  H   UNL     1       1.741 -11.002  -3.004  0.00  0.00    +0.155 HD
ENDROOT
BRANCH   1  10
ATOM      5  C   UNL     1      -0.259  -4.706  -0.875  0.00  0.00    +0.136 A 
ATOM      6  N   UNL     1       0.802  -5.136  -1.521  0.00  0.00    -0.233 NA
ATOM      7  C   UNL     1       1.035  -6.449  -1.741  0.00  0.00    +0.080 A 
ATOM      8  C   UNL     1       2.128  -7.038  -2.417  0.00  0.00    +0.031 A 
ATOM      9  C   UNL     1       2.217  -8.398  -2.556  0.00  0.00    +0.025 A 
ATOM     10  C   UNL     1       1.241  -9.246  -2.040  0.00  0.00    +0.035 A 
ATOM     11  C   UNL     1       0.154  -8.699  -1.370  0.00  0.00    +0.040 A 
ATOM     12  C   UNL     1       0.062  -7.337  -1.230  0.00  0.00    +0.042 A 
ATOM     13  S   UNL     1      -1.102  -6.229  -0.472  0.00  0.00    -0.061 S 
BRANCH   5  14
ATOM     14  S   UNL     1      -0.727  -3.050  -0.496  0.00  0.00    -0.099 S 
BRANCH  14  15
ATOM     15  C   UNL     1       0.599  -2.044  -1.217  0.00  0.00    +0.076 C 
BRANCH  15  16
ATOM     16  C   UNL     1       0.315  -0.563  -0.956  0.00  0.00    +0.011 C 
BRANCH  16  18
ATOM     17  C   UNL     1       1.148   1.766  -1.304  0.00  0.00    +0.004 C 
ATOM     18  C   UNL     1       1.433   0.286  -1.564  0.00  0.00    -0.003 C 
ENDBRANCH  16  18
ENDBRANCH  15  16
ENDBRANCH  14  15
ENDBRANCH   5  14
ENDBRANCH   1  10
BRANCH   2  19
ATOM     19  C   UNL     1       1.137 -12.945  -1.338  0.00  0.00    +0.173 C 
BRANCH  19  20
ATOM     20  S   UNL     1       0.451 -13.774   0.122  0.00  0.00    -0.077 S 
BRANCH  20  21
ATOM     21  C   UNL     1       0.777 -15.482  -0.165  0.00  0.00    +0.185 A 
ATOM     22  N   UNL     1       1.385 -15.986  -1.216  0.00  0.00    -0.201 NA
ATOM     23  H   UNL     1      -0.002 -16.435   1.515  0.00  0.00    +0.191 HD
ATOM     24  C   UNL     1       1.460 -17.320  -1.097  0.00  0.00    +0.182 A 
ATOM     25  N   UNL     1       0.898 -17.678   0.035  0.00  0.00    -0.152 NA
ATOM     26  N   UNL     1       0.452 -16.502   0.660  0.00  0.00    -0.253 N 
BRANCH  24  27
ATOM     27  C   UNL     1       2.076 -18.241  -2.084  0.00  0.00    +0.023 A 
ATOM     28  C   UNL     1       2.647 -17.736  -3.251  0.00  0.00    +0.012 A 
ATOM     29  C   UNL     1       3.219 -18.597  -4.164  0.00  0.00    +0.003 A 
ATOM     30  C   UNL     1       3.227 -19.960  -3.924  0.00  0.00    +0.033 A 
ATOM     31  C   UNL     1       2.661 -20.466  -2.768  0.00  0.00    +0.127 A 
ATOM     32  C   UNL     1       2.091 -19.613  -1.844  0.00  0.00    +0.044 A 
BRANCH  31  33
ATOM     33  N   UNL     1       2.672 -21.925  -2.519  0.00  0.00    +0.056 N 
ATOM     34  O   UNL     1       3.174 -22.673  -3.325  0.00  0.00    -0.126 OA
ATOM     35  O   UNL     1       2.178 -22.369  -1.509  0.00  0.00    -0.126 OA
ENDBRANCH  31  33
ENDBRANCH  24  27
ENDBRANCH  20  21
ENDBRANCH  19  20
ENDBRANCH   2  19
TORSDOF 10
