REMARK  Name = ZINC33467770
REMARK  7 active torsions:
REMARK  status: ('A' for Active; 'I' for Inactive)
REMARK    1  A    between atoms: C_1  and  C_2
REMARK    2  A    between atoms: C_2  and  C_3
REMARK    3  A    between atoms: C_3  and  C_22
REMARK    4  A    between atoms: N_4  and  N_5
REMARK    5  A    between atoms: C_6  and  C_8
REMARK    6  A    between atoms: C_8  and  O_9
REMARK    7  A    between atoms: O_9  and  C_10
REMARK                            x       y       z     vdW  Elec       q    Type
REMARK                         _______ _______ _______ _____ _____    ______ ____
ROOT
ATOM      1  C   UNL     1       6.294  -3.929  -4.060  0.00  0.00    +0.136 A 
ATOM      2  C   UNL     1       5.883  -3.759  -5.385  0.00  0.00    +0.047 A 
ATOM      3  C   UNL     1       6.622  -4.252  -6.415  0.00  0.00    +0.012 A 
ATOM      4  C   UNL     1       7.817  -4.943  -6.149  0.00  0.00    -0.016 A 
ATOM      5  C   UNL     1       8.604  -5.465  -7.189  0.00  0.00    +0.023 A 
ATOM      6  C   UNL     1       9.756  -6.129  -6.894  0.00  0.00    +0.018 A 
ATOM      7  C   UNL     1      10.168  -6.300  -5.573  0.00  0.00    +0.016 A 
ATOM      8  C   UNL     1       9.431  -5.808  -4.540  0.00  0.00    +0.011 A 
ATOM      9  C   UNL     1       8.236  -5.117  -4.806  0.00  0.00    -0.000 A 
ATOM     10  C   UNL     1       7.453  -4.591  -3.765  0.00  0.00    +0.067 A 
ATOM     11 BR   UNL     1       7.995  -4.803  -1.966  0.00  0.00    -0.046 Br
ATOM     12 BR   UNL     1      10.812  -6.830  -8.298  0.00  0.00    -0.050 Br
ENDROOT
BRANCH   1  13
ATOM     13  O   UNL     1       5.534  -3.425  -3.052  0.00  0.00    -0.482 OA
BRANCH  13  14
ATOM     14  C   UNL     1       4.334  -2.743  -3.423  0.00  0.00    +0.326 C 
BRANCH  14  16
ATOM     15  N   UNL     1       2.467  -1.583  -2.289  0.00  0.00    -0.204 N 
ATOM     16  C   UNL     1       3.629  -2.257  -2.183  0.00  0.00    +0.270 C 
ATOM     17  O   UNL     1       4.107  -2.473  -1.089  0.00  0.00    -0.270 OA
ATOM     18  H   UNL     1       2.085  -1.410  -3.164  0.00  0.00    +0.177 HD
BRANCH  15  20
ATOM     19  C   UNL     1       0.707  -0.490  -1.238  0.00  0.00    +0.034 C 
ATOM     20  N   UNL     1       1.811  -1.131  -1.137  0.00  0.00    -0.189 NA
ATOM     21  C   UNL     1       0.114  -0.222  -2.597  0.00  0.00    +0.062 C 
BRANCH  19  23
ATOM     22  C   UNL     1      -0.019   1.526   0.010  0.00  0.00    +0.010 C 
ATOM     23  C   UNL     1       0.002  -0.004   0.002  0.00  0.00    +0.049 C 
ENDBRANCH  19  23
ENDBRANCH  15  20
ENDBRANCH  14  16
ENDBRANCH  13  14
ENDBRANCH   1  13
TORSDOF 5
