REMARK  Name = ZINC41004324
REMARK  9 active torsions:
REMARK  status: ('A' for Active; 'I' for Inactive)
REMARK    1  A    between atoms: C_1  and  C_2
REMARK    2  A    between atoms: C_2  and  S_3
REMARK    3  A    between atoms: S_3  and  C_4
REMARK    4  A    between atoms: C_9  and  C_21
REMARK    5  A    between atoms: C_15  and  C_19
REMARK    6  A    between atoms: C_15  and  C_20
REMARK    7  A    between atoms: C_24  and  O_27
REMARK    8  A    between atoms: O_27  and  C_28
REMARK    9  A    between atoms: C_28  and  C_29
REMARK                            x       y       z     vdW  Elec       q    Type
REMARK                         _______ _______ _______ _____ _____    ______ ____
ROOT
ATOM      1  C   UNL     1      -1.508  -2.383   0.004  0.00  0.00    +0.210 A 
ATOM      2  N   UNL     1      -0.338  -3.039  -0.005  0.00  0.00    -0.187 NA
ATOM      3  C   UNL     1      -0.559  -4.325  -0.009  0.00  0.00    +0.219 A 
ATOM      4  N   UNL     1      -1.900  -4.523  -0.008  0.00  0.00    -0.220 N 
ATOM      5  N   UNL     1      -2.490  -3.260   0.008  0.00  0.00    -0.141 NA
ATOM      6  C   UNL     1      -2.516  -5.844  -0.021  0.00  0.00    +0.175 C 
ATOM      7  C   UNL     1      -1.483  -6.899   0.307  0.00  0.00    +0.041 C 
ATOM      8  C   UNL     1      -0.159  -6.638   0.289  0.00  0.00    +0.020 C 
ATOM      9  N   UNL     1       0.329  -5.388  -0.011  0.00  0.00    -0.287 N 
ATOM     10  C   UNL     1       0.850  -7.719   0.598  0.00  0.00    +0.058 C 
ATOM     11  C   UNL     1       0.253  -8.706   1.603  0.00  0.00    -0.023 C 
ATOM     12  C   UNL     1      -1.023  -9.299   0.997  0.00  0.00    +0.086 C 
ATOM     13  C   UNL     1      -1.961  -8.180   0.640  0.00  0.00    +0.164 C 
ATOM     14  O   UNL     1      -3.158  -8.386   0.637  0.00  0.00    -0.292 OA
ATOM     15  C   UNL     1       1.258  -9.825   1.886  0.00  0.00    +0.011 C 
ATOM     16  C   UNL     1      -0.085  -7.976   2.904  0.00  0.00    +0.011 C 
ATOM     17  H   UNL     1       1.267  -5.255  -0.220  0.00  0.00    +0.155 HD
ENDROOT
BRANCH   6  18
ATOM     18  C   UNL     1      -3.088  -6.115  -1.389  0.00  0.00    -0.018 A 
ATOM     19  C   UNL     1      -2.257  -6.126  -2.494  0.00  0.00    +0.009 A 
ATOM     20  C   UNL     1      -2.779  -6.374  -3.749  0.00  0.00    +0.046 A 
ATOM     21  C   UNL     1      -4.138  -6.614  -3.899  0.00  0.00    +0.121 A 
ATOM     22  C   UNL     1      -4.968  -6.603  -2.788  0.00  0.00    +0.046 A 
ATOM     23  C   UNL     1      -4.441  -6.359  -1.535  0.00  0.00    +0.009 A 
BRANCH  21  24
ATOM     24  O   UNL     1      -4.654  -6.858  -5.133  0.00  0.00    -0.487 OA
BRANCH  24  25
ATOM     25  C   UNL     1      -6.060  -7.096  -5.212  0.00  0.00    +0.267 C 
BRANCH  25  26
ATOM     26  C   UNL     1      -6.447  -7.345  -6.647  0.00  0.00    +0.025 A 
ATOM     27  C   UNL     1      -5.483  -7.324  -7.637  0.00  0.00    +0.010 A 
ATOM     28  C   UNL     1      -5.838  -7.553  -8.953  0.00  0.00    +0.001 A 
ATOM     29  C   UNL     1      -7.158  -7.803  -9.281  0.00  0.00    +0.003 A 
ATOM     30  C   UNL     1      -8.123  -7.825  -8.293  0.00  0.00    +0.039 A 
ATOM     31  C   UNL     1      -7.768  -7.602  -6.973  0.00  0.00    +0.130 A 
ATOM     32  F   UNL     1      -8.711  -7.628  -6.006  0.00  0.00    -0.205 F 
ENDBRANCH  25  26
ENDBRANCH  24  25
ENDBRANCH  21  24
ENDBRANCH   6  18
BRANCH   1  33
ATOM     33  S   UNL     1      -1.700  -0.632   0.015  0.00  0.00    -0.085 S 
BRANCH  33  35
ATOM     34  C   UNL     1      -0.019   1.526   0.010  0.00  0.00    +0.016 C 
ATOM     35  C   UNL     1       0.002  -0.004   0.002  0.00  0.00    +0.074 C 
ENDBRANCH  33  35
ENDBRANCH   1  33
TORSDOF 6
