REMARK  Name = ZINC53654629
REMARK  6 active torsions:
REMARK  status: ('A' for Active; 'I' for Inactive)
REMARK    1  A    between atoms: C_3  and  C_28
REMARK    2  A    between atoms: C_6  and  C_7
REMARK    3  A    between atoms: C_12  and  C_17
REMARK    4  A    between atoms: N_19  and  C_20
REMARK    5  A    between atoms: C_20  and  C_21
REMARK    6  A    between atoms: C_21  and  C_22
REMARK                            x       y       z     vdW  Elec       q    Type
REMARK                         _______ _______ _______ _____ _____    ______ ____
ROOT
ATOM      1  C   UNL     1      -1.293  -0.775   0.011  0.00  0.00    +0.292 C 
ATOM      2  N   UNL     1      -1.117  -2.066  -0.668  0.00  0.00    -0.303 N 
ATOM      3  C   UNL     1      -1.397  -3.053   0.289  0.00  0.00    +0.073 A 
ATOM      4  C   UNL     1      -1.387  -4.434   0.197  0.00  0.00    +0.039 A 
ATOM      5  C   UNL     1      -1.709  -5.209   1.314  0.00  0.00    +0.039 A 
ATOM      6  C   UNL     1      -2.040  -4.584   2.518  0.00  0.00    +0.017 A 
ATOM      7  C   UNL     1      -2.049  -3.210   2.603  0.00  0.00    +0.048 A 
ATOM      8  C   UNL     1      -1.727  -2.434   1.493  0.00  0.00    +0.144 A 
ATOM      9  O   UNL     1      -1.674  -1.082   1.354  0.00  0.00    -0.465 OA
ATOM     10  H   UNL     1      -0.859  -2.208  -1.592  0.00  0.00    +0.150 HD
ENDROOT
BRANCH   1  16
ATOM     11  C   UNL     1      -0.017   1.378   0.010  0.00  0.00    +0.009 A 
ATOM     12  C   UNL     1       1.171   2.086   0.002  0.00  0.00    +0.013 A 
ATOM     13  C   UNL     1       2.377   1.411  -0.013  0.00  0.00    +0.055 A 
ATOM     14  C   UNL     1       2.396   0.029  -0.020  0.00  0.00    +0.013 A 
ATOM     15  C   UNL     1       1.208  -0.679  -0.012  0.00  0.00    +0.009 A 
ATOM     16  C   UNL     1       0.002  -0.004   0.002  0.00  0.00    +0.011 A 
BRANCH  13  17
ATOM     17  C   UNL     1       3.672   2.182  -0.022  0.00  0.00    +0.417 C 
ATOM     18  F   UNL     1       4.086   2.414   1.294  0.00  0.00    -0.166 F 
ATOM     19  F   UNL     1       4.651   1.442  -0.695  0.00  0.00    -0.166 F 
ATOM     20  F   UNL     1       3.482   3.405  -0.674  0.00  0.00    -0.166 F 
ENDBRANCH  13  17
ENDBRANCH   1  16
BRANCH   5  21
ATOM     21  C   UNL     1      -1.701  -6.682   1.221  0.00  0.00    +0.244 C 
ATOM     22  O   UNL     1      -1.413  -7.224   0.171  0.00  0.00    -0.270 OA
ATOM     23  N   UNL     1      -2.013  -7.427   2.300  0.00  0.00    -0.311 N 
ATOM     24  H   UNL     1      -2.242  -6.995   3.137  0.00  0.00    +0.149 HD
BRANCH  23  25
ATOM     25  C   UNL     1      -2.004  -8.889   2.208  0.00  0.00    +0.110 C 
BRANCH  25  26
ATOM     26  C   UNL     1      -2.391  -9.488   3.562  0.00  0.00    +0.073 C 
BRANCH  26  27
ATOM     27  C   UNL     1      -2.382 -10.992   3.467  0.00  0.00    +0.035 A 
ATOM     28  H   UNL     1      -1.198 -13.878   3.507  0.00  0.00    +0.166 HD
ATOM     29  C   UNL     1      -1.307 -11.788   3.619  0.00  0.00    +0.105 A 
ATOM     30  N   UNL     1      -1.742 -13.076   3.455  0.00  0.00    -0.352 N 
ATOM     31  C   UNL     1      -3.068 -13.022   3.209  0.00  0.00    +0.171 A 
ATOM     32  N   UNL     1      -3.446 -11.772   3.222  0.00  0.00    -0.350 N 
ATOM     33  H   UNL     1      -4.351 -11.458   3.076  0.00  0.00    +0.166 HD
ENDBRANCH  26  27
ENDBRANCH  25  26
ENDBRANCH  23  25
ENDBRANCH   5  21
TORSDOF 6
