REMARK  Name = ZINC04772831
REMARK  8 active torsions:
REMARK  status: ('A' for Active; 'I' for Inactive)
REMARK    1  A    between atoms: C_1  and  C_2
REMARK    2  A    between atoms: C_2  and  C_25
REMARK    3  A    between atoms: C_3  and  C_21
REMARK    4  A    between atoms: C_5  and  C_7
REMARK    5  A    between atoms: N_9  and  C_10
REMARK    6  A    between atoms: C_10  and  C_12
REMARK    7  A    between atoms: C_10  and  O_20
REMARK    8  A    between atoms: C_12  and  C_14
REMARK                            x       y       z     vdW  Elec       q    Type
REMARK                         _______ _______ _______ _____ _____    ______ ____
ROOT
ATOM      1  C   UNL     1       1.081   0.500   2.377  0.00  0.00    +0.219 C 
ATOM      2  O   UNL     1       1.299   1.690   2.299  0.00  0.00    -0.275 OA
ATOM      3  N   UNL     1       1.662  -0.230   3.350  0.00  0.00    -0.284 N 
ATOM      4  H   UNL     1       1.487  -1.182   3.412  0.00  0.00    +0.152 HD
ENDROOT
BRANCH   1   8
ATOM      5  C   UNL     1      -0.114   2.208   0.315  0.00  0.00    +0.012 C 
ATOM      6  C   UNL     1      -0.470   0.720   0.306  0.00  0.00    -0.016 C 
ATOM      7  C   UNL     1       0.638  -0.269  -0.063  0.00  0.00    +0.033 C 
ATOM      8  C   UNL     1       0.159  -0.163   1.386  0.00  0.00    +0.089 C 
ATOM      9  C   UNL     1      -1.894   0.384  -0.140  0.00  0.00    +0.012 C 
BRANCH   7  10
ATOM     10  C   UNL     1       1.996   0.297  -0.391  0.00  0.00    +0.010 C 
ATOM     11  C   UNL     1       2.528   0.085  -1.572  0.00  0.00    +0.103 C 
ATOM     12 CL   UNL     1       1.668  -0.848  -2.757  0.00  0.00    -0.071 Cl
ATOM     13 CL   UNL     1       4.092   0.738  -1.950  0.00  0.00    -0.071 Cl
ENDBRANCH   7  10
ENDBRANCH   1   8
BRANCH   3  14
ATOM     14  C   UNL     1       2.558   0.415   4.313  0.00  0.00    +0.275 C 
BRANCH  14  15
ATOM     15  C   UNL     1       2.400  -0.239   5.662  0.00  0.00    +0.210 C 
ATOM     16  O   UNL     1       1.444  -0.953   5.881  0.00  0.00    -0.287 OA
BRANCH  15  17
ATOM     17  C   UNL     1       3.405  -0.012   6.712  0.00  0.00    +0.022 A 
ATOM     18  C   UNL     1       4.434   0.913   6.511  0.00  0.00    +0.011 A 
ATOM     19  C   UNL     1       5.372   1.121   7.501  0.00  0.00    +0.001 A 
ATOM     20  C   UNL     1       5.296   0.417   8.690  0.00  0.00    +0.000 A 
ATOM     21  C   UNL     1       4.281  -0.500   8.896  0.00  0.00    +0.001 A 
ATOM     22  C   UNL     1       3.332  -0.715   7.919  0.00  0.00    +0.011 A 
ENDBRANCH  15  17
ENDBRANCH  14  15
BRANCH  14  23
ATOM     23  O   UNL     1       3.910   0.277   3.872  0.00  0.00    -0.367 OA
ATOM     24  H   UNL     1       4.202  -0.641   3.781  0.00  0.00    +0.212 HD
ENDBRANCH  14  23
ENDBRANCH   3  14
TORSDOF 6
