REMARK  Name = ZINC21538411
REMARK  7 active torsions:
REMARK  status: ('A' for Active; 'I' for Inactive)
REMARK    1  A    between atoms: C_1  and  C_2
REMARK    2  A    between atoms: C_5  and  O_29
REMARK    3  A    between atoms: C_6  and  N_8
REMARK    4  A    between atoms: N_8  and  C_9
REMARK    5  A    between atoms: C_9  and  C_11
REMARK    6  A    between atoms: C_9  and  C_18
REMARK    7  A    between atoms: C_21  and  C_23
REMARK                            x       y       z     vdW  Elec       q    Type
REMARK                         _______ _______ _______ _____ _____    ______ ____
ROOT
ATOM      1  C   UNL     1      -0.013   1.086   0.008  0.00  0.00    +0.192 C 
ENDROOT
BRANCH   1   2
ATOM      2  C   UNL     1      -0.742   1.585  -1.213  0.00  0.00    +0.017 A 
ATOM      3  C   UNL     1      -1.518   2.726  -1.136  0.00  0.00    +0.009 A 
ATOM      4  C   UNL     1      -2.182   3.187  -2.257  0.00  0.00    +0.001 A 
ATOM      5  C   UNL     1      -2.080   2.502  -3.454  0.00  0.00    +0.003 A 
ATOM      6  C   UNL     1      -1.308   1.358  -3.531  0.00  0.00    +0.039 A 
ATOM      7  C   UNL     1      -0.638   0.898  -2.410  0.00  0.00    +0.129 A 
ATOM      8  F   UNL     1       0.116  -0.221  -2.485  0.00  0.00    -0.205 F 
ENDBRANCH   1   2
BRANCH   1   9
ATOM      9  C   UNL     1       1.401   1.607  -0.003  0.00  0.00    +0.242 A 
ATOM     10  N   UNL     1       1.774   2.826   0.273  0.00  0.00    -0.110 NA
ATOM     11  N   UNL     1       3.053   2.919   0.166  0.00  0.00    -0.107 NA
ATOM     12  C   UNL     1       3.543   1.753  -0.185  0.00  0.00    +0.248 A 
ATOM     13  O   UNL     1       2.506   0.899  -0.293  0.00  0.00    -0.418 OA
BRANCH  12  14
ATOM     14  C   UNL     1       4.969   1.435  -0.414  0.00  0.00    +0.038 A 
ATOM     15  C   UNL     1       5.348   0.142  -0.779  0.00  0.00    +0.013 A 
ATOM     16  C   UNL     1       6.680  -0.147  -0.996  0.00  0.00    +0.001 A 
ATOM     17  C   UNL     1       7.639   0.838  -0.841  0.00  0.00    +0.000 A 
ATOM     18  C   UNL     1       7.270   2.119  -0.473  0.00  0.00    +0.001 A 
ATOM     19  C   UNL     1       5.942   2.424  -0.259  0.00  0.00    +0.013 A 
ENDBRANCH  12  14
ENDBRANCH   1   9
BRANCH   1  20
ATOM     20  N   UNL     1      -0.698   1.558   1.213  0.00  0.00    -0.326 N 
ATOM     21  H   UNL     1      -0.362   2.479   1.712  0.00  0.00    +0.147 HD
BRANCH  20  27
ATOM     22  C   UNL     1      -3.738  -2.295   0.932  0.00  0.00    +0.044 C 
ATOM     23  C   UNL     1      -3.277  -1.033   1.615  0.00  0.00    -0.048 A 
ATOM     24  C   UNL     1      -3.925  -0.589   2.752  0.00  0.00    +0.007 A 
ATOM     25  C   UNL     1      -3.506   0.568   3.383  0.00  0.00    +0.047 A 
ATOM     26  C   UNL     1      -2.435   1.285   2.876  0.00  0.00    +0.138 A 
ATOM     27  C   UNL     1      -1.781   0.838   1.730  0.00  0.00    +0.070 A 
ATOM     28  C   UNL     1      -2.211  -0.321   1.099  0.00  0.00    +0.030 A 
BRANCH  26  29
ATOM     29  O   UNL     1      -2.022   2.424   3.496  0.00  0.00    -0.505 OA
ATOM     30  H   UNL     1      -1.171   2.992   3.092  0.00  0.00    +0.292 HD
ENDBRANCH  26  29
ENDBRANCH  20  27
ENDBRANCH   1  20
TORSDOF 6
