REMARK  Name = ZINC11067832
REMARK  7 active torsions:
REMARK  status: ('A' for Active; 'I' for Inactive)
REMARK    1  A    between atoms: C_1  and  C_2
REMARK    2  A    between atoms: C_15  and  C_17
REMARK    3  A    between atoms: C_17  and  N_52
REMARK    4  A    between atoms: C_18  and  N_52
REMARK    5  A    between atoms: C_19  and  C_20
REMARK    6  A    between atoms: C_19  and  N_52
REMARK    7  A    between atoms: N_22  and  C_23
REMARK                            x       y       z     vdW  Elec       q    Type
REMARK                         _______ _______ _______ _____ _____    ______ ____
ROOT
ATOM      1  C   UNL     1      -7.330   3.865  -0.094  0.00  0.00    +0.019 C 
ENDROOT
BRANCH   1  15
ATOM      2  C   UNL     1     -11.181   2.138   1.814  0.00  0.00    +0.029 C 
ATOM      3  C   UNL     1     -10.768   2.230   0.344  0.00  0.00    +0.087 C 
ATOM      4  C   UNL     1     -11.977   2.644  -0.498  0.00  0.00    +0.118 C 
ATOM      5  C   UNL     1     -11.526   3.121  -1.853  0.00  0.00    +0.219 C 
ATOM      6  O   UNL     1     -11.675   2.407  -2.822  0.00  0.00    -0.275 OA
ATOM      7  N   UNL     1     -10.957   4.338  -1.998  0.00  0.00    -0.284 N 
ATOM      8  C   UNL     1     -10.695   5.139  -0.879  0.00  0.00    +0.055 A 
ATOM      9  C   UNL     1     -11.074   6.471  -0.853  0.00  0.00    +0.025 A 
ATOM     10  C   UNL     1     -10.776   7.248   0.251  0.00  0.00    +0.002 A 
ATOM     11  C   UNL     1     -10.101   6.700   1.326  0.00  0.00    +0.002 A 
ATOM     12  C   UNL     1      -9.731   5.368   1.312  0.00  0.00    +0.025 A 
ATOM     13  C   UNL     1     -10.037   4.580   0.221  0.00  0.00    +0.058 A 
ATOM     14  N   UNL     1      -9.700   3.220   0.199  0.00  0.00    -0.268 N 
ATOM     15  C   UNL     1      -8.418   2.832   0.054  0.00  0.00    +0.204 C 
ATOM     16  O   UNL     1      -8.139   1.652   0.042  0.00  0.00    -0.277 OA
ATOM     17  H   UNL     1     -10.726   4.659  -2.884  0.00  0.00    +0.155 HD
ENDBRANCH   1  15
BRANCH   1  19
ATOM     18  C   UNL     1      -5.967   2.434  -1.492  0.00  0.00    -0.095 C 
ATOM     19  N   UNL     1      -6.029   3.174  -0.214  0.00  0.00    +0.389 N 
ATOM     20  H   UNL     1      -5.932   2.508   0.561  0.00  0.00    -0.081 HD
BRANCH  19  21
ATOM     21  C   UNL     1      -4.927   4.156  -0.144  0.00  0.00    +0.019 C 
BRANCH  21  22
ATOM     22  C   UNL     1      -3.619   3.413  -0.047  0.00  0.00    +0.201 C 
ATOM     23  O   UNL     1      -3.609   2.200  -0.054  0.00  0.00    -0.278 OA
ATOM     24  N   UNL     1      -2.461   4.096   0.047  0.00  0.00    -0.287 N 
ATOM     25  H   UNL     1      -2.473   5.063   0.119  0.00  0.00    +0.155 HD
BRANCH  24  26
ATOM     26  C   UNL     1      -1.241   3.409   0.039  0.00  0.00    +0.036 A 
ATOM     27  C   UNL     1      -1.141   2.162   0.642  0.00  0.00    +0.026 A 
ATOM     28  C   UNL     1       0.063   1.486   0.634  0.00  0.00    +0.043 A 
ATOM     29  C   UNL     1       1.171   2.049   0.025  0.00  0.00    +0.159 A 
ATOM     30  C   UNL     1       1.075   3.295  -0.577  0.00  0.00    +0.160 A 
ATOM     31  C   UNL     1      -0.128   3.977  -0.566  0.00  0.00    +0.064 A 
ATOM     32  F   UNL     1       2.158   3.844  -1.170  0.00  0.00    -0.202 F 
ATOM     33  F   UNL     1       2.348   1.386   0.019  0.00  0.00    -0.202 F 
ENDBRANCH  24  26
ENDBRANCH  21  22
ENDBRANCH  19  21
ENDBRANCH   1  19
TORSDOF 5
