REMARK  Name = ZINC36624777
REMARK  11 active torsions:
REMARK  status: ('A' for Active; 'I' for Inactive)
REMARK    1  A    between atoms: C_1  and  C_2
REMARK    2  A    between atoms: C_3  and  O_24
REMARK    3  A    between atoms: C_9  and  O_23
REMARK    4  A    between atoms: C_10  and  C_13
REMARK    5  A    between atoms: C_13  and  N_14
REMARK    6  A    between atoms: N_14  and  C_15
REMARK    7  A    between atoms: N_14  and  C_16
REMARK    8  A    between atoms: C_16  and  C_17
REMARK    9  A    between atoms: O_24  and  C_25
REMARK   10  A    between atoms: C_28  and  O_31
REMARK   11  A    between atoms: O_31  and  C_32
REMARK                            x       y       z     vdW  Elec       q    Type
REMARK                         _______ _______ _______ _____ _____    ______ ____
ROOT
ATOM      1  C   UNL     1      -0.020   1.482  -0.113  0.00  0.00    +0.090 C 
ATOM      2  C   UNL     1      -0.005  -0.024  -0.060  0.00  0.00    +0.148 A 
ATOM      3  C   UNL     1      -1.173  -0.676   0.104  0.00  0.00    +0.213 A 
ATOM      4  C   UNL     1      -1.182  -2.099   0.156  0.00  0.00    +0.235 A 
ATOM      5  O   UNL     1      -2.220  -2.723   0.303  0.00  0.00    -0.283 OA
ATOM      6  C   UNL     1       0.114  -2.786   0.025  0.00  0.00    +0.068 A 
ATOM      7  C   UNL     1       0.207  -4.178   0.064  0.00  0.00    +0.019 A 
ATOM      8  C   UNL     1       1.427  -4.779  -0.061  0.00  0.00    +0.046 A 
ATOM      9  C   UNL     1       2.577  -4.011  -0.227  0.00  0.00    +0.122 A 
ATOM     10  C   UNL     1       2.502  -2.629  -0.268  0.00  0.00    +0.020 A 
ATOM     11  C   UNL     1       1.270  -2.003  -0.142  0.00  0.00    +0.144 A 
ATOM     12  O   UNL     1       1.168  -0.659  -0.184  0.00  0.00    -0.456 OA
ENDROOT
BRANCH   9  13
ATOM     13  O   UNL     1       3.783  -4.623  -0.350  0.00  0.00    -0.506 OA
ATOM     14  H   UNL     1       4.027  -4.832  -1.262  0.00  0.00    +0.292 HD
ENDBRANCH   9  13
BRANCH  10  15
ATOM     15  C   UNL     1       3.753  -1.809  -0.448  0.00  0.00    -0.035 C 
BRANCH  15  16
ATOM     16  N   UNL     1       3.995  -1.591  -1.880  0.00  0.00    +0.383 N 
ATOM     17  C   UNL     1       2.910  -0.775  -2.441  0.00  0.00    -0.095 C 
ATOM     18  H   UNL     1       4.026  -2.481  -2.355  0.00  0.00    -0.081 HD
BRANCH  16  19
ATOM     19  C   UNL     1       5.276  -0.895  -2.061  0.00  0.00    -0.043 C 
BRANCH  19  20
ATOM     20  C   UNL     1       5.583  -0.782  -3.532  0.00  0.00    -0.064 A 
ATOM     21  C   UNL     1       6.294  -1.781  -4.169  0.00  0.00    +0.002 A 
ATOM     22  C   UNL     1       6.575  -1.677  -5.518  0.00  0.00    +0.000 A 
ATOM     23  C   UNL     1       6.145  -0.573  -6.231  0.00  0.00    +0.000 A 
ATOM     24  C   UNL     1       5.433   0.426  -5.594  0.00  0.00    +0.000 A 
ATOM     25  C   UNL     1       5.148   0.320  -4.245  0.00  0.00    +0.002 A 
ENDBRANCH  19  20
ENDBRANCH  16  19
ENDBRANCH  15  16
ENDBRANCH  10  15
BRANCH   3  26
ATOM     26  O   UNL     1      -2.337   0.021   0.219  0.00  0.00    -0.449 OA
BRANCH  26  27
ATOM     27  C   UNL     1      -2.987  -0.016   1.412  0.00  0.00    +0.129 A 
ATOM     28  C   UNL     1      -2.405  -0.647   2.501  0.00  0.00    +0.050 A 
ATOM     29  C   UNL     1      -3.066  -0.685   3.713  0.00  0.00    +0.049 A 
ATOM     30  C   UNL     1      -4.313  -0.092   3.841  0.00  0.00    +0.120 A 
ATOM     31  C   UNL     1      -4.896   0.539   2.752  0.00  0.00    +0.049 A 
ATOM     32  C   UNL     1      -4.232   0.583   1.542  0.00  0.00    +0.050 A 
BRANCH  30  33
ATOM     33  O   UNL     1      -4.965  -0.130   5.034  0.00  0.00    -0.495 OA
ATOM     34  C   UNL     1      -6.245   0.501   5.094  0.00  0.00    +0.277 C 
ENDBRANCH  30  33
ENDBRANCH  26  27
ENDBRANCH   3  26
TORSDOF 8
