REMARK  Name = ZINC09502066
REMARK  5 active torsions:
REMARK  status: ('A' for Active; 'I' for Inactive)
REMARK    1  A    between atoms: C_8  and  C_10
REMARK    2  A    between atoms: C_10  and  O_11
REMARK    3  A    between atoms: O_11  and  C_12
REMARK    4  A    between atoms: C_12  and  C_13
REMARK    5  A    between atoms: N_15  and  C_16
REMARK                            x       y       z     vdW  Elec       q    Type
REMARK                         _______ _______ _______ _____ _____    ______ ____
ROOT
ATOM      1  C   UNL     1       0.777   1.247  -4.945  0.00  0.00    +0.243 C 
ATOM      2  O   UNL     1       1.322   1.518  -5.994  0.00  0.00    -0.273 OA
ATOM      3  N   UNL     1      -0.548   1.448  -4.803  0.00  0.00    -0.283 N 
ATOM      4  H   UNL     1      -0.996   1.170  -3.989  0.00  0.00    +0.155 HD
ENDROOT
BRANCH   3   5
ATOM      5  C   UNL     1      -1.278   2.058  -5.831  0.00  0.00    +0.037 A 
ATOM      6  C   UNL     1      -2.341   2.897  -5.524  0.00  0.00    +0.027 A 
ATOM      7  C   UNL     1      -3.059   3.506  -6.536  0.00  0.00    +0.051 A 
ATOM      8  C   UNL     1      -2.728   3.270  -7.859  0.00  0.00    +0.167 A 
ATOM      9  C   UNL     1      -1.665   2.422  -8.171  0.00  0.00    +0.169 A 
ATOM     10  C   UNL     1      -0.943   1.819  -7.157  0.00  0.00    +0.073 A 
ATOM     11  O   UNL     1      -1.550   2.359  -9.535  0.00  0.00    -0.447 OA
ATOM     12  C   UNL     1      -2.220   3.542  -9.992  0.00  0.00    +0.254 C 
ATOM     13  O   UNL     1      -3.270   3.730  -9.032  0.00  0.00    -0.448 OA
ATOM     14  C   UNL     1      -2.788   3.349 -11.402  0.00  0.00    +0.093 C 
ATOM     15  C   UNL     1      -2.637   4.745 -12.061  0.00  0.00    +0.008 C 
ATOM     16  C   UNL     1      -1.287   5.251 -11.493  0.00  0.00    +0.008 C 
ATOM     17  C   UNL     1      -1.276   4.743 -10.033  0.00  0.00    +0.093 C 
ENDBRANCH   3   5
BRANCH   1  18
ATOM     18  C   UNL     1       1.581   0.687  -3.801  0.00  0.00    +0.256 C 
BRANCH  18  19
ATOM     19  O   UNL     1       2.950   0.568  -4.194  0.00  0.00    -0.364 OA
BRANCH  19  20
ATOM     20  C   UNL     1       3.804   0.043  -3.175  0.00  0.00    +0.223 C 
BRANCH  20  28
ATOM     21  C   UNL     1       9.674   1.155  -4.725  0.00  0.00    +0.002 A 
ATOM     22  C   UNL     1       9.830  -0.096  -5.306  0.00  0.00    +0.001 A 
ATOM     23  C   UNL     1       8.767  -0.979  -5.313  0.00  0.00    +0.017 A 
ATOM     24  C   UNL     1       7.574  -0.603  -4.744  0.00  0.00    +0.039 A 
ATOM     25  C   UNL     1       7.386   0.664  -4.146  0.00  0.00    +0.079 A 
ATOM     26  C   UNL     1       8.497   1.537  -4.160  0.00  0.00    +0.029 A 
ATOM     27  N   UNL     1       6.153   0.865  -3.637  0.00  0.00    -0.242 NA
ATOM     28  C   UNL     1       5.216  -0.039  -3.696  0.00  0.00    +0.105 A 
ATOM     29  S   UNL     1       5.988  -1.364  -4.511  0.00  0.00    -0.070 S 
ENDBRANCH  20  28
ENDBRANCH  19  20
ENDBRANCH  18  19
ENDBRANCH   1  18
TORSDOF 5
