REMARK  Name = ZINC39935012
REMARK  5 active torsions:
REMARK  status: ('A' for Active; 'I' for Inactive)
REMARK    1  A    between atoms: C_7  and  C_14
REMARK    2  A    between atoms: N_9  and  C_10
REMARK    3  A    between atoms: C_10  and  C_11
REMARK    4  A    between atoms: C_15  and  C_16
REMARK    5  A    between atoms: C_15  and  C_18
REMARK                            x       y       z     vdW  Elec       q    Type
REMARK                         _______ _______ _______ _____ _____    ______ ____
ROOT
ATOM      1  C   UNL     1       0.048   1.359  -0.489  0.00  0.00    +0.001 A 
ATOM      2  C   UNL     1       1.243   2.064  -0.473  0.00  0.00    +0.002 A 
ATOM      3  C   UNL     1       2.445   1.404  -0.333  0.00  0.00    +0.026 A 
ATOM      4  C   UNL     1       2.466   0.019  -0.204  0.00  0.00    +0.050 A 
ATOM      5  C   UNL     1       1.255  -0.692  -0.220  0.00  0.00    +0.007 A 
ATOM      6  C   UNL     1       0.048  -0.013  -0.363  0.00  0.00    +0.010 A 
ATOM      7  C   UNL     1       1.618  -2.113  -0.065  0.00  0.00    +0.001 A 
ATOM      8  C   UNL     1       2.979  -2.157   0.030  0.00  0.00    +0.095 A 
ATOM      9  N   UNL     1       3.484  -0.899  -0.052  0.00  0.00    -0.337 N 
ENDROOT
BRANCH   7  10
ATOM     10  C   UNL     1       0.699  -3.253  -0.021  0.00  0.00    +0.028 C 
ATOM     11  C   UNL     1       1.120  -4.444   0.465  0.00  0.00    +0.072 C 
BRANCH  11  12
ATOM     12  C   UNL     1       0.230  -5.656   0.366  0.00  0.00    +0.216 C 
ATOM     13  N   UNL     1      -0.003  -6.221   1.701  0.00  0.00    -0.359 N 
ATOM     14  C   UNL     1       0.462  -7.437   1.698  0.00  0.00    +0.060 A 
ATOM     15  C   UNL     1       0.518  -8.488   2.723  0.00  0.00    +0.027 A 
ATOM     16  C   UNL     1       1.073  -9.679   2.424  0.00  0.00    +0.002 A 
ATOM     17  C   UNL     1       1.609  -9.969   1.157  0.00  0.00    +0.002 A 
ATOM     18  C   UNL     1       1.609  -9.078   0.146  0.00  0.00    +0.027 A 
ATOM     19  C   UNL     1       1.029  -7.744   0.356  0.00  0.00    +0.060 A 
ATOM     20  N   UNL     1       0.893  -6.706  -0.417  0.00  0.00    -0.359 N 
ATOM     21  H   UNL     1      -0.425  -5.770   2.449  0.00  0.00    +0.162 HD
ATOM     22  H   UNL     1       1.178  -6.638  -1.342  0.00  0.00    +0.162 HD
ENDBRANCH  11  12
BRANCH  11  23
ATOM     23  C   UNL     1       2.412  -4.553   1.073  0.00  0.00    +0.099 C 
ATOM     24  N   UNL     1       3.437  -4.638   1.556  0.00  0.00    -0.191 NA
ENDBRANCH  11  23
ENDBRANCH   7  10
BRANCH   9  25
ATOM     25  C   UNL     1       4.909  -0.564   0.012  0.00  0.00    +0.217 C 
BRANCH  25  26
ATOM     26  C   UNL     1       5.277  -0.199   1.427  0.00  0.00    +0.230 C 
ATOM     27  O   UNL     1       4.432  -0.217   2.297  0.00  0.00    -0.274 OA
ATOM     28  N   UNL     1       6.544   0.147   1.726  0.00  0.00    -0.328 N 
ATOM     29  H   UNL     1       7.220   0.161   1.030  0.00  0.00    +0.145 HD
ATOM     30  H   UNL     1       6.781   0.382   2.637  0.00  0.00    +0.145 HD
ENDBRANCH  25  26
ENDBRANCH   9  25
TORSDOF 5
