REMARK  Name = ZINC38702542
REMARK  4 active torsions:
REMARK  status: ('A' for Active; 'I' for Inactive)
REMARK    1  A    between atoms: C_1  and  C_2
REMARK    2  A    between atoms: C_2  and  O_3
REMARK    3  A    between atoms: O_3  and  C_4
REMARK    4  A    between atoms: C_8  and  C_10
REMARK                            x       y       z     vdW  Elec       q    Type
REMARK                         _______ _______ _______ _____ _____    ______ ____
ROOT
ATOM      1  C   UNL     1      -4.316  -4.366   0.008  0.00  0.00    +0.142 C 
ATOM      2  C   UNL     1      -4.676  -4.823   1.384  0.00  0.00    +0.072 A 
ATOM      3  C   UNL     1      -4.797  -4.087   2.646  0.00  0.00    +0.199 A 
ATOM      4  O   UNL     1      -4.772  -2.870   2.714  0.00  0.00    -0.287 OA
ATOM      5  C   UNL     1      -4.951  -4.964   3.834  0.00  0.00    +0.066 A 
ATOM      6  C   UNL     1      -4.879  -4.430   5.120  0.00  0.00    +0.035 A 
ATOM      7  C   UNL     1      -5.019  -5.260   6.211  0.00  0.00    +0.042 A 
ATOM      8  C   UNL     1      -5.231  -6.621   6.027  0.00  0.00    +0.023 A 
ATOM      9  C   UNL     1      -5.306  -7.158   4.762  0.00  0.00    +0.048 A 
ATOM     10  C   UNL     1      -5.170  -6.338   3.642  0.00  0.00    +0.140 A 
ATOM     11  O   UNL     1      -5.257  -6.891   2.411  0.00  0.00    -0.450 OA
ATOM     12  C   UNL     1      -4.903  -6.169   1.329  0.00  0.00    +0.199 A 
ATOM     13  C   UNL     1      -4.694  -6.617  -0.059  0.00  0.00    +0.281 C 
ATOM     14  O   UNL     1      -4.813  -7.763  -0.446  0.00  0.00    -0.267 OA
ATOM     15  N   UNL     1      -4.352  -5.570  -0.839  0.00  0.00    -0.298 N 
ATOM     16 CL   UNL     1      -4.931  -4.605   7.816  0.00  0.00    -0.084 Cl
ATOM     17  H   UNL     1      -4.163  -5.603  -1.790  0.00  0.00    +0.150 HD
ENDROOT
BRANCH   1  22
ATOM     18  C   UNL     1      -1.498  -1.848   0.006  0.00  0.00    +0.121 A 
ATOM     19  C   UNL     1      -0.387  -2.679  -0.003  0.00  0.00    +0.045 A 
ATOM     20  C   UNL     1      -0.552  -4.051  -0.008  0.00  0.00    +0.004 A 
ATOM     21  C   UNL     1      -1.823  -4.596  -0.004  0.00  0.00    +0.006 A 
ATOM     22  C   UNL     1      -2.932  -3.769   0.004  0.00  0.00    -0.019 A 
ATOM     23  C   UNL     1      -2.772  -2.397   0.016  0.00  0.00    +0.051 A 
BRANCH  18  24
ATOM     24  O   UNL     1      -1.339  -0.499   0.012  0.00  0.00    -0.492 OA
BRANCH  24  26
ATOM     25  C   UNL     1      -0.019   1.526   0.010  0.00  0.00    +0.048 C 
ATOM     26  C   UNL     1       0.002  -0.004   0.002  0.00  0.00    +0.225 C 
ENDBRANCH  24  26
ENDBRANCH  18  24
ENDBRANCH   1  22
TORSDOF 3
