REMARK  Name = ZINC06023531
REMARK  9 active torsions:
REMARK  status: ('A' for Active; 'I' for Inactive)
REMARK    1  A    between atoms: C_1  and  C_2
REMARK    2  A    between atoms: C_4  and  N_12
REMARK    3  A    between atoms: C_5  and  C_9
REMARK    4  A    between atoms: C_7  and  O_8
REMARK    5  A    between atoms: C_9  and  C_10
REMARK    6  A    between atoms: C_9  and  C_11
REMARK    7  A    between atoms: C_13  and  C_25
REMARK    8  A    between atoms: N_14  and  S_15
REMARK    9  A    between atoms: S_15  and  C_18
REMARK                            x       y       z     vdW  Elec       q    Type
REMARK                         _______ _______ _______ _____ _____    ______ ____
ROOT
ATOM      1  N   UNL     1      -0.248  -2.781  -2.392  0.00  0.00    -0.297 N 
ATOM      2  C   UNL     1       0.049  -2.053  -3.524  0.00  0.00    +0.152 C 
ATOM      3  N   UNL     1       0.379  -0.797  -3.423  0.00  0.00    -0.113 NA
ATOM      4  H   UNL     1       0.156  -2.543  -1.543  0.00  0.00    +0.154 HD
ENDROOT
BRANCH   1   8
ATOM      5  C   UNL     1      -1.041  -7.623  -2.086  0.00  0.00    +0.047 C 
ATOM      6  C   UNL     1      -1.543  -6.222  -2.323  0.00  0.00    -0.007 A 
ATOM      7  C   UNL     1      -0.670  -5.154  -2.248  0.00  0.00    +0.030 A 
ATOM      8  C   UNL     1      -1.132  -3.864  -2.468  0.00  0.00    +0.036 A 
ATOM      9  C   UNL     1      -2.472  -3.647  -2.761  0.00  0.00    -0.020 A 
ATOM     10  C   UNL     1      -3.344  -4.716  -2.836  0.00  0.00    +0.051 A 
ATOM     11  C   UNL     1      -2.880  -6.006  -2.622  0.00  0.00    +0.120 A 
BRANCH   9  12
ATOM     12  C   UNL     1      -2.975  -2.247  -2.999  0.00  0.00    +0.015 C 
ATOM     13  C   UNL     1      -3.598  -2.158  -4.394  0.00  0.00    +0.012 C 
ATOM     14  C   UNL     1      -4.030  -1.899  -1.947  0.00  0.00    +0.012 C 
ENDBRANCH   9  12
BRANCH  11  15
ATOM     15  O   UNL     1      -3.737  -7.058  -2.700  0.00  0.00    -0.506 OA
ATOM     16  H   UNL     1      -4.165  -7.281  -1.862  0.00  0.00    +0.292 HD
ENDBRANCH  11  15
ENDBRANCH   1   8
BRANCH   2  17
ATOM     17  C   UNL     1      -0.009  -2.698  -4.856  0.00  0.00    +0.017 A 
ATOM     18  C   UNL     1       0.033  -4.088  -4.962  0.00  0.00    +0.011 A 
ATOM     19  C   UNL     1      -0.021  -4.684  -6.205  0.00  0.00    +0.001 A 
ATOM     20  C   UNL     1      -0.116  -3.905  -7.345  0.00  0.00    +0.000 A 
ATOM     21  C   UNL     1      -0.157  -2.526  -7.246  0.00  0.00    +0.001 A 
ATOM     22  C   UNL     1      -0.110  -1.919  -6.008  0.00  0.00    +0.011 A 
ENDBRANCH   2  17
BRANCH   3  23
ATOM     23  S   UNL     1       0.475  -0.083  -1.932  0.00  0.00    +0.100 S 
ATOM     24  O   UNL     1      -0.834  -0.120  -1.379  0.00  0.00    -0.146 OA
ATOM     25  O   UNL     1       1.595  -0.661  -1.276  0.00  0.00    -0.146 OA
BRANCH  23  26
ATOM     26  C   UNL     1       0.864   1.616  -2.191  0.00  0.00    +0.113 A 
ATOM     27  C   UNL     1       2.180   2.006  -2.354  0.00  0.00    +0.030 A 
ATOM     28  C   UNL     1       2.486   3.338  -2.558  0.00  0.00    +0.017 A 
ATOM     29  C   UNL     1       1.475   4.281  -2.599  0.00  0.00    +0.018 A 
ATOM     30  C   UNL     1       0.158   3.890  -2.436  0.00  0.00    +0.017 A 
ATOM     31  C   UNL     1      -0.147   2.557  -2.237  0.00  0.00    +0.030 A 
ATOM     32 BR   UNL     1       1.893   6.104  -2.877  0.00  0.00    -0.050 Br
ENDBRANCH  23  26
ENDBRANCH   3  23
TORSDOF 6
