REMARK  Name = ZINC11473473
REMARK  10 active torsions:
REMARK  status: ('A' for Active; 'I' for Inactive)
REMARK    1  A    between atoms: C_1  and  C_2
REMARK    2  A    between atoms: C_8  and  N_10
REMARK    3  A    between atoms: C_14  and  C_16
REMARK    4  A    between atoms: C_16  and  O_17
REMARK    5  A    between atoms: O_17  and  C_18
REMARK    6  A    between atoms: C_18  and  C_20
REMARK    7  A    between atoms: C_20  and  C_21
REMARK    8  A    between atoms: C_21  and  C_22
REMARK    9  A    between atoms: C_25  and  S_28
REMARK   10  A    between atoms: S_28  and  N_31
REMARK                            x       y       z     vdW  Elec       q    Type
REMARK                         _______ _______ _______ _____ _____    ______ ____
ROOT
ATOM      1  C   UNL     1      -8.433   1.570  -4.184  0.00  0.00    +0.308 C 
ATOM      2  O   UNL     1      -7.954   1.907  -5.241  0.00  0.00    -0.251 OA
ENDROOT
BRANCH   1   3
ATOM      3  O   UNL     1      -7.636   1.146  -3.190  0.00  0.00    -0.455 OA
BRANCH   3   4
ATOM      4  C   UNL     1      -6.209   1.118  -3.456  0.00  0.00    +0.328 C 
BRANCH   4   9
ATOM      5  N   UNL     1      -2.142  -0.048  -1.174  0.00  0.00    -0.296 N 
ATOM      6  C   UNL     1      -3.485   0.062  -1.159  0.00  0.00    +0.306 C 
ATOM      7  O   UNL     1      -4.108  -0.241  -0.160  0.00  0.00    -0.252 OA
ATOM      8  N   UNL     1      -4.137   0.509  -2.251  0.00  0.00    -0.237 N 
ATOM      9  C   UNL     1      -5.480   0.619  -2.236  0.00  0.00    +0.258 C 
ATOM     10  O   UNL     1      -6.102   0.317  -1.240  0.00  0.00    -0.272 OA
ATOM     11  H   UNL     1      -1.644   0.194  -1.971  0.00  0.00    +0.151 HD
ATOM     12  H   UNL     1      -3.639   0.750  -3.047  0.00  0.00    +0.159 HD
BRANCH   5  19
ATOM     13  C   UNL     1      -0.019   1.526   0.010  0.00  0.00    +0.009 C 
ATOM     14  C   UNL     1       0.002  -0.004   0.002  0.00  0.00    +0.006 C 
ATOM     15  C   UNL     1       0.742  -0.511   1.242  0.00  0.00    +0.005 C 
ATOM     16  C   UNL     1       0.763  -2.041   1.233  0.00  0.00    +0.000 C 
ATOM     17  C   UNL     1      -0.673  -2.570   1.244  0.00  0.00    +0.002 C 
ATOM     18  C   UNL     1      -1.413  -2.063   0.004  0.00  0.00    +0.022 C 
ATOM     19  C   UNL     1      -1.433  -0.534   0.013  0.00  0.00    +0.077 C 
ENDBRANCH   5  19
ENDBRANCH   4   9
ENDBRANCH   3   4
ENDBRANCH   1   3
BRANCH   1  20
ATOM     20  C   UNL     1      -9.925   1.626  -3.981  0.00  0.00    +0.125 C 
BRANCH  20  21
ATOM     21  C   UNL     1     -10.594   2.140  -5.257  0.00  0.00    +0.046 C 
BRANCH  21  22
ATOM     22  C   UNL     1     -12.086   2.196  -5.054  0.00  0.00    -0.047 A 
ATOM     23  C   UNL     1     -12.868   1.101  -5.368  0.00  0.00    +0.005 A 
ATOM     24  C   UNL     1     -14.237   1.151  -5.178  0.00  0.00    +0.029 A 
ATOM     25  C   UNL     1     -14.824   2.300  -4.683  0.00  0.00    +0.105 A 
ATOM     26  C   UNL     1     -14.043   3.397  -4.374  0.00  0.00    +0.029 A 
ATOM     27  C   UNL     1     -12.674   3.346  -4.560  0.00  0.00    +0.005 A 
BRANCH  25  28
ATOM     28  S   UNL     1     -16.569   2.365  -4.445  0.00  0.00    +0.061 S 
ATOM     29  O   UNL     1     -17.009   1.022  -4.295  0.00  0.00    -0.153 OA
ATOM     30  O   UNL     1     -16.807   3.360  -3.458  0.00  0.00    -0.153 OA
BRANCH  28  31
ATOM     31  N   UNL     1     -17.234   2.927  -5.853  0.00  0.00    -0.177 NA
ATOM     32  C   UNL     1     -17.438   4.367  -6.063  0.00  0.00    +0.109 C 
ATOM     33  C   UNL     1     -16.768   4.768  -7.386  0.00  0.00    +0.017 C 
ATOM     34  C   UNL     1     -17.310   3.886  -8.513  0.00  0.00    +0.003 C 
ATOM     35  C   UNL     1     -16.970   2.422  -8.226  0.00  0.00    +0.017 C 
ATOM     36  C   UNL     1     -17.637   1.994  -6.915  0.00  0.00    +0.109 C 
ENDBRANCH  28  31
ENDBRANCH  25  28
ENDBRANCH  21  22
ENDBRANCH  20  21
ENDBRANCH   1  20
TORSDOF 9
