REMARK  Name = ZINC12053816
REMARK  16 active torsions:
REMARK  status: ('A' for Active; 'I' for Inactive)
REMARK    1  A    between atoms: C_1  and  N_69
REMARK    2  A    between atoms: C_2  and  C_3
REMARK    3  A    between atoms: C_2  and  N_69
REMARK    4  A    between atoms: C_4  and  O_13
REMARK    5  A    between atoms: C_6  and  O_11
REMARK    6  A    between atoms: C_8  and  O_9
REMARK    7  A    between atoms: O_9  and  C_10
REMARK    8  A    between atoms: O_11  and  C_12
REMARK    9  A    between atoms: O_13  and  C_14
REMARK   10  A    between atoms: C_15  and  C_16
REMARK   11  A    between atoms: C_15  and  N_69
REMARK   12  A    between atoms: C_22  and  C_23
REMARK   13  A    between atoms: C_22  and  N_71
REMARK   14  A    between atoms: C_23  and  C_24
REMARK   15  A    between atoms: C_27  and  O_30
REMARK   16  A    between atoms: O_30  and  C_31
REMARK                            x       y       z     vdW  Elec       q    Type
REMARK                         _______ _______ _______ _____ _____    ______ ____
ROOT
ATOM      1  C   UNL     1      -0.016   1.061  -0.254  0.00  0.00    -0.077 C 
ENDROOT
BRANCH   1   2
ATOM      2  C   UNL     1      -0.421   1.310  -1.708  0.00  0.00    -0.044 C 
ATOM      3  C   UNL     1      -0.446   2.816  -1.981  0.00  0.00    -0.002 C 
ATOM      4  C   UNL     1      -0.794   3.055  -3.453  0.00  0.00    -0.018 C 
ATOM      5  C   UNL     1       0.229   2.338  -4.337  0.00  0.00    -0.079 C 
ATOM      6  C   UNL     1       0.591   0.644  -2.643  0.00  0.00    -0.077 C 
ATOM      7  N   UNL     1       0.186   0.890  -4.043  0.00  0.00    +0.380 N 
ATOM      8  H   UNL     1      -0.774   0.552  -4.176  0.00  0.00    -0.082 HD
BRANCH   7   9
ATOM      9  C   UNL     1       1.084   0.162  -4.963  0.00  0.00    -0.074 C 
BRANCH   9  10
ATOM     10  C   UNL     1       0.511   0.246  -6.380  0.00  0.00    +0.016 C 
BRANCH  10  11
ATOM     11  C   UNL     1       1.403  -0.512  -7.328  0.00  0.00    -0.049 A 
ATOM     12  C   UNL     1       2.444   0.139  -7.965  0.00  0.00    +0.007 A 
ATOM     13  C   UNL     1       3.267  -0.555  -8.831  0.00  0.00    +0.046 A 
ATOM     14  C   UNL     1       3.041  -1.903  -9.070  0.00  0.00    +0.120 A 
ATOM     15  C   UNL     1       1.993  -2.552  -8.434  0.00  0.00    +0.046 A 
ATOM     16  C   UNL     1       1.176  -1.855  -7.565  0.00  0.00    +0.007 A 
BRANCH  14  17
ATOM     17  O   UNL     1       3.846  -2.586  -9.925  0.00  0.00    -0.495 OA
ATOM     18  C   UNL     1       4.906  -1.854 -10.544  0.00  0.00    +0.277 C 
ENDBRANCH  14  17
ENDBRANCH  10  11
ENDBRANCH   9  10
ENDBRANCH   7   9
ENDBRANCH   1   2
BRANCH   1  20
ATOM     19  C   UNL     1      -1.468  -0.843   0.104  0.00  0.00    -0.096 C 
ATOM     20  N   UNL     1      -0.063  -0.393   0.009  0.00  0.00    +0.381 N 
ATOM     21  H   UNL     1       0.394  -0.888  -0.765  0.00  0.00    -0.082 HD
BRANCH  20  22
ATOM     22  C   UNL     1       0.652  -0.702   1.265  0.00  0.00    -0.036 C 
BRANCH  22  23
ATOM     23  C   UNL     1       0.780  -2.198   1.396  0.00  0.00    +0.020 A 
ATOM     24  C   UNL     1      -0.197  -2.921   2.065  0.00  0.00    +0.128 A 
ATOM     25  C   UNL     1      -0.082  -4.298   2.181  0.00  0.00    +0.091 A 
ATOM     26  C   UNL     1       1.015  -4.951   1.638  0.00  0.00    +0.127 A 
ATOM     27  C   UNL     1       1.994  -4.227   0.974  0.00  0.00    +0.091 A 
ATOM     28  C   UNL     1       1.876  -2.851   0.854  0.00  0.00    +0.128 A 
BRANCH  28  29
ATOM     29  O   UNL     1       2.836  -2.141   0.203  0.00  0.00    -0.495 OA
ATOM     30  C   UNL     1       3.937  -2.878  -0.331  0.00  0.00    +0.277 C 
ENDBRANCH  28  29
BRANCH  26  31
ATOM     31  O   UNL     1       1.130  -6.300   1.757  0.00  0.00    -0.495 OA
ATOM     32  C   UNL     1       0.085  -6.981   2.453  0.00  0.00    +0.277 C 
ENDBRANCH  26  31
BRANCH  24  33
ATOM     33  O   UNL     1      -1.268  -2.281   2.602  0.00  0.00    -0.495 OA
ATOM     34  C   UNL     1      -2.236  -3.088   3.276  0.00  0.00    +0.277 C 
ENDBRANCH  24  33
ENDBRANCH  22  23
ENDBRANCH  20  22
ENDBRANCH   1  20
TORSDOF 11
