REMARK  Name = ZINC13958202
REMARK  4 active torsions:
REMARK  status: ('A' for Active; 'I' for Inactive)
REMARK    1  A    between atoms: C_1  and  C_2
REMARK    2  A    between atoms: C_4  and  C_30
REMARK    3  A    between atoms: C_14  and  C_17
REMARK    4  A    between atoms: C_22  and  C_23
REMARK                            x       y       z     vdW  Elec       q    Type
REMARK                         _______ _______ _______ _____ _____    ______ ____
ROOT
ATOM      1  C   UNL     1       4.062   8.838  -3.400  0.00  0.00    +0.044 C 
ATOM      2  C   UNL     1       2.791   9.483  -3.889  0.00  0.00    -0.037 A 
ATOM      3  C   UNL     1       2.800  10.540  -4.780  0.00  0.00    +0.036 A 
ATOM      4  C   UNL     1       1.633  11.133  -5.228  0.00  0.00    +0.145 A 
ATOM      5  N   UNL     1       0.434  10.723  -4.834  0.00  0.00    -0.235 NA
ATOM      6  C   UNL     1       0.375   9.718  -3.988  0.00  0.00    +0.112 A 
ATOM      7  C   UNL     1       1.511   9.042  -3.463  0.00  0.00    +0.032 A 
ATOM      8  C   UNL     1       1.234   7.961  -2.537  0.00  0.00    +0.058 A 
ATOM      9  C   UNL     1      -0.110   7.700  -2.287  0.00  0.00    +0.097 A 
ATOM     10  S   UNL     1      -0.999   8.889  -3.245  0.00  0.00    -0.062 S 
ATOM     11  C   UNL     1      -0.567   6.679  -1.434  0.00  0.00    +0.254 C 
ATOM     12  O   UNL     1      -1.731   6.588  -1.087  0.00  0.00    -0.270 OA
ATOM     13  N   UNL     1       0.387   5.798  -1.024  0.00  0.00    -0.289 N 
ATOM     14  C   UNL     1       1.712   5.824  -1.638  0.00  0.00    +0.193 C 
ATOM     15  N   UNL     1       2.203   7.181  -1.884  0.00  0.00    -0.321 N 
ATOM     16  H   UNL     1       0.187   5.155  -0.326  0.00  0.00    +0.151 HD
ATOM     17  H   UNL     1       2.501   7.618  -1.026  0.00  0.00    +0.148 HD
ENDROOT
BRANCH  14  18
ATOM     18  C   UNL     1       2.682   5.115  -0.728  0.00  0.00    +0.036 A 
ATOM     19  C   UNL     1       3.957   5.487  -0.480  0.00  0.00    +0.112 A 
ATOM     20  N   UNL     1       4.490   4.597   0.385  0.00  0.00    -0.284 N 
ATOM     21  H   UNL     1       5.422   4.616   0.746  0.00  0.00    +0.188 HD
ATOM     22  N   UNL     1       3.510   3.642   0.686  0.00  0.00    -0.174 NA
ATOM     23  C   UNL     1       2.421   3.947   0.014  0.00  0.00    +0.099 A 
BRANCH  23  24
ATOM     24  C   UNL     1       1.140   3.197   0.039  0.00  0.00    +0.003 A 
ATOM     25  C   UNL     1       0.445   2.961  -1.145  0.00  0.00    +0.011 A 
ATOM     26  C   UNL     1      -0.745   2.262  -1.117  0.00  0.00    +0.020 A 
ATOM     27  C   UNL     1      -1.250   1.800   0.087  0.00  0.00    +0.041 A 
ATOM     28  C   UNL     1      -0.560   2.028   1.265  0.00  0.00    +0.020 A 
ATOM     29  C   UNL     1       0.630   2.725   1.247  0.00  0.00    +0.011 A 
ATOM     30 CL   UNL     1      -2.751   0.928   0.117  0.00  0.00    -0.084 Cl
ENDBRANCH  23  24
ENDBRANCH  14  18
BRANCH   4  31
ATOM     31  C   UNL     1       1.727  12.283  -6.198  0.00  0.00    +0.434 C 
ATOM     32  F   UNL     1       0.449  12.802  -6.430  0.00  0.00    -0.164 F 
ATOM     33  F   UNL     1       2.545  13.281  -5.659  0.00  0.00    -0.164 F 
ATOM     34  F   UNL     1       2.273  11.832  -7.404  0.00  0.00    -0.164 F 
ENDBRANCH   4  31
TORSDOF 3
