REMARK  Name = ZINC11166148
REMARK  9 active torsions:
REMARK  status: ('A' for Active; 'I' for Inactive)
REMARK    1  A    between atoms: C_1  and  C_2
REMARK    2  A    between atoms: C_2  and  C_3
REMARK    3  A    between atoms: C_3  and  C_4
REMARK    4  A    between atoms: C_4  and  C_5
REMARK    5  A    between atoms: C_5  and  C_7
REMARK    6  A    between atoms: C_5  and  N_24
REMARK    7  A    between atoms: N_9  and  N_10
REMARK    8  A    between atoms: N_21  and  C_22
REMARK    9  A    between atoms: C_22  and  C_23
REMARK                            x       y       z     vdW  Elec       q    Type
REMARK                         _______ _______ _______ _____ _____    ______ ____
ROOT
ATOM      1  C   UNL     1       5.934   3.983   0.569  0.00  0.00    +0.249 C 
ATOM      2  O   UNL     1       5.887   2.834   0.953  0.00  0.00    -0.272 OA
ATOM      3  N   UNL     1       7.083   4.680   0.667  0.00  0.00    -0.233 N 
ATOM      4  H   UNL     1       7.121   5.599   0.360  0.00  0.00    +0.173 HD
ENDROOT
BRANCH   3   5
ATOM      5  N   UNL     1       8.225   4.077   1.211  0.00  0.00    -0.234 N 
ATOM      6  C   UNL     1       9.395   4.786   1.310  0.00  0.00    +0.216 A 
ATOM      7  N   UNL     1       9.411   6.025   0.886  0.00  0.00    -0.214 NA
ATOM      8  C   UNL     1      10.532   6.781   0.955  0.00  0.00    +0.080 A 
ATOM      9  C   UNL     1      10.552   8.104   0.504  0.00  0.00    +0.028 A 
ATOM     10  C   UNL     1      11.706   8.831   0.593  0.00  0.00    +0.002 A 
ATOM     11  C   UNL     1      12.862   8.275   1.126  0.00  0.00    +0.001 A 
ATOM     12  C   UNL     1      12.873   6.984   1.576  0.00  0.00    +0.015 A 
ATOM     13  C   UNL     1      11.710   6.219   1.497  0.00  0.00    +0.065 A 
ATOM     14  C   UNL     1      11.662   4.827   1.964  0.00  0.00    +0.263 A 
ATOM     15  O   UNL     1      12.644   4.287   2.441  0.00  0.00    -0.267 OA
ATOM     16  N   UNL     1      10.485   4.169   1.851  0.00  0.00    -0.280 N 
ATOM     17  H   UNL     1       8.187   3.157   1.518  0.00  0.00    +0.173 HD
BRANCH  16  18
ATOM     18  C   UNL     1      10.382   2.780   2.307  0.00  0.00    +0.125 C 
ATOM     19  C   UNL     1      10.736   1.837   1.155  0.00  0.00    +0.027 C 
ENDBRANCH  16  18
ENDBRANCH   3   5
BRANCH   1  20
ATOM     20  C   UNL     1       4.707   4.633  -0.017  0.00  0.00    +0.159 C 
BRANCH  20  21
ATOM     21  N   UNL     1       3.598   3.675  -0.012  0.00  0.00    -0.316 N 
ATOM     22  C   UNL     1       2.297   4.128   0.003  0.00  0.00    +0.150 C 
ATOM     23  N   UNL     1       2.045   5.398   0.012  0.00  0.00    -0.113 NA
ATOM     24  S   UNL     1       0.377   5.534   0.029  0.00  0.00    +0.101 S 
ATOM     25  O   UNL     1      -0.024   6.089  -1.216  0.00  0.00    -0.146 OA
ATOM     26  O   UNL     1      -0.002   6.075   1.287  0.00  0.00    -0.146 OA
ATOM     27  C   UNL     1      -0.067   3.819   0.023  0.00  0.00    +0.123 A 
ATOM     28  C   UNL     1       1.177   3.173   0.008  0.00  0.00    +0.043 A 
ATOM     29  C   UNL     1       1.177   1.770   0.000  0.00  0.00    +0.013 A 
ATOM     30  C   UNL     1      -0.013   1.076   0.008  0.00  0.00    +0.001 A 
ATOM     31  C   UNL     1      -1.226   1.741   0.017  0.00  0.00    +0.002 A 
ATOM     32  C   UNL     1      -1.244   3.129   0.031  0.00  0.00    +0.030 A 
ATOM     33  H   UNL     1       3.780   2.722  -0.018  0.00  0.00    +0.148 HD
ENDBRANCH  20  21
BRANCH  20  34
ATOM     34  C   UNL     1       4.997   5.069  -1.454  0.00  0.00    +0.032 C 
BRANCH  34  35
ATOM     35  C   UNL     1       3.795   5.838  -2.006  0.00  0.00    +0.002 C 
BRANCH  35  37
ATOM     36  C   UNL     1       2.884   7.043  -3.996  0.00  0.00    +0.004 C 
ATOM     37  C   UNL     1       4.086   6.274  -3.444  0.00  0.00    -0.003 C 
ENDBRANCH  35  37
ENDBRANCH  34  35
ENDBRANCH  20  34
ENDBRANCH   1  20
TORSDOF 7
