REMARK  Name = ZINC02915250
REMARK  6 active torsions:
REMARK  status: ('A' for Active; 'I' for Inactive)
REMARK    1  A    between atoms: C_1  and  O_2
REMARK    2  A    between atoms: O_2  and  C_3
REMARK    3  A    between atoms: C_7  and  C_9
REMARK    4  A    between atoms: C_20  and  C_22
REMARK    5  A    between atoms: C_27  and  O_28
REMARK    6  A    between atoms: O_28  and  C_29
REMARK                            x       y       z     vdW  Elec       q    Type
REMARK                         _______ _______ _______ _____ _____    ______ ____
ROOT
ATOM      1  C   UNL     1       1.167  -4.082   2.304  0.00  0.00    +0.159 C 
ATOM      2  C   UNL     1       2.503  -4.634   1.856  0.00  0.00    +0.027 C 
ATOM      3  C   UNL     1       3.211  -5.374   2.734  0.00  0.00    +0.083 C 
ATOM      4  C   UNL     1       4.515  -5.917   2.276  0.00  0.00    +0.042 A 
ATOM      5  C   UNL     1       5.451  -6.407   3.175  0.00  0.00    +0.013 A 
ATOM      6  C   UNL     1       6.653  -6.903   2.707  0.00  0.00    +0.001 A 
ATOM      7  C   UNL     1       6.921  -6.911   1.349  0.00  0.00    +0.004 A 
ATOM      8  C   UNL     1       5.993  -6.424   0.447  0.00  0.00    +0.046 A 
ATOM      9  C   UNL     1       4.785  -5.926   0.902  0.00  0.00    +0.131 A 
ATOM     10  O   UNL     1       3.853  -5.450   0.038  0.00  0.00    -0.479 OA
ATOM     11  C   UNL     1       3.035  -4.364   0.479  0.00  0.00    +0.238 C 
ATOM     12  N   UNL     1       2.754  -5.616   3.987  0.00  0.00    -0.213 NA
ATOM     13  C   UNL     1       1.610  -5.176   4.456  0.00  0.00    +0.237 C 
ATOM     14  N   UNL     1       0.771  -4.408   3.679  0.00  0.00    -0.208 N 
ATOM     15  N   UNL     1      -0.342  -4.111   4.470  0.00  0.00    -0.251 N 
ATOM     16  C   UNL     1      -0.126  -4.703   5.678  0.00  0.00    +0.203 C 
ATOM     17  N   UNL     1       1.012  -5.323   5.659  0.00  0.00    -0.205 NA
ATOM     18  H   UNL     1      -1.116  -3.587   4.210  0.00  0.00    +0.171 HD
ENDROOT
BRANCH   1  23
ATOM     19  C   UNL     1       0.684  -0.590   0.944  0.00  0.00    +0.120 A 
ATOM     20  C   UNL     1       1.292   0.175   1.929  0.00  0.00    +0.045 A 
ATOM     21  C   UNL     1       1.855  -0.440   3.030  0.00  0.00    +0.004 A 
ATOM     22  C   UNL     1       1.814  -1.817   3.151  0.00  0.00    +0.006 A 
ATOM     23  C   UNL     1       1.210  -2.582   2.170  0.00  0.00    -0.018 A 
ATOM     24  C   UNL     1       0.640  -1.971   1.070  0.00  0.00    +0.051 A 
BRANCH  19  26
ATOM     25  C   UNL     1       0.110   1.442  -0.149  0.00  0.00    +0.277 C 
ATOM     26  O   UNL     1       0.129   0.013  -0.140  0.00  0.00    -0.495 OA
ENDBRANCH  19  26
ENDBRANCH   1  23
BRANCH  11  27
ATOM     27  C   UNL     1       3.856  -3.100   0.501  0.00  0.00    +0.039 A 
ATOM     28  C   UNL     1       4.543  -2.742   1.645  0.00  0.00    +0.011 A 
ATOM     29  C   UNL     1       5.296  -1.583   1.667  0.00  0.00    +0.001 A 
ATOM     30  C   UNL     1       5.363  -0.778   0.544  0.00  0.00    +0.004 A 
ATOM     31  C   UNL     1       4.678  -1.131  -0.602  0.00  0.00    +0.046 A 
ATOM     32  C   UNL     1       3.926  -2.298  -0.628  0.00  0.00    +0.127 A 
BRANCH  32  33
ATOM     33  O   UNL     1       3.256  -2.650  -1.756  0.00  0.00    -0.495 OA
ATOM     34  C   UNL     1       3.276  -1.720  -2.841  0.00  0.00    +0.277 C 
ENDBRANCH  32  33
ENDBRANCH  11  27
TORSDOF 4
