REMARK  Name = ZINC08442086
REMARK  4 active torsions:
REMARK  status: ('A' for Active; 'I' for Inactive)
REMARK    1  A    between atoms: C_6  and  C_7
REMARK    2  A    between atoms: C_10  and  C_21
REMARK    3  A    between atoms: C_16  and  N_20
REMARK    4  A    between atoms: C_17  and  C_18
REMARK                            x       y       z     vdW  Elec       q    Type
REMARK                         _______ _______ _______ _____ _____    ______ ____
ROOT
ATOM      1  C   UNL     1      -1.351  -0.781   0.019  0.00  0.00    +0.101 C 
ATOM      2  C   UNL     1      -1.453  -1.559  -1.268  0.00  0.00    +0.050 A 
ATOM      3  C   UNL     1      -1.685  -1.122  -2.515  0.00  0.00    +0.050 A 
ATOM      4  N   UNL     1      -1.682  -2.200  -3.334  0.00  0.00    -0.277 N 
ATOM      5  H   UNL     1      -1.823  -2.186  -4.293  0.00  0.00    +0.189 HD
ATOM      6  N   UNL     1      -1.439  -3.340  -2.553  0.00  0.00    -0.135 NA
ATOM      7  C   UNL     1      -1.302  -2.962  -1.315  0.00  0.00    +0.245 A 
ATOM      8  O   UNL     1      -1.058  -3.699  -0.198  0.00  0.00    -0.421 OA
ATOM      9  C   UNL     1      -1.231  -3.094   0.994  0.00  0.00    +0.201 C 
ATOM     10  C   UNL     1      -1.374  -1.763   1.164  0.00  0.00    +0.098 C 
ENDROOT
BRANCH   3  11
ATOM     11  C   UNL     1      -1.909   0.309  -2.930  0.00  0.00    +0.014 C 
ATOM     12  C   UNL     1      -0.624   1.111  -2.709  0.00  0.00    +0.016 C 
ATOM     13  C   UNL     1      -0.851   2.564  -3.130  0.00  0.00    -0.010 C 
ATOM     14  C   UNL     1      -1.235   2.612  -4.610  0.00  0.00    +0.007 C 
ATOM     15  C   UNL     1      -2.519   1.811  -4.830  0.00  0.00    -0.010 C 
ATOM     16  C   UNL     1      -2.293   0.358  -4.410  0.00  0.00    +0.016 C 
ATOM     17  C   UNL     1      -3.647   2.415  -3.991  0.00  0.00    +0.007 C 
ATOM     18  C   UNL     1      -3.263   2.367  -2.511  0.00  0.00    -0.010 C 
ATOM     19  C   UNL     1      -1.978   3.168  -2.291  0.00  0.00    +0.007 C 
ATOM     20  C   UNL     1      -3.036   0.913  -2.090  0.00  0.00    +0.016 C 
ENDBRANCH   3  11
BRANCH   1  26
ATOM     21  C   UNL     1      -0.056   1.311   0.473  0.00  0.00    +0.005 A 
ATOM     22  C   UNL     1       1.127   2.026   0.495  0.00  0.00    +0.015 A 
ATOM     23  C   UNL     1       2.305   1.427   0.085  0.00  0.00    +0.018 A 
ATOM     24  C   UNL     1       2.298   0.113  -0.346  0.00  0.00    +0.015 A 
ATOM     25  C   UNL     1       1.115  -0.601  -0.367  0.00  0.00    +0.005 A 
ATOM     26  C   UNL     1      -0.061  -0.002   0.043  0.00  0.00    -0.034 A 
ATOM     27 BR   UNL     1       3.923   2.405   0.114  0.00  0.00    -0.050 Br
ENDBRANCH   1  26
BRANCH   9  28
ATOM     28  N   UNL     1      -1.264  -3.888   2.114  0.00  0.00    -0.328 N 
ATOM     29  H   UNL     1      -1.164  -4.849   2.030  0.00  0.00    +0.145 HD
ATOM     30  H   UNL     1      -1.386  -3.488   2.989  0.00  0.00    +0.145 HD
ENDBRANCH   9  28
BRANCH  10  31
ATOM     31  C   UNL     1      -1.555  -1.258   2.492  0.00  0.00    +0.101 C 
ATOM     32  N   UNL     1      -1.698  -0.858   3.546  0.00  0.00    -0.191 NA
ENDBRANCH  10  31
TORSDOF 4
