REMARK  Name = ZINC08869206
REMARK  9 active torsions:
REMARK  status: ('A' for Active; 'I' for Inactive)
REMARK    1  A    between atoms: C_1  and  C_2
REMARK    2  A    between atoms: C_11  and  C_13
REMARK    3  A    between atoms: N_15  and  C_16
REMARK    4  A    between atoms: C_17  and  C_25
REMARK    5  A    between atoms: N_27  and  C_28
REMARK    6  A    between atoms: C_28  and  C_29
REMARK    7  A    between atoms: C_29  and  C_30
REMARK    8  A    between atoms: C_30  and  O_31
REMARK    9  A    between atoms: O_31  and  C_32
REMARK                            x       y       z     vdW  Elec       q    Type
REMARK                         _______ _______ _______ _____ _____    ______ ____
ROOT
ATOM      1  C   UNL     1      -2.503  -2.763   0.012  0.00  0.00    +0.085 A 
ATOM      2  C   UNL     1      -2.719  -4.135   0.001  0.00  0.00    +0.069 A 
ATOM      3  C   UNL     1      -4.095  -4.598   0.019  0.00  0.00    -0.023 A 
ATOM      4  C   UNL     1      -5.030  -3.623   0.032  0.00  0.00    -0.004 A 
ATOM      5  S   UNL     1      -4.109  -2.112   0.031  0.00  0.00    -0.077 S 
ATOM      6  C   UNL     1      -6.518  -3.799   0.045  0.00  0.00    +0.043 C 
ATOM      7  C   UNL     1      -6.837  -5.251  -0.337  0.00  0.00    +0.005 C 
ATOM      8  C   UNL     1      -5.945  -6.185   0.486  0.00  0.00    +0.005 C 
ATOM      9  C   UNL     1      -4.494  -6.069   0.016  0.00  0.00    +0.037 C 
ENDROOT
BRANCH   1  12
ATOM     10  C   UNL     1      -1.287  -0.733   0.011  0.00  0.00    +0.284 C 
ATOM     11  O   UNL     1      -2.334  -0.117   0.025  0.00  0.00    -0.266 OA
ATOM     12  N   UNL     1      -1.299  -2.081   0.004  0.00  0.00    -0.273 N 
ATOM     13  H   UNL     1      -0.463  -2.573  -0.007  0.00  0.00    +0.156 HD
BRANCH  10  24
ATOM     14  C   UNL     1       6.237   1.694  -0.050  0.00  0.00    +0.044 C 
ATOM     15  C   UNL     1       4.870   1.059  -0.040  0.00  0.00    -0.050 A 
ATOM     16  C   UNL     1       4.752  -0.324  -0.046  0.00  0.00    +0.007 A 
ATOM     17  C   UNL     1       3.512  -0.924  -0.037  0.00  0.00    +0.047 A 
ATOM     18  C   UNL     1       2.362  -0.140  -0.021  0.00  0.00    +0.139 A 
ATOM     19  C   UNL     1       2.491   1.259  -0.015  0.00  0.00    +0.064 A 
ATOM     20  C   UNL     1       3.755   1.849  -0.025  0.00  0.00    +0.018 A 
ATOM     21  C   UNL     1       1.263   2.076   0.001  0.00  0.00    +0.193 A 
ATOM     22  O   UNL     1       1.306   3.294   0.008  0.00  0.00    -0.287 OA
ATOM     23  C   UNL     1      -0.016   1.351   0.009  0.00  0.00    +0.103 A 
ATOM     24  C   UNL     1       0.002  -0.004   0.002  0.00  0.00    +0.194 A 
ATOM     25  O   UNL     1       1.142  -0.710  -0.013  0.00  0.00    -0.450 OA
ENDBRANCH  10  24
ENDBRANCH   1  12
BRANCH   2  26
ATOM     26  C   UNL     1      -1.598  -5.080  -0.023  0.00  0.00    +0.247 C 
ATOM     27  O   UNL     1      -1.120  -5.483   1.021  0.00  0.00    -0.270 OA
ATOM     28  N   UNL     1      -1.098  -5.502  -1.201  0.00  0.00    -0.311 N 
ATOM     29  H   UNL     1      -1.479  -5.181  -2.033  0.00  0.00    +0.149 HD
BRANCH  28  30
ATOM     30  C   UNL     1       0.022  -6.447  -1.225  0.00  0.00    +0.107 C 
BRANCH  30  31
ATOM     31  C   UNL     1       0.393  -6.761  -2.675  0.00  0.00    +0.047 C 
BRANCH  31  32
ATOM     32  C   UNL     1       1.563  -7.747  -2.700  0.00  0.00    +0.161 C 
BRANCH  32  33
ATOM     33  O   UNL     1       1.910  -8.041  -4.055  0.00  0.00    -0.383 OA
ATOM     34  C   UNL     1       2.997  -8.958  -4.191  0.00  0.00    +0.193 C 
ENDBRANCH  32  33
ENDBRANCH  31  32
ENDBRANCH  30  31
ENDBRANCH  28  30
ENDBRANCH   2  26
TORSDOF 7
