REMARK  Name = ZINC14996672
REMARK  6 active torsions:
REMARK  status: ('A' for Active; 'I' for Inactive)
REMARK    1  A    between atoms: C_1  and  O_2
REMARK    2  A    between atoms: O_2  and  C_3
REMARK    3  A    between atoms: C_3  and  C_4
REMARK    4  A    between atoms: N_6  and  C_7
REMARK    5  A    between atoms: C_7  and  C_8
REMARK    6  A    between atoms: C_15  and  C_18
REMARK                            x       y       z     vdW  Elec       q    Type
REMARK                         _______ _______ _______ _____ _____    ______ ____
ROOT
ATOM      1  C   UNL     1      -0.608  -3.476   2.851  0.00  0.00    +0.195 C 
ATOM      2  C   UNL     1      -0.434  -4.761   2.006  0.00  0.00    +0.085 C 
ATOM      3  C   UNL     1       0.469  -4.279   0.886  0.00  0.00    -0.000 A 
ATOM      4  C   UNL     1       1.228  -4.956  -0.044  0.00  0.00    +0.027 A 
ATOM      5  C   UNL     1       1.985  -4.256  -0.969  0.00  0.00    +0.042 A 
ATOM      6  C   UNL     1       1.981  -2.874  -0.957  0.00  0.00    +0.032 A 
ATOM      7  C   UNL     1       1.216  -2.185  -0.023  0.00  0.00    +0.025 A 
ATOM      8  C   UNL     1       0.448  -2.893   0.915  0.00  0.00    +0.132 A 
ATOM      9  O   UNL     1      -0.383  -2.431   1.889  0.00  0.00    -0.486 OA
ATOM     10 CL   UNL     1       2.938  -5.113  -2.140  0.00  0.00    -0.084 Cl
ENDROOT
BRANCH   7  11
ATOM     11  C   UNL     1       1.215  -0.702  -0.014  0.00  0.00    -0.014 A 
ATOM     12  C   UNL     1       0.002  -0.004   0.002  0.00  0.00    +0.010 A 
ATOM     13  C   UNL     1      -0.016   1.361   0.009  0.00  0.00    +0.027 A 
ATOM     14  C   UNL     1       1.177   2.077   0.002  0.00  0.00    +0.046 A 
ATOM     15  C   UNL     1       2.403   1.387  -0.014  0.00  0.00    +0.000 A 
ATOM     16  C   UNL     1       2.417  -0.008  -0.022  0.00  0.00    +0.018 A 
ATOM     17  C   UNL     1       3.447   2.414  -0.018  0.00  0.00    +0.027 A 
ATOM     18  C   UNL     1       2.826   3.604  -0.005  0.00  0.00    +0.083 A 
ATOM     19  N   UNL     1       1.470   3.423   0.007  0.00  0.00    -0.361 N 
ATOM     20  H   UNL     1       0.813   4.136   0.018  0.00  0.00    +0.165 HD
ENDBRANCH   7  11
BRANCH   1  21
ATOM     21  C   UNL     1      -2.025  -3.391   3.422  0.00  0.00    +0.149 C 
BRANCH  21  24
ATOM     22  C   UNL     1      -3.329  -1.879   4.819  0.00  0.00    +0.239 C 
ATOM     23  O   UNL     1      -4.271  -2.635   4.706  0.00  0.00    -0.273 OA
ATOM     24  N   UNL     1      -2.159  -2.167   4.216  0.00  0.00    -0.310 N 
ATOM     25  H   UNL     1      -1.405  -1.562   4.306  0.00  0.00    +0.149 HD
BRANCH  22  26
ATOM     26  C   UNL     1      -3.467  -0.620   5.635  0.00  0.00    +0.255 C 
BRANCH  26  28
ATOM     27  C   UNL     1      -5.027   0.624   6.963  0.00  0.00    +0.194 C 
ATOM     28  O   UNL     1      -4.790  -0.540   6.169  0.00  0.00    -0.374 OA
ENDBRANCH  26  28
ENDBRANCH  22  26
ENDBRANCH  21  24
ENDBRANCH   1  21
TORSDOF 5
