REMARK  Name = ZINC39125253
REMARK  20 active torsions:
REMARK  status: ('A' for Active; 'I' for Inactive)
REMARK    1  A    between atoms: C_1  and  C_2
REMARK    2  A    between atoms: C_2  and  C_3
REMARK    3  A    between atoms: C_3  and  N_4
REMARK    4  A    between atoms: C_5  and  N_37
REMARK    5  A    between atoms: C_6  and  N_15
REMARK    6  A    between atoms: N_9  and  C_12
REMARK    7  A    between atoms: C_12  and  C_13
REMARK    8  A    between atoms: C_13  and  C_14
REMARK    9  A    between atoms: C_16  and  C_18
REMARK   10  A    between atoms: C_18  and  C_20
REMARK   11  A    between atoms: C_18  and  C_21
REMARK   12  A    between atoms: C_21  and  C_22
REMARK   13  A    between atoms: C_25  and  O_28
REMARK   14  A    between atoms: O_28  and  C_29
REMARK   15  A    between atoms: C_29  and  C_30
REMARK   16  A    between atoms: C_30  and  O_32
REMARK   17  A    between atoms: O_32  and  C_33
REMARK   18  A    between atoms: C_33  and  C_34
REMARK   19  A    between atoms: C_33  and  C_35
REMARK   20  A    between atoms: C_33  and  C_36
REMARK                            x       y       z     vdW  Elec       q    Type
REMARK                         _______ _______ _______ _____ _____    ______ ____
ROOT
ATOM      1  N   UNL     1      -1.387  -4.779  -2.398  0.00  0.00    -0.278 N 
ATOM      2  C   UNL     1      -1.267  -6.122  -2.381  0.00  0.00    +0.221 C 
ATOM      3  O   UNL     1      -1.254  -6.717  -1.323  0.00  0.00    -0.275 OA
ATOM      4  H   UNL     1      -1.467  -4.309  -3.243  0.00  0.00    +0.155 HD
ENDROOT
BRANCH   1   7
ATOM      5  N   UNL     1      -0.479  -2.403   0.255  0.00  0.00    -0.280 N 
ATOM      6  C   UNL     1      -0.443  -3.092  -0.936  0.00  0.00    +0.127 A 
ATOM      7  C   UNL     1      -1.398  -4.056  -1.186  0.00  0.00    +0.137 A 
ATOM      8  C   UNL     1      -2.382  -4.306  -0.211  0.00  0.00    +0.280 A 
ATOM      9  O   UNL     1      -3.237  -5.153  -0.406  0.00  0.00    -0.265 OA
ATOM     10  N   UNL     1      -2.373  -3.603   0.938  0.00  0.00    -0.259 N 
ATOM     11  C   UNL     1      -1.431  -2.671   1.167  0.00  0.00    +0.333 A 
ATOM     12  O   UNL     1      -1.443  -2.055   2.215  0.00  0.00    -0.246 OA
BRANCH   6  13
ATOM     13  N   UNL     1       0.533  -2.822  -1.865  0.00  0.00    -0.343 N 
ATOM     14  H   UNL     1       1.201  -2.142  -1.684  0.00  0.00    +0.144 HD
ATOM     15  H   UNL     1       0.553  -3.310  -2.703  0.00  0.00    +0.144 HD
ENDBRANCH   6  13
BRANCH   5  16
ATOM     16  C   UNL     1       0.528  -1.377   0.533  0.00  0.00    +0.128 C 
BRANCH  16  18
ATOM     17  C   UNL     1       2.784  -0.947   1.518  0.00  0.00    +0.005 C 
ATOM     18  C   UNL     1       1.732  -2.019   1.227  0.00  0.00    +0.018 C 
ENDBRANCH  16  18
ENDBRANCH   5  16
BRANCH  10  19
ATOM     19  C   UNL     1      -3.397  -3.862   1.953  0.00  0.00    +0.130 C 
BRANCH  19  20
ATOM     20  C   UNL     1      -2.904  -4.950   2.909  0.00  0.00    +0.018 C 
ATOM     21  C   UNL     1      -3.974  -5.221   3.969  0.00  0.00    +0.005 C 
ENDBRANCH  19  20
ENDBRANCH  10  19
ENDBRANCH   1   7
BRANCH   2  22
ATOM     22  C   UNL     1      -1.150  -6.885  -3.675  0.00  0.00    +0.076 C 
ATOM     23  C   UNL     1      -2.395  -6.636  -4.529  0.00  0.00    +0.017 C 
BRANCH  22  24
ATOM     24  C   UNL     1      -1.027  -8.380  -3.377  0.00  0.00    +0.047 C 
BRANCH  24  25
ATOM     25  C   UNL     1      -0.786  -9.131  -4.662  0.00  0.00    -0.046 A 
ATOM     26  C   UNL     1      -1.859  -9.596  -5.400  0.00  0.00    +0.007 A 
ATOM     27  C   UNL     1      -1.641 -10.284  -6.578  0.00  0.00    +0.046 A 
ATOM     28  C   UNL     1      -0.345 -10.508  -7.020  0.00  0.00    +0.121 A 
ATOM     29  C   UNL     1       0.729 -10.040  -6.278  0.00  0.00    +0.046 A 
ATOM     30  C   UNL     1       0.506  -9.347  -5.103  0.00  0.00    +0.007 A 
BRANCH  28  31
ATOM     31  O   UNL     1      -0.129 -11.185  -8.178  0.00  0.00    -0.481 OA
BRANCH  31  32
ATOM     32  C   UNL     1       1.231 -11.379  -8.572  0.00  0.00    +0.349 C 
BRANCH  32  33
ATOM     33  C   UNL     1       1.274 -12.144  -9.870  0.00  0.00    +0.346 C 
ATOM     34  O   UNL     1       0.246 -12.488 -10.403  0.00  0.00    -0.247 OA
BRANCH  33  35
ATOM     35  O   UNL     1       2.455 -12.443 -10.434  0.00  0.00    -0.457 OA
BRANCH  35  36
ATOM     36  C   UNL     1       2.422 -13.169 -11.664  0.00  0.00    +0.105 C 
ATOM     37  C   UNL     1       1.658 -12.360 -12.713  0.00  0.00    +0.055 C 
ATOM     38  C   UNL     1       3.851 -13.415 -12.150  0.00  0.00    +0.055 C 
ATOM     39  C   UNL     1       1.720 -14.511 -11.444  0.00  0.00    +0.055 C 
ENDBRANCH  35  36
ENDBRANCH  33  35
ENDBRANCH  32  33
ENDBRANCH  31  32
ENDBRANCH  28  31
ENDBRANCH  24  25
ENDBRANCH  22  24
ENDBRANCH   2  22
TORSDOF 14
