REMARK  Name = ZINC58139563
REMARK  5 active torsions:
REMARK  status: ('A' for Active; 'I' for Inactive)
REMARK    1  A    between atoms: C_3  and  S_23
REMARK    2  A    between atoms: C_6  and  C_7
REMARK    3  A    between atoms: N_9  and  N_10
REMARK    4  A    between atoms: C_11  and  C_13
REMARK    5  A    between atoms: S_23  and  N_26
REMARK                            x       y       z     vdW  Elec       q    Type
REMARK                         _______ _______ _______ _____ _____    ______ ____
ROOT
ATOM      1  C   UNL     1      -1.266  -0.764   0.011  0.00  0.00    +0.260 C 
ATOM      2  O   UNL     1      -2.329  -0.173   0.024  0.00  0.00    -0.269 OA
ATOM      3  N   UNL     1      -1.244  -2.111   0.003  0.00  0.00    -0.230 N 
ATOM      4  H   UNL     1      -0.397  -2.583  -0.008  0.00  0.00    +0.173 HD
ENDROOT
BRANCH   1  10
ATOM      5  C   UNL     1      -0.017   1.391   0.010  0.00  0.00    +0.015 A 
ATOM      6  C   UNL     1       1.170   2.095   0.002  0.00  0.00    +0.029 A 
ATOM      7  C   UNL     1       2.378   1.419  -0.013  0.00  0.00    +0.105 A 
ATOM      8  C   UNL     1       2.403   0.036  -0.021  0.00  0.00    +0.029 A 
ATOM      9  C   UNL     1       1.224  -0.679  -0.014  0.00  0.00    +0.015 A 
ATOM     10  C   UNL     1       0.002  -0.004   0.002  0.00  0.00    +0.038 A 
BRANCH   7  11
ATOM     11  S   UNL     1       3.889   2.325  -0.023  0.00  0.00    +0.056 S 
ATOM     12  O   UNL     1       4.872   1.468  -0.588  0.00  0.00    -0.153 OA
ATOM     13  O   UNL     1       3.592   3.604  -0.565  0.00  0.00    -0.153 OA
BRANCH  11  14
ATOM     14  N   UNL     1       4.324   2.568   1.556  0.00  0.00    -0.204 NA
ATOM     15  H   UNL     1       3.766   2.226   2.271  0.00  0.00    +0.144 HD
ATOM     16  H   UNL     1       5.138   3.053   1.765  0.00  0.00    +0.144 HD
ENDBRANCH  11  14
ENDBRANCH   7  11
ENDBRANCH   1  10
BRANCH   3  17
ATOM     17  N   UNL     1      -2.446  -2.831   0.011  0.00  0.00    -0.230 N 
ATOM     18  C   UNL     1      -2.425  -4.179   0.004  0.00  0.00    +0.267 C 
ATOM     19  O   UNL     1      -1.361  -4.770  -0.010  0.00  0.00    -0.268 OA
ATOM     20  H   UNL     1      -3.294  -2.360   0.022  0.00  0.00    +0.173 HD
BRANCH  18  21
ATOM     21  C   UNL     1      -3.682  -4.932   0.012  0.00  0.00    +0.076 A 
ATOM     22  C   UNL     1      -3.879  -6.299   0.012  0.00  0.00    +0.024 A 
ATOM     23  C   UNL     1      -5.197  -6.747   0.020  0.00  0.00    -0.036 A 
ATOM     24  C   UNL     1      -6.163  -5.791   0.025  0.00  0.00    -0.006 A 
ATOM     25  S   UNL     1      -5.357  -4.324   0.033  0.00  0.00    -0.088 S 
ATOM     26  C   UNL     1      -7.650  -5.987   0.026  0.00  0.00    +0.043 C 
ATOM     27  C   UNL     1      -7.990  -7.314   0.713  0.00  0.00    +0.005 C 
ATOM     28  C   UNL     1      -7.991  -8.420  -0.338  0.00  0.00    +0.001 C 
ATOM     29  C   UNL     1      -6.615  -8.544  -0.988  0.00  0.00    +0.005 C 
ATOM     30  C   UNL     1      -5.518  -8.239   0.026  0.00  0.00    +0.036 C 
ENDBRANCH  18  21
ENDBRANCH   3  17
TORSDOF 5
