REMARK  Name = ZINC16807941
REMARK  10 active torsions:
REMARK  status: ('A' for Active; 'I' for Inactive)
REMARK    1  A    between atoms: C_1  and  C_2
REMARK    2  A    between atoms: C_2  and  O_3
REMARK    3  A    between atoms: O_3  and  C_4
REMARK    4  A    between atoms: C_7  and  C_10
REMARK    5  A    between atoms: C_13  and  S_27
REMARK    6  A    between atoms: N_14  and  N_15
REMARK    7  A    between atoms: N_15  and  N_16
REMARK    8  A    between atoms: C_17  and  C_18
REMARK    9  A    between atoms: C_21  and  O_25
REMARK   10  A    between atoms: O_25  and  C_26
REMARK                            x       y       z     vdW  Elec       q    Type
REMARK                         _______ _______ _______ _____ _____    ______ ____
ROOT
ATOM      1  C   UNL     1       2.465   5.565  -0.366  0.00  0.00    +0.183 A 
ATOM      2  N   UNL     1       3.761   5.770  -0.385  0.00  0.00    -0.127 NA
ATOM      3  N   UNL     1       4.374   4.749   0.100  0.00  0.00    -0.121 NA
ATOM      4  C   UNL     1       3.506   3.832   0.463  0.00  0.00    +0.207 A 
ATOM      5  N   UNL     1       2.261   4.316   0.174  0.00  0.00    -0.201 N 
ENDROOT
BRANCH   1   9
ATOM      6  C   UNL     1      -0.536   8.251  -1.720  0.00  0.00    +0.121 A 
ATOM      7  C   UNL     1       0.734   8.726  -1.419  0.00  0.00    +0.046 A 
ATOM      8  C   UNL     1       1.710   7.858  -0.980  0.00  0.00    +0.015 A 
ATOM      9  C   UNL     1       1.421   6.499  -0.837  0.00  0.00    +0.021 A 
ATOM     10  C   UNL     1       0.145   6.025  -1.145  0.00  0.00    +0.015 A 
ATOM     11  C   UNL     1      -0.828   6.901  -1.580  0.00  0.00    +0.046 A 
BRANCH   6  12
ATOM     12  O   UNL     1      -1.496   9.110  -2.153  0.00  0.00    -0.492 OA
BRANCH  12  14
ATOM     13  C   UNL     1      -3.721   9.666  -2.914  0.00  0.00    +0.048 C 
ATOM     14  C   UNL     1      -2.780   8.555  -2.444  0.00  0.00    +0.225 C 
ENDBRANCH  12  14
ENDBRANCH   6  12
ENDBRANCH   1   9
BRANCH   5  15
ATOM     15  N   UNL     1       1.034   3.677   0.389  0.00  0.00    -0.170 N 
ATOM     16  H   UNL     1       0.210   4.189   0.372  0.00  0.00    +0.196 HD
BRANCH  15  17
ATOM     17  N   UNL     1       0.995   2.297   0.629  0.00  0.00    -0.175 NA
ATOM     18  C   UNL     1      -0.142   1.705   0.828  0.00  0.00    +0.139 C 
BRANCH  18  19
ATOM     19  C   UNL     1      -0.183   0.252   1.081  0.00  0.00    -0.004 A 
ATOM     20  C   UNL     1       1.002  -0.489   1.100  0.00  0.00    +0.013 A 
ATOM     21  C   UNL     1       0.960  -1.845   1.342  0.00  0.00    +0.047 A 
ATOM     22  C   UNL     1      -0.258  -2.478   1.556  0.00  0.00    +0.134 A 
ATOM     23  C   UNL     1      -1.439  -1.746   1.532  0.00  0.00    +0.060 A 
ATOM     24  C   UNL     1      -1.406  -0.388   1.296  0.00  0.00    +0.028 A 
ATOM     25 BR   UNL     1      -3.094  -2.614   1.822  0.00  0.00    -0.046 Br
BRANCH  22  26
ATOM     26  O   UNL     1      -0.295  -3.816   1.788  0.00  0.00    -0.494 OA
ATOM     27  C   UNL     1       0.956  -4.507   1.799  0.00  0.00    +0.277 C 
ENDBRANCH  22  26
ENDBRANCH  18  19
ENDBRANCH  15  17
ENDBRANCH   5  15
BRANCH   4  28
ATOM     28  S   UNL     1       3.878   2.268   1.183  0.00  0.00    -0.102 S 
ATOM     29  H   UNL     1       4.003   1.485   0.017  0.00  0.00    +0.110 HD
ENDBRANCH   4  28
TORSDOF 8
