REMARK  Name = ZINC44877081
REMARK  9 active torsions:
REMARK  status: ('A' for Active; 'I' for Inactive)
REMARK    1  A    between atoms: C_1  and  C_2
REMARK    2  A    between atoms: C_2  and  C_3
REMARK    3  A    between atoms: C_3  and  C_4
REMARK    4  A    between atoms: C_4  and  C_6
REMARK    5  A    between atoms: C_4  and  C_10
REMARK    6  A    between atoms: N_7  and  O_8
REMARK    7  A    between atoms: N_12  and  C_13
REMARK    8  A    between atoms: C_13  and  C_15
REMARK    9  A    between atoms: C_13  and  C_16
REMARK                            x       y       z     vdW  Elec       q    Type
REMARK                         _______ _______ _______ _____ _____    ______ ____
ROOT
ATOM      1  C   UNL     1      -2.822  -2.584  -0.109  0.00  0.00    +0.224 C 
ATOM      2  O   UNL     1      -3.279  -3.293   0.763  0.00  0.00    -0.275 OA
ATOM      3  N   UNL     1      -3.575  -2.263  -1.179  0.00  0.00    -0.308 N 
ATOM      4  H   UNL     1      -3.210  -1.696  -1.877  0.00  0.00    +0.149 HD
ENDROOT
BRANCH   3   5
ATOM      5  C   UNL     1      -4.946  -2.769  -1.289  0.00  0.00    +0.100 C 
ATOM      6  C   UNL     1      -5.895  -1.842  -0.527  0.00  0.00    +0.033 C 
BRANCH   5   7
ATOM      7  C   UNL     1      -5.348  -2.818  -2.741  0.00  0.00    -0.026 A 
ATOM      8  C   UNL     1      -4.975  -1.798  -3.596  0.00  0.00    +0.005 A 
ATOM      9  C   UNL     1      -5.344  -1.841  -4.927  0.00  0.00    +0.001 A 
ATOM     10  C   UNL     1      -6.087  -2.905  -5.404  0.00  0.00    +0.015 A 
ATOM     11  C   UNL     1      -6.460  -3.926  -4.549  0.00  0.00    +0.018 A 
ATOM     12  C   UNL     1      -6.086  -3.884  -3.218  0.00  0.00    +0.020 A 
ATOM     13 BR   UNL     1      -7.477  -5.381  -5.201  0.00  0.00    -0.050 Br
ENDBRANCH   5   7
ENDBRANCH   3   5
BRANCH   1  14
ATOM     14  C   UNL     1      -1.413  -2.063   0.004  0.00  0.00    +0.141 C 
BRANCH  14  15
ATOM     15  C   UNL     1      -0.793  -2.564   1.284  0.00  0.00    +0.144 C 
ATOM     16  N   UNL     1      -0.821  -1.830   2.346  0.00  0.00    -0.076 NA
ATOM     17  N   UNL     1      -0.197  -3.805   1.320  0.00  0.00    -0.343 N 
ATOM     18  H   UNL     1      -0.176  -4.357   0.522  0.00  0.00    +0.144 HD
ATOM     19  H   UNL     1       0.202  -4.128   2.143  0.00  0.00    +0.144 HD
BRANCH  16  20
ATOM     20  O   UNL     1      -0.239  -2.301   3.548  0.00  0.00    -0.408 OA
ATOM     21  H   UNL     1      -0.309  -1.682   4.288  0.00  0.00    +0.328 HD
ENDBRANCH  16  20
ENDBRANCH  14  15
BRANCH  14  22
ATOM     22  C   UNL     1      -1.433  -0.534   0.013  0.00  0.00    +0.020 C 
BRANCH  22  24
ATOM     23  C   UNL     1      -0.019   1.526   0.010  0.00  0.00    +0.004 C 
ATOM     24  C   UNL     1       0.002  -0.004   0.002  0.00  0.00    -0.002 C 
ENDBRANCH  22  24
ENDBRANCH  14  22
ENDBRANCH   1  14
TORSDOF 7
