REMARK  Name = ZINC19891988
REMARK  16 active torsions:
REMARK  status: ('A' for Active; 'I' for Inactive)
REMARK    1  A    between atoms: C_1  and  C_2
REMARK    2  A    between atoms: C_2  and  C_3
REMARK    3  A    between atoms: C_2  and  C_4
REMARK    4  A    between atoms: C_4  and  C_5
REMARK    5  A    between atoms: C_5  and  C_7
REMARK    6  A    between atoms: C_5  and  N_11
REMARK    7  A    between atoms: C_7  and  O_9
REMARK    8  A    between atoms: O_9  and  C_10
REMARK    9  A    between atoms: C_12  and  C_14
REMARK   10  A    between atoms: C_14  and  C_16
REMARK   11  A    between atoms: C_14  and  N_24
REMARK   12  A    between atoms: C_16  and  C_17
REMARK   13  A    between atoms: C_20  and  O_23
REMARK   14  A    between atoms: C_25  and  O_27
REMARK   15  A    between atoms: O_27  and  C_28
REMARK   16  A    between atoms: C_28  and  C_29
REMARK                            x       y       z     vdW  Elec       q    Type
REMARK                         _______ _______ _______ _____ _____    ______ ____
ROOT
ATOM      1  C   UNL     1      -0.172   1.201   4.824  0.00  0.00    +0.166 C 
ENDROOT
BRANCH   1   3
ATOM      2  N   UNL     1      -0.950   0.884   7.151  0.00  0.00    -0.301 N 
ATOM      3  C   UNL     1      -1.249   1.214   5.878  0.00  0.00    +0.234 C 
ATOM      4  O   UNL     1      -2.384   1.520   5.582  0.00  0.00    -0.274 OA
ATOM      5  H   UNL     1       0.079   0.605   7.419  0.00  0.00    +0.150 HD
BRANCH   2   6
ATOM      6  C   UNL     1      -1.997   0.896   8.175  0.00  0.00    +0.182 C 
BRANCH   6   7
ATOM      7  C   UNL     1      -2.731  -0.420   8.159  0.00  0.00    +0.327 C 
ATOM      8  O   UNL     1      -2.413  -1.280   7.372  0.00  0.00    -0.249 OA
BRANCH   7   9
ATOM      9  O   UNL     1      -3.739  -0.637   9.019  0.00  0.00    -0.467 OA
ATOM     10  C   UNL     1      -4.401  -1.928   8.946  0.00  0.00    +0.280 C 
ENDBRANCH   7   9
ENDBRANCH   6   7
BRANCH   6  11
ATOM     11  C   UNL     1      -1.361   1.108   9.551  0.00  0.00    +0.036 C 
BRANCH  11  13
ATOM     12  C   UNL     1      -1.813   3.565   9.497  0.00  0.00    +0.007 C 
ATOM     13  C   UNL     1      -0.723   2.497   9.609  0.00  0.00    -0.015 C 
ATOM     14  C   UNL     1       0.019   2.662  10.936  0.00  0.00    +0.007 C 
ENDBRANCH  11  13
ENDBRANCH   6  11
ENDBRANCH   2   6
ENDBRANCH   1   3
BRANCH   1  15
ATOM     15  N   UNL     1      -0.747   1.594   3.535  0.00  0.00    -0.269 N 
ATOM     16  C   UNL     1      -0.165   1.193   2.387  0.00  0.00    +0.401 C 
ATOM     17  O   UNL     1       0.837   0.505   2.422  0.00  0.00    -0.226 OA
ATOM     18  H   UNL     1      -1.653   2.217   3.503  0.00  0.00    +0.153 HD
BRANCH  16  19
ATOM     19  O   UNL     1      -0.692   1.554   1.203  0.00  0.00    -0.446 OA
BRANCH  19  20
ATOM     20  C   UNL     1      -0.013   1.086   0.008  0.00  0.00    +0.269 C 
BRANCH  20  21
ATOM     21  C   UNL     1      -0.742   1.585  -1.213  0.00  0.00    -0.010 A 
ATOM     22  C   UNL     1      -1.750   0.825  -1.775  0.00  0.00    +0.007 A 
ATOM     23  C   UNL     1      -2.422   1.285  -2.892  0.00  0.00    +0.000 A 
ATOM     24  C   UNL     1      -2.079   2.501  -3.453  0.00  0.00    +0.000 A 
ATOM     25  C   UNL     1      -1.066   3.259  -2.894  0.00  0.00    +0.000 A 
ATOM     26  C   UNL     1      -0.398   2.801  -1.774  0.00  0.00    +0.007 A 
ENDBRANCH  20  21
ENDBRANCH  19  20
ENDBRANCH  16  19
ENDBRANCH   1  15
BRANCH   1  27
ATOM     27  C   UNL     1       0.932   2.186   5.212  0.00  0.00    +0.067 C 
BRANCH  27  28
ATOM     28  C   UNL     1       2.065   2.085   4.223  0.00  0.00    -0.045 A 
ATOM     29  C   UNL     1       3.102   1.199   4.450  0.00  0.00    +0.007 A 
ATOM     30  C   UNL     1       4.139   1.100   3.542  0.00  0.00    +0.045 A 
ATOM     31  C   UNL     1       4.145   1.899   2.408  0.00  0.00    +0.117 A 
ATOM     32  C   UNL     1       3.106   2.792   2.186  0.00  0.00    +0.045 A 
ATOM     33  C   UNL     1       2.069   2.882   3.094  0.00  0.00    +0.007 A 
BRANCH  31  34
ATOM     34  O   UNL     1       5.166   1.808   1.516  0.00  0.00    -0.507 OA
ATOM     35  H   UNL     1       5.170   2.442   0.618  0.00  0.00    +0.292 HD
ENDBRANCH  31  34
ENDBRANCH  27  28
ENDBRANCH   1  27
TORSDOF 13
