REMARK  Name = ZINC06015268
REMARK  8 active torsions:
REMARK  status: ('A' for Active; 'I' for Inactive)
REMARK    1  A    between atoms: C_1  and  C_2
REMARK    2  A    between atoms: C_3  and  C_25
REMARK    3  A    between atoms: C_4  and  C_20
REMARK    4  A    between atoms: C_6  and  C_18
REMARK    5  A    between atoms: C_7  and  S_9
REMARK    6  A    between atoms: S_9  and  C_10
REMARK    7  A    between atoms: C_10  and  C_11
REMARK    8  A    between atoms: N_27  and  C_28
REMARK                            x       y       z     vdW  Elec       q    Type
REMARK                         _______ _______ _______ _____ _____    ______ ____
ROOT
ATOM      1  C   UNL     1       5.148   2.841  -2.474  0.00  0.00    +0.061 C 
ATOM      2  C   UNL     1       4.376   2.537  -1.216  0.00  0.00    +0.014 C 
ATOM      3  C   UNL     1       3.371   1.647  -1.256  0.00  0.00    +0.044 C 
ATOM      4  C   UNL     1       2.563   1.314  -0.035  0.00  0.00    +0.105 C 
ATOM      5  C   UNL     1       3.265   1.771   1.212  0.00  0.00    +0.069 C 
ATOM      6  C   UNL     1       4.288   2.666   1.159  0.00  0.00    +0.080 C 
ATOM      7  N   UNL     1       4.711   3.171  -0.051  0.00  0.00    -0.312 N 
ATOM      8  H   UNL     1       5.320   4.086  -0.078  0.00  0.00    +0.152 HD
ENDROOT
BRANCH   4   9
ATOM      9  C   UNL     1       1.222   1.994  -0.127  0.00  0.00    +0.002 A 
ATOM     10  C   UNL     1      -0.015   1.442  -0.165  0.00  0.00    +0.012 A 
ATOM     11  C   UNL     1      -1.117   2.271  -0.256  0.00  0.00    +0.008 A 
ATOM     12  C   UNL     1      -0.929   3.613  -0.294  0.00  0.00    +0.045 A 
ATOM     13  S   UNL     1       0.850   3.739  -0.213  0.00  0.00    -0.101 S 
ENDBRANCH   4   9
BRANCH   3  14
ATOM     14  C   UNL     1       3.065   1.008  -2.481  0.00  0.00    +0.247 C 
ATOM     15  O   UNL     1       3.710   1.267  -3.481  0.00  0.00    -0.270 OA
ATOM     16  N   UNL     1       2.059   0.113  -2.541  0.00  0.00    -0.282 N 
ATOM     17  H   UNL     1       1.534  -0.186  -1.622  0.00  0.00    +0.155 HD
BRANCH  16  18
ATOM     18  C   UNL     1       1.684  -0.437  -3.771  0.00  0.00    +0.034 A 
ATOM     19  C   UNL     1       1.772   0.325  -4.929  0.00  0.00    +0.023 A 
ATOM     20  C   UNL     1       1.406  -0.222  -6.143  0.00  0.00    +0.002 A 
ATOM     21  C   UNL     1       0.942  -1.523  -6.205  0.00  0.00    +0.000 A 
ATOM     22  C   UNL     1       0.848  -2.283  -5.053  0.00  0.00    +0.002 A 
ATOM     23  C   UNL     1       1.218  -1.743  -3.837  0.00  0.00    +0.023 A 
ENDBRANCH  16  18
ENDBRANCH   3  14
BRANCH   5  24
ATOM     24  C   UNL     1       2.850   1.254   2.482  0.00  0.00    +0.098 C 
ATOM     25  N   UNL     1       2.521   0.844   3.489  0.00  0.00    -0.191 NA
ENDBRANCH   5  24
BRANCH   6  26
ATOM     26  S   UNL     1       5.076   3.184   2.647  0.00  0.00    -0.104 S 
BRANCH  26  27
ATOM     27  C   UNL     1       6.304   4.328   1.970  0.00  0.00    +0.110 C 
BRANCH  27  28
ATOM     28  C   UNL     1       7.121   4.912   3.095  0.00  0.00    -0.037 A 
ATOM     29  C   UNL     1       6.715   6.082   3.708  0.00  0.00    +0.007 A 
ATOM     30  C   UNL     1       7.460   6.616   4.742  0.00  0.00    +0.038 A 
ATOM     31  C   UNL     1       8.619   5.982   5.158  0.00  0.00    +0.123 A 
ATOM     32  C   UNL     1       9.027   4.813   4.540  0.00  0.00    +0.038 A 
ATOM     33  C   UNL     1       8.278   4.279   3.509  0.00  0.00    +0.007 A 
ATOM     34  F   UNL     1       9.351   6.505   6.166  0.00  0.00    -0.205 F 
ENDBRANCH  27  28
ENDBRANCH  26  27
ENDBRANCH   6  26
TORSDOF 7
