REMARK  Name = ZINC19940914
REMARK  9 active torsions:
REMARK  status: ('A' for Active; 'I' for Inactive)
REMARK    1  A    between atoms: C_1  and  C_2
REMARK    2  A    between atoms: C_5  and  C_41
REMARK    3  A    between atoms: C_9  and  C_14
REMARK    4  A    between atoms: C_14  and  C_16
REMARK    5  A    between atoms: C_14  and  N_28
REMARK    6  A    between atoms: N_20  and  C_21
REMARK    7  A    between atoms: C_21  and  C_22
REMARK    8  A    between atoms: N_31  and  C_34
REMARK    9  A    between atoms: C_34  and  C_35
REMARK                            x       y       z     vdW  Elec       q    Type
REMARK                         _______ _______ _______ _____ _____    ______ ____
ROOT
ATOM      1  C   UNL     1       2.849   4.724   1.887  0.00  0.00    +0.162 C 
ENDROOT
BRANCH   1  10
ATOM      2  C   UNL     1       6.688   5.903  -1.428  0.00  0.00    +0.044 C 
ATOM      3  C   UNL     1       6.277   7.182  -0.745  0.00  0.00    -0.041 A 
ATOM      4  C   UNL     1       6.902   8.357  -1.056  0.00  0.00    +0.004 A 
ATOM      5  C   UNL     1       6.531   9.541  -0.433  0.00  0.00    +0.005 A 
ATOM      6  C   UNL     1       5.526   9.554   0.510  0.00  0.00    -0.026 A 
ATOM      7  C   UNL     1       4.875   8.371   0.842  0.00  0.00    +0.052 A 
ATOM      8  C   UNL     1       5.255   7.172   0.209  0.00  0.00    +0.002 A 
ATOM      9  C   UNL     1       4.564   5.931   0.565  0.00  0.00    +0.021 A 
ATOM     10  C   UNL     1       3.580   5.983   1.497  0.00  0.00    +0.042 A 
ATOM     11  C   UNL     1       3.234   7.212   2.098  0.00  0.00    +0.254 A 
ATOM     12  O   UNL     1       2.343   7.236   2.930  0.00  0.00    -0.268 OA
ATOM     13  N   UNL     1       3.866   8.355   1.782  0.00  0.00    -0.322 N 
ATOM     14  H   UNL     1       3.568   9.287   2.284  0.00  0.00    +0.169 HD
ATOM     15  C   UNL     1       5.133  10.847   1.178  0.00  0.00    +0.046 C 
ENDBRANCH   1  10
BRANCH   1  16
ATOM     16  N   UNL     1       2.931   4.541   3.342  0.00  0.00    -0.286 NA
ATOM     17  C   UNL     1       4.330   4.519   3.791  0.00  0.00    +0.101 C 
ATOM     18  C   UNL     1       4.371   4.406   5.317  0.00  0.00    +0.100 C 
ATOM     19  N   UNL     1       3.668   3.185   5.735  0.00  0.00    -0.296 NA
ATOM     20  C   UNL     1       2.269   3.207   5.285  0.00  0.00    +0.100 C 
ATOM     21  C   UNL     1       2.228   3.320   3.760  0.00  0.00    +0.101 C 
BRANCH  19  22
ATOM     22  C   UNL     1       3.750   3.002   7.190  0.00  0.00    +0.119 C 
BRANCH  22  23
ATOM     23  C   UNL     1       5.181   2.739   7.583  0.00  0.00    -0.033 A 
ATOM     24  C   UNL     1       5.658   1.443   7.630  0.00  0.00    +0.005 A 
ATOM     25  C   UNL     1       6.972   1.202   7.985  0.00  0.00    +0.000 A 
ATOM     26  C   UNL     1       7.807   2.257   8.304  0.00  0.00    +0.000 A 
ATOM     27  C   UNL     1       7.328   3.554   8.262  0.00  0.00    +0.000 A 
ATOM     28  C   UNL     1       6.016   3.795   7.901  0.00  0.00    +0.005 A 
ENDBRANCH  22  23
ENDBRANCH  19  22
ENDBRANCH   1  16
BRANCH   1  29
ATOM     29  C   UNL     1       1.403   4.835   1.476  0.00  0.00    +0.173 A 
ATOM     30  N   UNL     1       0.475   5.550   2.063  0.00  0.00    -0.111 NA
ATOM     31  N   UNL     1      -0.626   5.381   1.416  0.00  0.00    -0.023 NA
ATOM     32  N   UNL     1      -0.424   4.581   0.428  0.00  0.00    -0.044 NA
ATOM     33  N   UNL     1       0.814   4.218   0.434  0.00  0.00    -0.225 N 
BRANCH  33  34
ATOM     34  C   UNL     1       1.459   3.310  -0.517  0.00  0.00    +0.179 C 
BRANCH  34  35
ATOM     35  C   UNL     1       1.358   1.873  -0.001  0.00  0.00    +0.140 C 
ATOM     36  C   UNL     1       2.044   0.890  -0.983  0.00  0.00    +0.035 C 
ATOM     37  C   UNL     1       1.318  -0.441  -0.670  0.00  0.00    +0.031 C 
ATOM     38  C   UNL     1       0.002  -0.004   0.002  0.00  0.00    +0.160 C 
ATOM     39  O   UNL     1      -0.017   1.433   0.010  0.00  0.00    -0.375 OA
ENDBRANCH  34  35
ENDBRANCH  33  34
ENDBRANCH   1  29
TORSDOF 7
