REMARK  Name = ZINC00658061
REMARK  9 active torsions:
REMARK  status: ('A' for Active; 'I' for Inactive)
REMARK    1  A    between atoms: C_1  and  O_2
REMARK    2  A    between atoms: O_2  and  C_3
REMARK    3  A    between atoms: C_6  and  C_19
REMARK    4  A    between atoms: C_8  and  O_9
REMARK    5  A    between atoms: O_9  and  C_10
REMARK    6  A    between atoms: C_10  and  C_11
REMARK    7  A    between atoms: N_20  and  N_21
REMARK    8  A    between atoms: N_21  and  C_22
REMARK    9  A    between atoms: C_22  and  N_24
REMARK                            x       y       z     vdW  Elec       q    Type
REMARK                         _______ _______ _______ _____ _____    ______ ____
ROOT
ATOM      1  C   UNL     1      -0.016   1.355   0.009  0.00  0.00    +0.162 A 
ATOM      2  C   UNL     1      -1.228   2.031   0.019  0.00  0.00    +0.050 A 
ATOM      3  C   UNL     1      -1.252   3.409   0.032  0.00  0.00    +0.013 A 
ATOM      4  C   UNL     1      -0.055   4.129   0.024  0.00  0.00    -0.002 A 
ATOM      5  C   UNL     1       1.165   3.449   0.009  0.00  0.00    +0.059 A 
ATOM      6  C   UNL     1       1.181   2.066   0.002  0.00  0.00    +0.163 A 
ENDROOT
BRANCH   1   8
ATOM      7  C   UNL     1      -1.262  -0.670   0.011  0.00  0.00    +0.277 C 
ATOM      8  O   UNL     1       0.002  -0.004   0.002  0.00  0.00    -0.491 OA
ENDBRANCH   1   8
BRANCH   4   9
ATOM      9  C   UNL     1      -0.079   5.603   0.032  0.00  0.00    +0.138 C 
ATOM     10  N   UNL     1      -1.213   6.234   0.046  0.00  0.00    -0.188 NA
BRANCH  10  11
ATOM     11  N   UNL     1      -1.236   7.635   0.052  0.00  0.00    -0.219 N 
ATOM     12  H   UNL     1      -0.404   8.133   0.047  0.00  0.00    +0.176 HD
BRANCH  11  13
ATOM     13  C   UNL     1      -2.414   8.290   0.067  0.00  0.00    +0.147 C 
ATOM     14  S   UNL     1      -2.441  10.001   0.076  0.00  0.00    -0.017 S 
BRANCH  13  15
ATOM     15  N   UNL     1      -3.570   7.597   0.075  0.00  0.00    -0.339 N 
ATOM     16  H   UNL     1      -3.554   6.627   0.071  0.00  0.00    +0.144 HD
ATOM     17  H   UNL     1      -4.418   8.068   0.086  0.00  0.00    +0.144 HD
ENDBRANCH  13  15
ENDBRANCH  11  13
ENDBRANCH  10  11
ENDBRANCH   4   9
BRANCH   6  18
ATOM     18  O   UNL     1       2.367   1.401  -0.013  0.00  0.00    -0.484 OA
BRANCH  18  19
ATOM     19  C   UNL     1       3.556   2.193  -0.020  0.00  0.00    +0.267 C 
BRANCH  19  20
ATOM     20  C   UNL     1       4.762   1.290  -0.036  0.00  0.00    +0.026 A 
ATOM     21  C   UNL     1       5.331   0.873   1.154  0.00  0.00    +0.049 A 
ATOM     22  C   UNL     1       6.436   0.040   1.138  0.00  0.00    +0.020 A 
ATOM     23  C   UNL     1       6.977  -0.368  -0.067  0.00  0.00    +0.003 A 
ATOM     24  C   UNL     1       6.412   0.052  -1.256  0.00  0.00    +0.020 A 
ATOM     25  C   UNL     1       5.305   0.881  -1.242  0.00  0.00    +0.049 A 
ATOM     26 CL   UNL     1       4.596   1.410  -2.736  0.00  0.00    -0.083 Cl
ATOM     27 CL   UNL     1       4.655   1.391   2.667  0.00  0.00    -0.083 Cl
ENDBRANCH  19  20
ENDBRANCH  18  19
ENDBRANCH   6  18
TORSDOF 8
