REMARK  Name = ZINC35342467
REMARK  6 active torsions:
REMARK  status: ('A' for Active; 'I' for Inactive)
REMARK    1  A    between atoms: C_1  and  C_2
REMARK    2  A    between atoms: N_8  and  N_9
REMARK    3  A    between atoms: C_10  and  C_12
REMARK    4  A    between atoms: C_12  and  C_13
REMARK    5  A    between atoms: C_13  and  C_14
REMARK    6  A    between atoms: N_16  and  C_17
REMARK                            x       y       z     vdW  Elec       q    Type
REMARK                         _______ _______ _______ _____ _____    ______ ____
ROOT
ATOM      1  C   UNL     1      -0.671  -2.378   5.673  0.00  0.00    +0.107 C 
ENDROOT
BRANCH   1   3
ATOM      2  N   UNL     1       0.051  -2.203   3.314  0.00  0.00    -0.207 N 
ATOM      3  C   UNL     1      -0.230  -2.992   4.369  0.00  0.00    +0.233 C 
ATOM      4  O   UNL     1      -0.129  -4.197   4.270  0.00  0.00    -0.274 OA
ATOM      5  H   UNL     1      -0.030  -1.239   3.394  0.00  0.00    +0.177 HD
BRANCH   2  12
ATOM      6  C   UNL     1      -0.066   1.522  -0.002  0.00  0.00    +0.008 C 
ATOM      7  C   UNL     1      -0.049  -0.008  -0.010  0.00  0.00    -0.009 C 
ATOM      8  C   UNL     1       0.660  -0.503  -1.272  0.00  0.00    +0.004 C 
ATOM      9  C   UNL     1       0.604  -2.031  -1.333  0.00  0.00    +0.006 C 
ATOM     10  C   UNL     1       1.377  -2.616  -0.145  0.00  0.00    +0.052 C 
ATOM     11  C   UNL     1       0.820  -2.022   1.130  0.00  0.00    +0.037 C 
ATOM     12  N   UNL     1       0.462  -2.773   2.102  0.00  0.00    -0.189 NA
ATOM     13  C   UNL     1       0.699  -0.517   1.227  0.00  0.00    +0.055 C 
ENDBRANCH   2  12
ENDBRANCH   1   3
BRANCH   1  14
ATOM     14  C   UNL     1      -0.925  -3.486   6.698  0.00  0.00    +0.105 C 
BRANCH  14  15
ATOM     15  C   UNL     1      -1.366  -2.872   8.002  0.00  0.00    +0.218 C 
ATOM     16  O   UNL     1      -1.468  -1.667   8.101  0.00  0.00    -0.275 OA
ATOM     17  N   UNL     1      -1.648  -3.661   9.057  0.00  0.00    -0.284 N 
ATOM     18  H   UNL     1      -1.490  -4.617   9.004  0.00  0.00    +0.155 HD
BRANCH  17  19
ATOM     19  C   UNL     1      -2.169  -3.102  10.231  0.00  0.00    +0.052 A 
ATOM     20  C   UNL     1      -2.866  -1.903  10.180  0.00  0.00    +0.026 A 
ATOM     21  C   UNL     1      -3.379  -1.353  11.338  0.00  0.00    +0.022 A 
ATOM     22  C   UNL     1      -3.198  -1.996  12.550  0.00  0.00    +0.042 A 
ATOM     23  C   UNL     1      -2.503  -3.192  12.605  0.00  0.00    +0.041 A 
ATOM     24  C   UNL     1      -1.994  -3.749  11.447  0.00  0.00    +0.064 A 
ATOM     25 CL   UNL     1      -1.129  -5.253  11.515  0.00  0.00    -0.082 Cl
ATOM     26 CL   UNL     1      -3.843  -1.301  14.005  0.00  0.00    -0.083 Cl
ENDBRANCH  17  19
ENDBRANCH  14  15
ENDBRANCH   1  14
TORSDOF 5
