REMARK  Name = ZINC12412553
REMARK  9 active torsions:
REMARK  status: ('A' for Active; 'I' for Inactive)
REMARK    1  A    between atoms: C_1  and  C_2
REMARK    2  A    between atoms: C_2  and  O_3
REMARK    3  A    between atoms: O_3  and  C_4
REMARK    4  A    between atoms: C_4  and  C_6
REMARK    5  A    between atoms: C_7  and  C_21
REMARK    6  A    between atoms: C_12  and  C_14
REMARK    7  A    between atoms: C_21  and  N_22
REMARK    8  A    between atoms: N_22  and  C_23
REMARK    9  A    between atoms: C_23  and  C_24
REMARK                            x       y       z     vdW  Elec       q    Type
REMARK                         _______ _______ _______ _____ _____    ______ ____
ROOT
ATOM      1  C   UNL     1      -0.637   2.206   1.353  0.00  0.00    +0.079 C 
ATOM      2  C   UNL     1      -1.839   2.791   1.161  0.00  0.00    +0.038 C 
ATOM      3  N   UNL     1      -2.377   2.905  -0.089  0.00  0.00    -0.271 N 
ATOM      4  C   UNL     1      -1.775   2.459  -1.199  0.00  0.00    +0.304 C 
ATOM      5  O   UNL     1      -2.333   2.606  -2.269  0.00  0.00    -0.252 OA
ATOM      6  N   UNL     1      -0.573   1.853  -1.168  0.00  0.00    -0.288 N 
ATOM      7  C   UNL     1       0.094   1.681   0.134  0.00  0.00    +0.144 C 
ATOM      8  H   UNL     1      -3.357   3.385  -0.225  0.00  0.00    +0.156 HD
ATOM      9  H   UNL     1      -0.088   1.489  -2.086  0.00  0.00    +0.151 HD
ENDROOT
BRANCH   7  10
ATOM     10  C   UNL     1       0.340   0.208   0.339  0.00  0.00    -0.022 A 
ATOM     11  C   UNL     1      -0.651  -0.707   0.039  0.00  0.00    +0.007 A 
ATOM     12  C   UNL     1      -0.424  -2.058   0.221  0.00  0.00    +0.020 A 
ATOM     13  C   UNL     1       0.793  -2.493   0.716  0.00  0.00    +0.041 A 
ATOM     14  C   UNL     1       1.783  -1.577   1.022  0.00  0.00    +0.020 A 
ATOM     15  C   UNL     1       1.556  -0.226   0.834  0.00  0.00    +0.007 A 
ATOM     16 CL   UNL     1       1.077  -4.189   0.953  0.00  0.00    -0.084 Cl
ENDBRANCH   7  10
BRANCH   1  17
ATOM     17  C   UNL     1      -0.080   2.088   2.648  0.00  0.00    +0.339 C 
ATOM     18  O   UNL     1      -0.628   2.615   3.597  0.00  0.00    -0.245 OA
BRANCH  17  19
ATOM     19  O   UNL     1       1.061   1.390   2.830  0.00  0.00    -0.462 OA
BRANCH  19  21
ATOM     20  C   UNL     1       2.857   0.487   4.172  0.00  0.00    +0.048 C 
ATOM     21  C   UNL     1       1.568   1.312   4.163  0.00  0.00    +0.229 C 
ENDBRANCH  19  21
ENDBRANCH  17  19
ENDBRANCH   1  17
BRANCH   2  22
ATOM     22  C   UNL     1      -2.600   3.328   2.347  0.00  0.00    +0.133 C 
BRANCH  22  23
ATOM     23  N   UNL     1      -2.143   4.693   2.644  0.00  0.00    -0.307 NA
ATOM     24  H   UNL     1      -1.068   4.678   2.875  0.00  0.00    +0.123 HD
BRANCH  23  25
ATOM     25  C   UNL     1      -2.865   5.249   3.796  0.00  0.00    +0.118 C 
BRANCH  25  26
ATOM     26  C   UNL     1      -2.371   6.646   4.071  0.00  0.00    -0.015 A 
ATOM     27  C   UNL     1      -1.458   6.871   5.084  0.00  0.00    +0.006 A 
ATOM     28  C   UNL     1      -1.001   8.151   5.333  0.00  0.00    +0.000 A 
ATOM     29  C   UNL     1      -1.465   9.210   4.575  0.00  0.00    +0.001 A 
ATOM     30  C   UNL     1      -2.382   8.989   3.565  0.00  0.00    +0.020 A 
ATOM     31  C   UNL     1      -2.836   7.706   3.312  0.00  0.00    +0.045 A 
ATOM     32 CL   UNL     1      -3.987   7.426   2.043  0.00  0.00    -0.083 Cl
ENDBRANCH  25  26
ENDBRANCH  23  25
ENDBRANCH  22  23
ENDBRANCH   2  22
TORSDOF 8
