REMARK  Name = ZINC02136739
REMARK  7 active torsions:
REMARK  status: ('A' for Active; 'I' for Inactive)
REMARK    1  A    between atoms: C_1  and  C_2
REMARK    2  A    between atoms: C_13  and  C_28
REMARK    3  A    between atoms: N_20  and  C_23
REMARK    4  A    between atoms: C_23  and  C_24
REMARK    5  A    between atoms: C_24  and  C_25
REMARK    6  A    between atoms: C_25  and  O_26
REMARK    7  A    between atoms: O_26  and  C_27
REMARK                            x       y       z     vdW  Elec       q    Type
REMARK                         _______ _______ _______ _____ _____    ______ ____
ROOT
ATOM      1  C   UNL     1      -0.696   1.984   1.296  0.00  0.00    +0.048 C 
ATOM      2  C   UNL     1      -0.018   1.506   0.010  0.00  0.00    +0.151 C 
ATOM      3  C   UNL     1       0.002  -0.004   0.002  0.00  0.00    +0.054 A 
ATOM      4  C   UNL     1       1.125  -0.730   0.203  0.00  0.00    -0.008 A 
ATOM      5  C   UNL     1       0.746  -2.125   0.124  0.00  0.00    +0.004 A 
ATOM      6  C   UNL     1       1.473  -3.313   0.247  0.00  0.00    +0.010 A 
ATOM      7  C   UNL     1       0.772  -4.487   0.114  0.00  0.00    +0.001 A 
ATOM      8  C   UNL     1      -0.591  -4.506  -0.129  0.00  0.00    +0.002 A 
ATOM      9  C   UNL     1      -1.335  -3.346  -0.256  0.00  0.00    +0.026 A 
ATOM     10  C   UNL     1      -0.650  -2.139  -0.128  0.00  0.00    +0.047 A 
ATOM     11  N   UNL     1      -1.063  -0.840  -0.198  0.00  0.00    -0.356 N 
ATOM     12  H   UNL     1      -1.975  -0.552  -0.365  0.00  0.00    +0.166 HD
ATOM     13  C   UNL     1       2.490  -0.142   0.455  0.00  0.00    +0.069 C 
ATOM     14  C   UNL     1       2.333   1.319   0.893  0.00  0.00    +0.122 C 
ATOM     15  N   UNL     1       1.365   1.981  -0.000  0.00  0.00    -0.280 N 
ATOM     16  C   UNL     1       1.781   2.972  -0.793  0.00  0.00    +0.234 C 
ATOM     17  O   UNL     1       2.905   3.396  -0.629  0.00  0.00    -0.274 OA
ATOM     18  C   UNL     1       0.951   3.592  -1.870  0.00  0.00    +0.203 C 
ATOM     19  N   UNL     1      -0.354   2.962  -1.987  0.00  0.00    -0.291 N 
ATOM     20  C   UNL     1      -0.800   2.025  -1.151  0.00  0.00    +0.245 C 
ATOM     21  O   UNL     1      -1.906   1.567  -1.345  0.00  0.00    -0.273 OA
ENDROOT
BRANCH  13  22
ATOM     22  C   UNL     1       3.306  -0.205  -0.810  0.00  0.00    -0.038 A 
ATOM     23  C   UNL     1       2.865   0.442  -1.950  0.00  0.00    +0.006 A 
ATOM     24  C   UNL     1       3.616   0.390  -3.109  0.00  0.00    +0.020 A 
ATOM     25  C   UNL     1       4.804  -0.319  -3.132  0.00  0.00    +0.041 A 
ATOM     26  C   UNL     1       5.242  -0.971  -1.993  0.00  0.00    +0.020 A 
ATOM     27  C   UNL     1       4.493  -0.913  -0.833  0.00  0.00    +0.006 A 
ATOM     28 CL   UNL     1       5.744  -0.391  -4.590  0.00  0.00    -0.084 Cl
ENDBRANCH  13  22
BRANCH  19  29
ATOM     29  C   UNL     1      -1.228   3.380  -3.087  0.00  0.00    +0.110 C 
BRANCH  29  30
ATOM     30  C   UNL     1      -0.962   2.502  -4.311  0.00  0.00    +0.047 C 
BRANCH  30  31
ATOM     31  C   UNL     1      -1.874   2.939  -5.459  0.00  0.00    +0.161 C 
BRANCH  31  32
ATOM     32  O   UNL     1      -1.626   2.119  -6.603  0.00  0.00    -0.383 OA
ATOM     33  C   UNL     1      -2.431   2.445  -7.738  0.00  0.00    +0.193 C 
ENDBRANCH  31  32
ENDBRANCH  30  31
ENDBRANCH  29  30
ENDBRANCH  19  29
TORSDOF 5
