REMARK  Name = ZINC20758004
REMARK  8 active torsions:
REMARK  status: ('A' for Active; 'I' for Inactive)
REMARK    1  A    between atoms: C_1  and  C_2
REMARK    2  A    between atoms: C_2  and  C_4
REMARK    3  A    between atoms: C_2  and  N_12
REMARK    4  A    between atoms: C_4  and  C_5
REMARK    5  A    between atoms: C_5  and  C_6
REMARK    6  A    between atoms: C_15  and  C_22
REMARK    7  A    between atoms: C_28  and  O_34
REMARK    8  A    between atoms: O_34  and  C_35
REMARK                            x       y       z     vdW  Elec       q    Type
REMARK                         _______ _______ _______ _____ _____    ______ ____
ROOT
ATOM      1  N   UNL     1       3.712   2.640  -0.020  0.00  0.00    -0.258 N 
ATOM      2  C   UNL     1       2.634   3.449  -0.004  0.00  0.00    +0.262 A 
ATOM      3  O   UNL     1       2.774   4.659   0.001  0.00  0.00    -0.267 OA
ATOM      4  C   UNL     1       1.345   2.886  -0.001  0.00  0.00    +0.073 A 
ATOM      5  C   UNL     1       1.214   1.529  -0.001  0.00  0.00    +0.260 A 
ATOM      6  N   UNL     1       2.339   0.743  -0.016  0.00  0.00    -0.275 N 
ATOM      7  H   UNL     1       2.244  -0.353  -0.021  0.00  0.00    +0.173 HD
ATOM      8  C   UNL     1       3.562   1.303  -0.025  0.00  0.00    +0.332 A 
ATOM      9  O   UNL     1       4.547   0.590  -0.039  0.00  0.00    -0.246 OA
ATOM     10  O   UNL     1      -0.011   0.963   0.007  0.00  0.00    -0.267 OA
ENDROOT
BRANCH   4  11
ATOM     11  C   UNL     1       0.125   3.770   0.009  0.00  0.00    +0.018 C 
ATOM     12  C   UNL     1       0.063   4.563  -1.275  0.00  0.00    +0.011 A 
ATOM     13  C   UNL     1      -0.243   5.880  -1.314  0.00  0.00    -0.022 A 
ATOM     14  C   UNL     1      -0.203   6.289  -2.700  0.00  0.00    +0.006 A 
ATOM     15  C   UNL     1      -0.427   7.514  -3.336  0.00  0.00    +0.056 A 
ATOM     16  C   UNL     1      -0.297   7.535  -4.717  0.00  0.00    +0.121 A 
ATOM     17  C   UNL     1       0.038   6.395  -5.438  0.00  0.00    +0.047 A 
ATOM     18  C   UNL     1       0.264   5.175  -4.826  0.00  0.00    +0.030 A 
ATOM     19  C   UNL     1       0.141   5.127  -3.439  0.00  0.00    +0.047 A 
ATOM     20  N   UNL     1       0.293   4.105  -2.543  0.00  0.00    -0.359 N 
ATOM     21  H   UNL     1       0.556   3.049  -2.707  0.00  0.00    +0.166 HD
ATOM     22  C   UNL     1      -0.558   6.697  -0.086  0.00  0.00    +0.018 C 
ATOM     23  C   UNL     1      -0.854   5.727   1.066  0.00  0.00    -0.076 C 
ATOM     24  N   UNL     1       0.204   4.710   1.139  0.00  0.00    +0.388 N 
ATOM     25  H   UNL     1       0.092   4.157   2.083  0.00  0.00    -0.084 HD
ATOM     26  H   UNL     1       1.179   5.218   1.125  0.00  0.00    -0.084 HD
BRANCH  16  27
ATOM     27  O   UNL     1      -0.505   8.702  -5.383  0.00  0.00    -0.495 OA
ATOM     28  C   UNL     1      -0.360   8.672  -6.805  0.00  0.00    +0.277 C 
ENDBRANCH  16  27
ENDBRANCH   4  11
BRANCH   1  30
ATOM     29  C   UNL     1       5.823   2.755   1.210  0.00  0.00    +0.031 C 
ATOM     30  C   UNL     1       5.056   3.221  -0.029  0.00  0.00    +0.092 C 
BRANCH  30  31
ATOM     31  C   UNL     1       5.799   2.768  -1.288  0.00  0.00    +0.030 C 
BRANCH  31  32
ATOM     32  C   UNL     1       5.102   3.340  -2.525  0.00  0.00    +0.037 C 
BRANCH  32  33
ATOM     33  C   UNL     1       5.833   2.894  -3.764  0.00  0.00    -0.047 A 
ATOM     34  C   UNL     1       6.859   3.666  -4.277  0.00  0.00    +0.003 A 
ATOM     35  C   UNL     1       7.533   3.254  -5.412  0.00  0.00    +0.000 A 
ATOM     36  C   UNL     1       7.174   2.076  -6.039  0.00  0.00    +0.000 A 
ATOM     37  C   UNL     1       6.145   1.306  -5.529  0.00  0.00    +0.000 A 
ATOM     38  C   UNL     1       5.475   1.715  -4.392  0.00  0.00    +0.003 A 
ENDBRANCH  32  33
ENDBRANCH  31  32
ENDBRANCH  30  31
ENDBRANCH   1  30
TORSDOF 6
