REMARK  Name = ZINC09056626
REMARK  7 active torsions:
REMARK  status: ('A' for Active; 'I' for Inactive)
REMARK    1  A    between atoms: C_1  and  C_2
REMARK    2  A    between atoms: C_7  and  C_9
REMARK    3  A    between atoms: C_7  and  C_10
REMARK    4  A    between atoms: N_13  and  C_17
REMARK    5  A    between atoms: C_17  and  C_18
REMARK    6  A    between atoms: N_20  and  C_21
REMARK    7  A    between atoms: C_24  and  C_27
REMARK                            x       y       z     vdW  Elec       q    Type
REMARK                         _______ _______ _______ _____ _____    ______ ____
ROOT
ATOM      1  C   UNL     1      -4.501  -3.647  -2.876  0.00  0.00    +0.235 C 
ATOM      2  O   UNL     1      -4.145  -2.527  -3.173  0.00  0.00    -0.274 OA
ATOM      3  N   UNL     1      -5.600  -4.179  -3.447  0.00  0.00    -0.284 N 
ATOM      4  H   UNL     1      -5.928  -5.044  -3.155  0.00  0.00    +0.155 HD
ENDROOT
BRANCH   3   5
ATOM      5  C   UNL     1      -6.268  -3.483  -4.460  0.00  0.00    +0.033 A 
ATOM      6  C   UNL     1      -5.547  -2.709  -5.361  0.00  0.00    +0.024 A 
ATOM      7  C   UNL     1      -6.203  -2.022  -6.361  0.00  0.00    +0.012 A 
ATOM      8  C   UNL     1      -7.591  -2.106  -6.468  0.00  0.00    +0.002 A 
ATOM      9  C   UNL     1      -8.312  -2.883  -5.563  0.00  0.00    +0.012 A 
ATOM     10  C   UNL     1      -7.651  -3.572  -4.568  0.00  0.00    +0.024 A 
BRANCH   8  11
ATOM     11  C   UNL     1      -8.299  -1.367  -7.542  0.00  0.00    +0.090 A 
ATOM     12  C   UNL     1      -9.637  -1.359  -7.753  0.00  0.00    +0.121 A 
ATOM     13  N   UNL     1      -9.885  -0.547  -8.855  0.00  0.00    -0.300 N 
ATOM     14  C   UNL     1     -10.969  -0.114  -9.586  0.00  0.00    +0.100 A 
ATOM     15  C   UNL     1     -10.807   0.698 -10.630  0.00  0.00    +0.067 A 
ATOM     16  S   UNL     1      -9.035   0.919 -10.655  0.00  0.00    -0.058 S 
ATOM     17  C   UNL     1      -8.650  -0.104  -9.253  0.00  0.00    +0.178 A 
ATOM     18  N   UNL     1      -7.723  -0.583  -8.476  0.00  0.00    -0.221 NA
ENDBRANCH   8  11
ENDBRANCH   3   5
BRANCH   1  19
ATOM     19  C   UNL     1      -3.715  -4.446  -1.868  0.00  0.00    +0.214 C 
BRANCH  19  31
ATOM     20  C   UNL     1       0.076   1.379  -0.470  0.00  0.00    +0.007 C 
ATOM     21  C   UNL     1       0.134  -0.143  -0.326  0.00  0.00    -0.011 C 
ATOM     22  C   UNL     1      -1.283  -0.717  -0.397  0.00  0.00    +0.038 C 
ATOM     23  C   UNL     1      -1.228  -2.232  -0.233  0.00  0.00    +0.113 C 
ATOM     24  C   UNL     1      -0.585  -2.607   1.098  0.00  0.00    +0.041 C 
ATOM     25  C   UNL     1       0.830  -2.026   1.164  0.00  0.00    -0.032 C 
ATOM     26  C   UNL     1       0.762  -0.504   1.022  0.00  0.00    +0.009 C 
ATOM     27  C   UNL     1       1.674  -2.607   0.027  0.00  0.00    +0.011 C 
ATOM     28  C   UNL     1       1.467  -2.385   2.508  0.00  0.00    +0.011 C 
ATOM     29  C   UNL     1      -2.615  -2.825  -0.334  0.00  0.00    +0.247 C 
ATOM     30  O   UNL     1      -3.563  -2.603   0.388  0.00  0.00    -0.273 OA
ATOM     31  N   UNL     1      -2.575  -3.653  -1.399  0.00  0.00    -0.215 N 
ATOM     32  C   UNL     1      -1.366  -3.660  -1.973  0.00  0.00    +0.310 C 
ATOM     33  O   UNL     1      -1.086  -4.328  -2.949  0.00  0.00    -0.252 OA
ATOM     34  N   UNL     1      -0.496  -2.844  -1.349  0.00  0.00    -0.285 N 
ATOM     35  H   UNL     1       0.432  -2.692  -1.588  0.00  0.00    +0.151 HD
ENDBRANCH  19  31
ENDBRANCH   1  19
TORSDOF 4
