REMARK  Name = ZINC57316036
REMARK  5 active torsions:
REMARK  status: ('A' for Active; 'I' for Inactive)
REMARK    1  A    between atoms: C_1  and  C_2
REMARK    2  A    between atoms: C_11  and  N_12
REMARK    3  A    between atoms: C_13  and  C_15
REMARK    4  A    between atoms: C_16  and  C_17
REMARK    5  A    between atoms: C_20  and  C_22
REMARK                            x       y       z     vdW  Elec       q    Type
REMARK                         _______ _______ _______ _____ _____    ______ ____
ROOT
ATOM      1  N   UNL     1       0.064  -4.885  -1.143  0.00  0.00    -0.281 N 
ATOM      2  C   UNL     1       0.186  -6.226  -1.090  0.00  0.00    +0.241 C 
ATOM      3  O   UNL     1       0.200  -6.794  -0.012  0.00  0.00    -0.270 OA
ATOM      4  H   UNL     1      -0.027  -4.441  -2.001  0.00  0.00    +0.155 HD
ENDROOT
BRANCH   1  15
ATOM      5  C   UNL     1      -2.373   0.935   0.381  0.00  0.00    +0.065 C 
ATOM      6  C   UNL     1      -1.725  -0.421   0.274  0.00  0.00    +0.039 A 
ATOM      7  C   UNL     1      -1.776  -1.103  -0.939  0.00  0.00    +0.024 A 
ATOM      8  C   UNL     1      -1.193  -2.334  -1.053  0.00  0.00    +0.013 A 
ATOM      9  C   UNL     1      -0.553  -2.873   0.076  0.00  0.00    +0.022 A 
ATOM     10  C   UNL     1      -0.537  -2.126   1.280  0.00  0.00    +0.073 A 
ATOM     11  N   UNL     1      -1.122  -0.925   1.324  0.00  0.00    -0.252 NA
ATOM     12  C   UNL     1       0.102  -2.662   2.410  0.00  0.00    +0.028 A 
ATOM     13  C   UNL     1       0.697  -3.885   2.342  0.00  0.00    +0.004 A 
ATOM     14  C   UNL     1       0.688  -4.626   1.165  0.00  0.00    +0.024 A 
ATOM     15  C   UNL     1       0.071  -4.137   0.032  0.00  0.00    +0.043 A 
ENDBRANCH   1  15
BRANCH   2  16
ATOM     16  C   UNL     1       0.296  -6.975  -2.284  0.00  0.00    +0.071 C 
ATOM     17  C   UNL     1       0.418  -8.326  -2.230  0.00  0.00    +0.051 C 
BRANCH  17  18
ATOM     18  C   UNL     1       0.529  -9.075  -3.424  0.00  0.00    +0.129 A 
ATOM     19  C   UNL     1       0.652 -10.449  -3.513  0.00  0.00    +0.050 A 
ATOM     20  C   UNL     1       0.731 -10.759  -4.873  0.00  0.00    +0.050 A 
ATOM     21  C   UNL     1       0.654  -9.580  -5.560  0.00  0.00    +0.136 A 
ATOM     22  O   UNL     1       0.526  -8.573  -4.677  0.00  0.00    -0.455 OA
BRANCH  21  23
ATOM     23  C   UNL     1       0.697  -9.435  -7.028  0.00  0.00    +0.020 A 
ATOM     24  C   UNL     1       0.822 -10.565  -7.841  0.00  0.00    +0.031 A 
ATOM     25  C   UNL     1       0.862 -10.423  -9.213  0.00  0.00    +0.043 A 
ATOM     26  C   UNL     1       0.779  -9.164  -9.785  0.00  0.00    +0.040 A 
ATOM     27  C   UNL     1       0.655  -8.040  -8.985  0.00  0.00    +0.043 A 
ATOM     28  C   UNL     1       0.609  -8.169  -7.612  0.00  0.00    +0.031 A 
ATOM     29 CL   UNL     1       0.553  -6.467  -9.712  0.00  0.00    -0.083 Cl
ATOM     30 CL   UNL     1       1.016 -11.825 -10.225  0.00  0.00    -0.083 Cl
ENDBRANCH  21  23
ENDBRANCH  17  18
ENDBRANCH   2  16
TORSDOF 4
