REMARK  Name = ZINC34788594
REMARK  9 active torsions:
REMARK  status: ('A' for Active; 'I' for Inactive)
REMARK    1  A    between atoms: C_1  and  C_2
REMARK    2  A    between atoms: C_2  and  C_3
REMARK    3  A    between atoms: C_3  and  C_4
REMARK    4  A    between atoms: C_4  and  C_29
REMARK    5  A    between atoms: C_11  and  N_26
REMARK    6  A    between atoms: C_13  and  S_15
REMARK    7  A    between atoms: S_15  and  C_16
REMARK    8  A    between atoms: C_16  and  C_17
REMARK    9  A    between atoms: N_19  and  C_20
REMARK                            x       y       z     vdW  Elec       q    Type
REMARK                         _______ _______ _______ _____ _____    ______ ____
ROOT
ATOM      1  C   UNL     1      -0.175  -1.841  -0.771  0.00  0.00    +0.071 C 
ATOM      2  C   UNL     1       0.675  -2.295  -1.960  0.00  0.00    +0.071 C 
ATOM      3  C   UNL     1       0.535  -3.810  -2.094  0.00  0.00    -0.020 A 
ATOM      4  C   UNL     1      -0.500  -4.437  -1.486  0.00  0.00    +0.021 A 
ATOM      5  S   UNL     1      -0.301  -6.154  -1.880  0.00  0.00    -0.071 S 
ATOM      6  C   UNL     1       1.163  -6.033  -2.856  0.00  0.00    +0.115 A 
ATOM      7  C   UNL     1       1.455  -4.644  -2.845  0.00  0.00    +0.051 A 
ATOM      8  C   UNL     1       2.610  -4.222  -3.565  0.00  0.00    +0.129 A 
ATOM      9  N   UNL     1       3.299  -5.182  -4.177  0.00  0.00    -0.207 NA
ATOM     10  C   UNL     1       2.968  -6.464  -4.146  0.00  0.00    +0.191 A 
ATOM     11  N   UNL     1       1.899  -6.924  -3.490  0.00  0.00    -0.214 NA
ATOM     12  C   UNL     1      -1.568  -3.788  -0.662  0.00  0.00    +0.203 C 
ATOM     13  O   UNL     1      -1.499  -2.371  -0.883  0.00  0.00    -0.368 OA
ATOM     14  C   UNL     1       0.463  -2.341   0.526  0.00  0.00    +0.042 C 
ENDROOT
BRANCH   8  15
ATOM     15  N   UNL     1       2.992  -2.894  -3.625  0.00  0.00    -0.343 N 
ATOM     16  H   UNL     1       2.425  -2.209  -3.236  0.00  0.00    +0.144 HD
ATOM     17  H   UNL     1       3.825  -2.648  -4.055  0.00  0.00    +0.144 HD
ENDBRANCH   8  15
BRANCH   1  18
ATOM     18  C   UNL     1      -0.240  -0.312  -0.749  0.00  0.00    +0.035 C 
BRANCH  18  20
ATOM     19  C   UNL     1      -1.036   1.677   0.537  0.00  0.00    +0.004 C 
ATOM     20  C   UNL     1      -0.970   0.148   0.515  0.00  0.00    -0.001 C 
ENDBRANCH  18  20
ENDBRANCH   1  18
BRANCH  10  21
ATOM     21  S   UNL     1       3.984  -7.616  -5.010  0.00  0.00    -0.077 S 
BRANCH  21  22
ATOM     22  C   UNL     1       5.288  -6.589  -5.740  0.00  0.00    +0.173 C 
BRANCH  22  23
ATOM     23  C   UNL     1       6.239  -7.462  -6.518  0.00  0.00    +0.227 C 
ATOM     24  O   UNL     1       6.054  -8.660  -6.573  0.00  0.00    -0.275 OA
ATOM     25  N   UNL     1       7.294  -6.913  -7.151  0.00  0.00    -0.285 N 
ATOM     26  H   UNL     1       7.487  -5.969  -7.042  0.00  0.00    +0.155 HD
BRANCH  25  27
ATOM     27  C   UNL     1       8.110  -7.705  -7.967  0.00  0.00    +0.033 A 
ATOM     28  C   UNL     1       9.475  -7.457  -8.034  0.00  0.00    +0.023 A 
ATOM     29  C   UNL     1      10.278  -8.240  -8.840  0.00  0.00    +0.002 A 
ATOM     30  C   UNL     1       9.725  -9.270  -9.579  0.00  0.00    +0.000 A 
ATOM     31  C   UNL     1       8.366  -9.518  -9.514  0.00  0.00    +0.002 A 
ATOM     32  C   UNL     1       7.558  -8.743  -8.706  0.00  0.00    +0.023 A 
ENDBRANCH  25  27
ENDBRANCH  22  23
ENDBRANCH  21  22
ENDBRANCH  10  21
TORSDOF 7
