REMARK  Name = ZINC67401326
REMARK  11 active torsions:
REMARK  status: ('A' for Active; 'I' for Inactive)
REMARK    1  A    between atoms: C_1  and  C_2
REMARK    2  A    between atoms: C_2  and  C_3
REMARK    3  A    between atoms: C_3  and  C_4
REMARK    4  A    between atoms: C_4  and  C_6
REMARK    5  A    between atoms: C_4  and  N_7
REMARK    6  A    between atoms: C_8  and  C_10
REMARK    7  A    between atoms: C_10  and  C_12
REMARK    8  A    between atoms: C_10  and  N_13
REMARK    9  A    between atoms: C_16  and  C_19
REMARK   10  A    between atoms: C_19  and  C_21
REMARK   11  A    between atoms: C_19  and  O_28
REMARK                            x       y       z     vdW  Elec       q    Type
REMARK                         _______ _______ _______ _____ _____    ______ ____
ROOT
ATOM      1  N   UNL     1       1.651  -5.540   1.965  0.00  0.00    +0.387 N 
ATOM      2  C   UNL     1       1.829  -6.526   0.893  0.00  0.00    -0.077 C 
ATOM      3  C   UNL     1       1.227  -7.866   1.321  0.00  0.00    -0.012 C 
ATOM      4  C   UNL     1       1.933  -8.355   2.589  0.00  0.00    +0.019 C 
ATOM      5  C   UNL     1       1.804  -7.285   3.678  0.00  0.00    -0.012 C 
ATOM      6  C   UNL     1       2.385  -5.967   3.162  0.00  0.00    -0.077 C 
ATOM      7  H   UNL     1       0.670  -5.459   2.185  0.00  0.00    -0.081 HD
ENDROOT
BRANCH   1   8
ATOM      8  C   UNL     1       2.161  -4.236   1.519  0.00  0.00    +0.016 C 
ATOM      9  C   UNL     1       2.020  -3.219   2.653  0.00  0.00    -0.004 C 
BRANCH   8  11
ATOM     10  N   UNL     1       1.937  -2.943  -0.577  0.00  0.00    -0.314 N 
ATOM     11  C   UNL     1       1.370  -3.770   0.324  0.00  0.00    +0.199 C 
ATOM     12  O   UNL     1       0.225  -4.138   0.174  0.00  0.00    -0.278 OA
ATOM     13  H   UNL     1       2.853  -2.649  -0.457  0.00  0.00    +0.149 HD
BRANCH  10  14
ATOM     14  C   UNL     1       1.168  -2.490  -1.739  0.00  0.00    +0.070 C 
ATOM     15  C   UNL     1       1.265  -3.533  -2.854  0.00  0.00    +0.028 C 
BRANCH  14  16
ATOM     16  C   UNL     1       1.734  -1.158  -2.237  0.00  0.00    +0.022 C 
BRANCH  16  18
ATOM     17  C   UNL     1       2.091   1.248  -1.666  0.00  0.00    +0.004 C 
ATOM     18  C   UNL     1       1.525  -0.084  -1.168  0.00  0.00    -0.002 C 
ENDBRANCH  16  18
ENDBRANCH  14  16
ENDBRANCH  10  14
ENDBRANCH   8  11
ENDBRANCH   1   8
BRANCH   4  19
ATOM     19  C   UNL     1       1.282  -9.654   3.068  0.00  0.00    +0.147 C 
BRANCH  19  20
ATOM     20  C   UNL     1       1.978 -10.134   4.316  0.00  0.00    -0.019 A 
ATOM     21  C   UNL     1       1.594  -9.648   5.551  0.00  0.00    +0.007 A 
ATOM     22  C   UNL     1       2.232 -10.087   6.696  0.00  0.00    +0.020 A 
ATOM     23  C   UNL     1       3.255 -11.014   6.605  0.00  0.00    +0.041 A 
ATOM     24  C   UNL     1       3.639 -11.501   5.368  0.00  0.00    +0.020 A 
ATOM     25  C   UNL     1       2.996 -11.064   4.224  0.00  0.00    +0.007 A 
ATOM     26 CL   UNL     1       4.057 -11.567   8.042  0.00  0.00    -0.084 Cl
ENDBRANCH  19  20
BRANCH  19  27
ATOM     27  O   UNL     1      -0.098  -9.419   3.353  0.00  0.00    -0.387 OA
ATOM     28  H   UNL     1      -0.250  -8.754   4.039  0.00  0.00    +0.210 HD
ENDBRANCH  19  27
ENDBRANCH   4  19
TORSDOF 8
