REMARK  Name = ZINC20549769
REMARK  8 active torsions:
REMARK  status: ('A' for Active; 'I' for Inactive)
REMARK    1  A    between atoms: C_1  and  C_2
REMARK    2  A    between atoms: C_2  and  C_3
REMARK    3  A    between atoms: C_2  and  O_4
REMARK    4  A    between atoms: O_4  and  C_5
REMARK    5  A    between atoms: C_5  and  C_7
REMARK    6  A    between atoms: C_11  and  C_12
REMARK    7  A    between atoms: C_26  and  C_28
REMARK    8  A    between atoms: C_28  and  C_29
REMARK                            x       y       z     vdW  Elec       q    Type
REMARK                         _______ _______ _______ _____ _____    ______ ____
ROOT
ATOM      1  C   UNL     1      -5.542   3.434   0.449  0.00  0.00    +0.106 C 
ATOM      2  C   UNL     1      -4.750   4.554   0.426  0.00  0.00    +0.223 A 
ATOM      3  N   UNL     1      -3.411   4.473   0.187  0.00  0.00    -0.242 N 
ATOM      4  C   UNL     1      -2.900   5.782   0.232  0.00  0.00    +0.138 A 
ATOM      5  C   UNL     1      -1.602   6.161   0.046  0.00  0.00    +0.048 C 
ATOM      6  C   UNL     1      -4.003   6.630   0.507  0.00  0.00    +0.363 A 
ATOM      7  O   UNL     1      -3.970   7.841   0.623  0.00  0.00    -0.243 OA
ATOM      8  O   UNL     1      -5.094   5.848   0.616  0.00  0.00    -0.403 OA
ATOM      9  C   UNL     1      -2.748   3.267  -0.048  0.00  0.00    +0.234 A 
ATOM     10  C   UNL     1      -3.402   2.090  -0.054  0.00  0.00    +0.115 A 
ATOM     11  N   UNL     1      -2.512   1.115  -0.305  0.00  0.00    -0.198 NA
ATOM     12  C   UNL     1      -1.330   1.661  -0.453  0.00  0.00    +0.287 A 
ATOM     13  O   UNL     1      -1.446   2.990  -0.294  0.00  0.00    -0.408 OA
ATOM     14  N   UNL     1      -0.156   0.980  -0.723  0.00  0.00    -0.313 N 
ATOM     15  C   UNL     1      -4.891   2.090   0.202  0.00  0.00    +0.090 C 
ATOM     16  H   UNL     1       0.789   1.534  -0.829  0.00  0.00    +0.147 HD
ATOM     17  H   UNL     1      -0.167  -0.114  -0.830  0.00  0.00    +0.147 HD
ENDROOT
BRANCH   5  18
ATOM     18  C   UNL     1      -1.274   7.532  -0.053  0.00  0.00    +0.014 A 
ATOM     19  C   UNL     1      -0.127   8.193   0.376  0.00  0.00    +0.015 A 
ATOM     20  C   UNL     1      -0.067   9.546   0.150  0.00  0.00    +0.008 A 
ATOM     21  C   UNL     1      -1.108  10.163  -0.468  0.00  0.00    +0.046 A 
ATOM     22  S   UNL     1      -2.219   8.866  -0.769  0.00  0.00    -0.097 S 
ENDBRANCH   5  18
BRANCH   1  23
ATOM     23  C   UNL     1      -6.918   3.533   0.696  0.00  0.00    +0.341 C 
ATOM     24  O   UNL     1      -7.607   2.528   0.713  0.00  0.00    -0.245 OA
BRANCH  23  25
ATOM     25  O   UNL     1      -7.480   4.741   0.914  0.00  0.00    -0.459 OA
BRANCH  25  27
ATOM     26  C   UNL     1      -9.148   4.634   2.660  0.00  0.00    +0.052 C 
ATOM     27  C   UNL     1      -8.888   4.767   1.159  0.00  0.00    +0.171 C 
ATOM     28  C   UNL     1      -9.469   6.090   0.656  0.00  0.00    +0.052 C 
ENDBRANCH  25  27
ENDBRANCH  23  25
ENDBRANCH   1  23
BRANCH  15  29
ATOM     29  C   UNL     1      -5.161   1.203   1.420  0.00  0.00    +0.057 C 
BRANCH  29  30
ATOM     30  C   UNL     1      -4.794  -0.222   1.095  0.00  0.00    -0.009 A 
ATOM     31  C   UNL     1      -3.606  -0.855   1.255  0.00  0.00    +0.011 A 
ATOM     32  C   UNL     1      -3.499  -2.182   0.883  0.00  0.00    +0.008 A 
ATOM     33  C   UNL     1      -4.585  -2.811   0.371  0.00  0.00    +0.045 A 
ATOM     34  S   UNL     1      -5.813  -1.516   0.407  0.00  0.00    -0.102 S 
ENDBRANCH  29  30
ENDBRANCH  15  29
TORSDOF 6
