REMARK  Name = ZINC04183832
REMARK  6 active torsions:
REMARK  status: ('A' for Active; 'I' for Inactive)
REMARK    1  A    between atoms: C_4  and  C_7
REMARK    2  A    between atoms: C_7  and  C_9
REMARK    3  A    between atoms: C_11  and  C_23
REMARK    4  A    between atoms: C_17  and  C_18
REMARK    5  A    between atoms: C_17  and  O_22
REMARK    6  A    between atoms: C_26  and  O_29
REMARK                            x       y       z     vdW  Elec       q    Type
REMARK                         _______ _______ _______ _____ _____    ______ ____
ROOT
ATOM      1  C   UNL     1      -0.792   1.985   1.193  0.00  0.00    +0.144 C 
ATOM      2  C   UNL     1      -1.032   3.495   1.097  0.00  0.00    +0.120 C 
ATOM      3  N   UNL     1      -1.718   3.793  -0.161  0.00  0.00    -0.292 N 
ATOM      4  C   UNL     1      -1.551   3.023  -1.247  0.00  0.00    +0.302 C 
ATOM      5  O   UNL     1      -2.136   3.321  -2.270  0.00  0.00    -0.253 OA
ATOM      6  N   UNL     1      -0.762   1.937  -1.249  0.00  0.00    -0.264 N 
ATOM      7  C   UNL     1      -0.022   1.533  -0.052  0.00  0.00    +0.243 C 
ATOM      8  H   UNL     1      -2.306   4.563  -0.211  0.00  0.00    +0.151 HD
ATOM      9  H   UNL     1      -0.681   1.410  -2.059  0.00  0.00    +0.153 HD
ENDROOT
BRANCH   2  10
ATOM     10  C   UNL     1      -1.885   3.944   2.255  0.00  0.00    -0.026 A 
ATOM     11  C   UNL     1      -3.256   3.764   2.213  0.00  0.00    +0.009 A 
ATOM     12  C   UNL     1      -4.040   4.170   3.275  0.00  0.00    +0.046 A 
ATOM     13  C   UNL     1      -3.452   4.769   4.380  0.00  0.00    +0.117 A 
ATOM     14  C   UNL     1      -2.078   4.953   4.418  0.00  0.00    +0.046 A 
ATOM     15  C   UNL     1      -1.298   4.541   3.355  0.00  0.00    +0.009 A 
BRANCH  13  16
ATOM     16  O   UNL     1      -4.222   5.173   5.425  0.00  0.00    -0.507 OA
ATOM     17  H   UNL     1      -4.541   6.083   5.349  0.00  0.00    +0.292 HD
ENDBRANCH  13  16
ENDBRANCH   2  10
BRANCH   7  18
ATOM     18  C   UNL     1       0.130   0.010  -0.035  0.00  0.00    +0.436 C 
ATOM     19  F   UNL     1       0.940  -0.365   1.041  0.00  0.00    -0.166 F 
ATOM     20  F   UNL     1      -1.130  -0.582   0.101  0.00  0.00    -0.166 F 
ATOM     21  F   UNL     1       0.717  -0.413  -1.232  0.00  0.00    -0.166 F 
ENDBRANCH   7  18
BRANCH   1  22
ATOM     22  C   UNL     1       0.018   1.679   2.427  0.00  0.00    +0.173 C 
ATOM     23  O   UNL     1       1.078   2.237   2.611  0.00  0.00    -0.292 OA
BRANCH  22  27
ATOM     24  C   UNL     1      -1.415  -1.137   5.258  0.00  0.00    +0.000 A 
ATOM     25  C   UNL     1      -0.259  -0.422   5.522  0.00  0.00    +0.001 A 
ATOM     26  C   UNL     1       0.213   0.495   4.607  0.00  0.00    +0.011 A 
ATOM     27  C   UNL     1      -0.479   0.702   3.409  0.00  0.00    +0.018 A 
ATOM     28  C   UNL     1      -1.649  -0.021   3.152  0.00  0.00    +0.011 A 
ATOM     29  C   UNL     1      -2.105  -0.938   4.075  0.00  0.00    +0.001 A 
ENDBRANCH  22  27
ENDBRANCH   1  22
BRANCH   7  30
ATOM     30  O   UNL     1       1.271   2.141  -0.062  0.00  0.00    -0.364 OA
ATOM     31  H   UNL     1       1.813   1.901  -0.825  0.00  0.00    +0.212 HD
ENDBRANCH   7  30
TORSDOF 6
