REMARK  Name = ZINC40783453
REMARK  7 active torsions:
REMARK  status: ('A' for Active; 'I' for Inactive)
REMARK    1  A    between atoms: C_1  and  C_2
REMARK    2  A    between atoms: C_5  and  S_8
REMARK    3  A    between atoms: S_8  and  C_9
REMARK    4  A    between atoms: C_10  and  N_27
REMARK    5  A    between atoms: C_11  and  N_15
REMARK    6  A    between atoms: N_15  and  C_16
REMARK    7  A    between atoms: C_24  and  C_26
REMARK                            x       y       z     vdW  Elec       q    Type
REMARK                         _______ _______ _______ _____ _____    ______ ____
ROOT
ATOM      1  C   UNL     1       0.196  -4.970   1.678  0.00  0.00    +0.127 A 
ATOM      2  C   UNL     1       0.367  -6.304   2.058  0.00  0.00    +0.098 A 
ATOM      3  C   UNL     1       0.511  -6.589   3.416  0.00  0.00    +0.148 A 
ATOM      4  N   UNL     1       0.482  -5.587   4.292  0.00  0.00    -0.219 NA
ATOM      5  C   UNL     1       0.319  -4.342   3.892  0.00  0.00    +0.224 A 
ATOM      6  N   UNL     1       0.184  -4.029   2.620  0.00  0.00    -0.227 NA
ENDROOT
BRANCH   2   7
ATOM      7  N   UNL     1       0.391  -7.329   1.099  0.00  0.00    -0.353 N 
ATOM      8  H   UNL     1       0.289  -7.116   0.159  0.00  0.00    +0.142 HD
ATOM      9  H   UNL     1       0.510  -8.250   1.377  0.00  0.00    +0.142 HD
ENDBRANCH   2   7
BRANCH   3  10
ATOM     10  N   UNL     1       0.683  -7.900   3.848  0.00  0.00    -0.297 N 
ATOM     11  H   UNL     1       0.790  -8.614   3.201  0.00  0.00    +0.154 HD
BRANCH  10  12
ATOM     12  C   UNL     1       0.702  -8.187   5.211  0.00  0.00    +0.042 A 
ATOM     13  C   UNL     1       0.072  -7.349   6.109  0.00  0.00    +0.024 A 
ATOM     14  C   UNL     1       0.087  -7.630   7.470  0.00  0.00    +0.004 A 
ATOM     15  C   UNL     1       0.720  -8.734   7.956  0.00  0.00    +0.026 A 
ATOM     16  C   UNL     1       1.373  -9.614   7.077  0.00  0.00    +0.048 A 
ATOM     17  C   UNL     1       1.360  -9.340   5.687  0.00  0.00    +0.020 A 
ATOM     18  C   UNL     1       2.011 -10.225   4.810  0.00  0.00    +0.013 A 
ATOM     19  C   UNL     1       2.629 -11.322   5.342  0.00  0.00    +0.021 A 
ATOM     20  C   UNL     1       2.600 -11.537   6.717  0.00  0.00    +0.013 A 
ATOM     21  N   UNL     1       2.001 -10.704   7.533  0.00  0.00    -0.358 N 
ATOM     22  C   UNL     1       3.287 -12.753   7.284  0.00  0.00    +0.063 C 
ATOM     23  H   UNL     1       2.003 -10.887   8.486  0.00  0.00    +0.166 HD
ENDBRANCH  10  12
ENDBRANCH   3  10
BRANCH   1  24
ATOM     24  S   UNL     1       0.008  -4.540  -0.020  0.00  0.00    -0.068 S 
BRANCH  24  29
ATOM     25  C   UNL     1      -0.080   1.495   0.002  0.00  0.00    +0.044 C 
ATOM     26  C   UNL     1      -0.058  -0.012  -0.003  0.00  0.00    -0.050 A 
ATOM     27  C   UNL     1       1.150  -0.684  -0.029  0.00  0.00    +0.004 A 
ATOM     28  C   UNL     1       1.174  -2.065  -0.034  0.00  0.00    +0.015 A 
ATOM     29  C   UNL     1      -0.018  -2.778  -0.013  0.00  0.00    +0.014 A 
ATOM     30  C   UNL     1      -1.230  -2.100   0.013  0.00  0.00    +0.015 A 
ATOM     31  C   UNL     1      -1.246  -0.719   0.023  0.00  0.00    +0.004 A 
ENDBRANCH  24  29
ENDBRANCH   1  24
TORSDOF 5
