REMARK  Name = ZINC37392317
REMARK  5 active torsions:
REMARK  status: ('A' for Active; 'I' for Inactive)
REMARK    1  A    between atoms: C_3  and  C_9
REMARK    2  A    between atoms: C_4  and  O_8
REMARK    3  A    between atoms: C_6  and  O_7
REMARK    4  A    between atoms: C_9  and  N_10
REMARK    5  A    between atoms: N_10  and  C_11
REMARK                            x       y       z     vdW  Elec       q    Type
REMARK                         _______ _______ _______ _____ _____    ______ ____
ROOT
ATOM      1  C   UNL     1       3.670   2.196  -0.022  0.00  0.00    +0.140 C 
ENDROOT
BRANCH   1   4
ATOM      2  C   UNL     1      -0.017   1.383   0.010  0.00  0.00    +0.046 A 
ATOM      3  C   UNL     1       1.170   2.092   0.002  0.00  0.00    +0.012 A 
ATOM      4  C   UNL     1       2.377   1.421  -0.013  0.00  0.00    +0.011 A 
ATOM      5  C   UNL     1       2.402   0.033  -0.021  0.00  0.00    +0.125 A 
ATOM      6  C   UNL     1       1.213  -0.680  -0.013  0.00  0.00    +0.091 A 
ATOM      7  C   UNL     1       0.002  -0.004   0.002  0.00  0.00    +0.120 A 
BRANCH   7   8
ATOM      8  O   UNL     1      -1.165  -0.700   0.010  0.00  0.00    -0.507 OA
ATOM      9  H   UNL     1      -1.512  -0.897  -0.871  0.00  0.00    +0.292 HD
ENDBRANCH   7   8
BRANCH   5  10
ATOM     10  O   UNL     1       3.590  -0.626  -0.036  0.00  0.00    -0.506 OA
ATOM     11  H   UNL     1       3.942  -0.822   0.843  0.00  0.00    +0.292 HD
ENDBRANCH   5  10
ENDBRANCH   1   4
BRANCH   1  12
ATOM     12  N   UNL     1       4.199   2.249  -1.387  0.00  0.00    -0.338 N 
ATOM     13  H   UNL     1       3.717   1.818  -2.110  0.00  0.00    +0.146 HD
BRANCH  12  14
ATOM     14  C   UNL     1       5.397   2.919  -1.647  0.00  0.00    +0.046 A 
ATOM     15  C   UNL     1       6.091   3.531  -0.611  0.00  0.00    +0.025 A 
ATOM     16  C   UNL     1       7.275   4.192  -0.870  0.00  0.00    +0.017 A 
ATOM     17  C   UNL     1       7.772   4.246  -2.161  0.00  0.00    +0.019 A 
ATOM     18  C   UNL     1       7.083   3.638  -3.196  0.00  0.00    +0.037 A 
ATOM     19  C   UNL     1       5.900   2.970  -2.941  0.00  0.00    +0.063 A 
ATOM     20 CL   UNL     1       5.041   2.200  -4.238  0.00  0.00    -0.082 Cl
ATOM     21 BR   UNL     1       9.394   5.153  -2.511  0.00  0.00    -0.050 Br
ENDBRANCH  12  14
ENDBRANCH   1  12
TORSDOF 5
