REMARK  Name = ZINC12712326
REMARK  13 active torsions:
REMARK  status: ('A' for Active; 'I' for Inactive)
REMARK    1  A    between atoms: C_1  and  N_67
REMARK    2  A    between atoms: C_2  and  C_3
REMARK    3  A    between atoms: C_2  and  N_67
REMARK    4  A    between atoms: C_3  and  C_5
REMARK    5  A    between atoms: C_3  and  O_22
REMARK    6  A    between atoms: C_5  and  O_6
REMARK    7  A    between atoms: O_6  and  C_7
REMARK    8  A    between atoms: C_11  and  C_13
REMARK    9  A    between atoms: C_13  and  N_69
REMARK   10  A    between atoms: C_14  and  C_15
REMARK   11  A    between atoms: C_14  and  N_69
REMARK   12  A    between atoms: C_15  and  O_21
REMARK   13  A    between atoms: C_23  and  N_67
REMARK                            x       y       z     vdW  Elec       q    Type
REMARK                         _______ _______ _______ _____ _____    ______ ____
ROOT
ATOM      1  C   UNL     1      -2.367   1.256   2.958  0.00  0.00    +0.121 A 
ATOM      2  C   UNL     1      -2.009   2.470   3.526  0.00  0.00    +0.045 A 
ATOM      3  C   UNL     1      -1.008   3.230   2.953  0.00  0.00    +0.004 A 
ATOM      4  C   UNL     1      -0.359   2.779   1.818  0.00  0.00    +0.002 A 
ATOM      5  C   UNL     1      -0.718   1.572   1.248  0.00  0.00    -0.061 A 
ATOM      6  C   UNL     1      -1.719   0.808   1.817  0.00  0.00    +0.047 A 
ENDROOT
BRANCH   1   7
ATOM      7  O   UNL     1      -3.352   0.506   3.520  0.00  0.00    -0.489 OA
BRANCH   7   8
ATOM      8  C   UNL     1      -3.976   1.029   4.694  0.00  0.00    +0.258 C 
BRANCH   8   9
ATOM      9  C   UNL     1      -5.050   0.053   5.179  0.00  0.00    +0.135 C 
BRANCH   9  10
ATOM     10  O   UNL     1      -6.091  -0.032   4.204  0.00  0.00    -0.390 OA
ATOM     11  H   UNL     1      -6.531   0.810   4.023  0.00  0.00    +0.210 HD
ENDBRANCH   9  10
BRANCH   9  12
ATOM     12  C   UNL     1      -5.632   0.552   6.503  0.00  0.00    -0.044 C 
BRANCH  12  14
ATOM     13  C   UNL     1      -5.883  -1.685   7.397  0.00  0.00    -0.096 C 
ATOM     14  N   UNL     1      -6.595  -0.449   7.008  0.00  0.00    +0.381 N 
ATOM     15  H   UNL     1      -7.266  -0.672   6.263  0.00  0.00    -0.082 HD
BRANCH  14  16
ATOM     16  C   UNL     1      -7.330   0.097   8.168  0.00  0.00    -0.069 C 
ATOM     17  C   UNL     1      -6.372   0.371   9.329  0.00  0.00    -0.015 C 
ATOM     18  C   UNL     1      -7.157   0.933  10.516  0.00  0.00    -0.002 C 
ATOM     19  C   UNL     1      -8.213  -0.082  10.956  0.00  0.00    -0.000 C 
ATOM     20  C   UNL     1      -9.171  -0.356   9.795  0.00  0.00    -0.002 C 
ATOM     21  C   UNL     1      -8.387  -0.919   8.608  0.00  0.00    -0.015 C 
ENDBRANCH  14  16
ENDBRANCH  12  14
ENDBRANCH   9  12
ENDBRANCH   8   9
ENDBRANCH   7   8
ENDBRANCH   1   7
BRANCH   5  22
ATOM     22  C   UNL     1      -0.013   1.086   0.008  0.00  0.00    -0.047 C 
BRANCH  22  23
ATOM     23  N   UNL     1      -0.732   1.579  -1.182  0.00  0.00    +0.384 N 
ATOM     24  H   UNL     1      -0.746   2.605  -1.168  0.00  0.00    -0.085 HD
ATOM     25  H   UNL     1      -1.695   1.223  -1.167  0.00  0.00    -0.085 HD
BRANCH  23  26
ATOM     26  C   UNL     1      -0.062   1.117  -2.413  0.00  0.00    -0.047 C 
BRANCH  26  27
ATOM     27  C   UNL     1      -0.829   1.643  -3.628  0.00  0.00    +0.051 C 
ATOM     28  C   UNL     1      -2.296   1.216  -3.529  0.00  0.00    +0.033 C 
ATOM     29  C   UNL     1      -3.062   1.742  -4.744  0.00  0.00    +0.003 C 
ATOM     30  C   UNL     1      -2.449   1.166  -6.022  0.00  0.00    +0.000 C 
ATOM     31  C   UNL     1      -0.983   1.593  -6.121  0.00  0.00    +0.003 C 
ATOM     32  C   UNL     1      -0.216   1.067  -4.906  0.00  0.00    +0.033 C 
BRANCH  27  33
ATOM     33  O   UNL     1      -0.749   3.069  -3.661  0.00  0.00    -0.390 OA
ATOM     34  H   UNL     1      -1.121   3.502  -2.880  0.00  0.00    +0.210 HD
ENDBRANCH  27  33
ENDBRANCH  26  27
ENDBRANCH  23  26
ENDBRANCH  22  23
ENDBRANCH   5  22
TORSDOF 12
