REMARK  Name = ZINC67614379
REMARK  4 active torsions:
REMARK  status: ('A' for Active; 'I' for Inactive)
REMARK    1  A    between atoms: C_4  and  C_7
REMARK    2  A    between atoms: C_10  and  N_12
REMARK    3  A    between atoms: N_15  and  N_16
REMARK    4  A    between atoms: N_16  and  C_17
REMARK                            x       y       z     vdW  Elec       q    Type
REMARK                         _______ _______ _______ _____ _____    ______ ____
ROOT
ATOM      1  N   UNL     1       2.865  -2.159  -2.170  0.00  0.00    -0.295 N 
ATOM      2  C   UNL     1       3.217  -2.410  -3.446  0.00  0.00    +0.316 C 
ATOM      3  O   UNL     1       4.361  -2.728  -3.709  0.00  0.00    -0.251 OA
ATOM      4  N   UNL     1       2.302  -2.308  -4.430  0.00  0.00    -0.220 N 
ATOM      5  H   UNL     1       1.952  -1.905  -1.959  0.00  0.00    +0.151 HD
ATOM      6  H   UNL     1       2.556  -2.488  -5.349  0.00  0.00    +0.174 HD
ENDROOT
BRANCH   1   9
ATOM      7  C   UNL     1       3.622  -1.453   0.172  0.00  0.00    +0.041 C 
ATOM      8  C   UNL     1       3.432  -2.971   0.193  0.00  0.00    +0.033 C 
ATOM      9  C   UNL     1       3.859  -2.270  -1.099  0.00  0.00    +0.083 C 
BRANCH   7  13
ATOM     10  C   UNL     1       0.113   0.977   0.329  0.00  0.00    +0.000 A 
ATOM     11  C   UNL     1       1.362   1.558   0.446  0.00  0.00    +0.000 A 
ATOM     12  C   UNL     1       2.497   0.771   0.395  0.00  0.00    +0.004 A 
ATOM     13  C   UNL     1       2.384  -0.596   0.228  0.00  0.00    -0.042 A 
ATOM     14  C   UNL     1       1.135  -1.177   0.112  0.00  0.00    +0.004 A 
ATOM     15  C   UNL     1      -0.000  -0.391   0.162  0.00  0.00    +0.000 A 
ENDBRANCH   7  13
ENDBRANCH   1   9
BRANCH   4  16
ATOM     16  N   UNL     1       0.985  -1.941  -4.127  0.00  0.00    -0.258 N 
ATOM     17  H   UNL     1       0.749  -1.685  -3.221  0.00  0.00    +0.170 HD
BRANCH  16  18
ATOM     18  C   UNL     1       0.008  -1.943  -5.132  0.00  0.00    +0.121 A 
ATOM     19  C   UNL     1       0.039  -2.909  -6.130  0.00  0.00    +0.186 A 
ATOM     20  C   UNL     1      -0.927  -2.910  -7.122  0.00  0.00    +0.198 A 
ATOM     21  C   UNL     1      -1.926  -1.948  -7.119  0.00  0.00    +0.199 A 
ATOM     22  C   UNL     1      -1.959  -0.985  -6.123  0.00  0.00    +0.198 A 
ATOM     23  C   UNL     1      -0.997  -0.984  -5.127  0.00  0.00    +0.186 A 
ATOM     24  F   UNL     1      -1.033  -0.047  -4.154  0.00  0.00    -0.200 F 
ATOM     25  F   UNL     1      -2.933  -0.049  -6.122  0.00  0.00    -0.199 F 
ATOM     26  F   UNL     1      -2.868  -1.951  -8.087  0.00  0.00    -0.199 F 
ATOM     27  F   UNL     1      -0.897  -3.848  -8.094  0.00  0.00    -0.199 F 
ATOM     28  F   UNL     1       1.013  -3.845  -6.134  0.00  0.00    -0.200 F 
ENDBRANCH  16  18
ENDBRANCH   4  16
TORSDOF 4
