REMARK  Name = ZINC01387394
REMARK  5 active torsions:
REMARK  status: ('A' for Active; 'I' for Inactive)
REMARK    1  A    between atoms: C_4  and  C_8
REMARK    2  A    between atoms: C_8  and  S_9
REMARK    3  A    between atoms: S_9  and  C_10
REMARK    4  A    between atoms: C_15  and  C_20
REMARK    5  A    between atoms: C_16  and  N_19
REMARK                            x       y       z     vdW  Elec       q    Type
REMARK                         _______ _______ _______ _____ _____    ______ ____
ROOT
ATOM      1  C   UNL     1       1.266  -0.372  -0.012  0.00  0.00    +0.211 A 
ATOM      2  N   UNL     1       2.043   0.711  -0.014  0.00  0.00    -0.183 NA
ATOM      3  C   UNL     1       1.287   1.804  -0.001  0.00  0.00    +0.255 A 
ATOM      4  N   UNL     1       1.595   3.107   0.004  0.00  0.00    -0.218 NA
ATOM      5  C   UNL     1       0.661   4.032   0.017  0.00  0.00    +0.126 A 
ATOM      6  C   UNL     1      -0.694   3.669   0.028  0.00  0.00    +0.040 A 
ATOM      7  C   UNL     1      -1.024   2.314   0.029  0.00  0.00    +0.131 A 
ATOM      8  N   UNL     1      -0.017   1.397   0.010  0.00  0.00    -0.181 N 
ATOM      9  N   UNL     1       0.002  -0.004   0.002  0.00  0.00    -0.135 NA
ENDROOT
BRANCH   6  10
ATOM     10  C   UNL     1      -1.755   4.705   0.044  0.00  0.00    -0.013 A 
ATOM     11  C   UNL     1      -2.802   4.648  -0.874  0.00  0.00    +0.010 A 
ATOM     12  C   UNL     1      -3.790   5.612  -0.851  0.00  0.00    +0.020 A 
ATOM     13  C   UNL     1      -3.735   6.641   0.073  0.00  0.00    +0.041 A 
ATOM     14  C   UNL     1      -2.693   6.705   0.983  0.00  0.00    +0.020 A 
ATOM     15  C   UNL     1      -1.704   5.744   0.973  0.00  0.00    +0.010 A 
ATOM     16 CL   UNL     1      -4.977   7.854   0.092  0.00  0.00    -0.084 Cl
ENDBRANCH   6  10
BRANCH   7  17
ATOM     17  N   UNL     1      -2.340   1.913   0.046  0.00  0.00    -0.342 N 
ATOM     18  H   UNL     1      -2.558   0.968   0.044  0.00  0.00    +0.144 HD
ATOM     19  H   UNL     1      -3.049   2.574   0.060  0.00  0.00    +0.144 HD
ENDBRANCH   7  17
BRANCH   1  20
ATOM     20  S   UNL     1       1.842  -2.037  -0.027  0.00  0.00    -0.080 S 
BRANCH  20  21
ATOM     21  C   UNL     1       3.649  -1.877  -0.043  0.00  0.00    +0.117 C 
BRANCH  21  25
ATOM     22  C   UNL     1       5.423  -5.765  -0.082  0.00  0.00    +0.004 A 
ATOM     23  C   UNL     1       5.126  -5.130  -1.273  0.00  0.00    +0.039 A 
ATOM     24  C   UNL     1       4.551  -3.871  -1.262  0.00  0.00    +0.129 A 
ATOM     25  C   UNL     1       4.274  -3.248  -0.057  0.00  0.00    +0.016 A 
ATOM     26  C   UNL     1       4.578  -3.881   1.134  0.00  0.00    +0.048 A 
ATOM     27  C   UNL     1       5.148  -5.143   1.121  0.00  0.00    +0.020 A 
ATOM     28 CL   UNL     1       4.239  -3.098   2.646  0.00  0.00    -0.083 Cl
ATOM     29  F   UNL     1       4.259  -3.251  -2.426  0.00  0.00    -0.205 F 
ENDBRANCH  21  25
ENDBRANCH  20  21
ENDBRANCH   1  20
TORSDOF 5
