REMARK  Name = ZINC23567584
REMARK  15 active torsions:
REMARK  status: ('A' for Active; 'I' for Inactive)
REMARK    1  A    between atoms: C_1  and  C_2
REMARK    2  A    between atoms: C_3  and  C_34
REMARK    3  A    between atoms: C_4  and  C_33
REMARK    4  A    between atoms: C_5  and  S_10
REMARK    5  A    between atoms: C_6  and  C_9
REMARK    6  A    between atoms: C_7  and  C_8
REMARK    7  A    between atoms: S_10  and  N_13
REMARK    8  A    between atoms: N_13  and  C_14
REMARK    9  A    between atoms: C_14  and  C_15
REMARK   10  A    between atoms: C_15  and  C_16
REMARK   11  A    between atoms: N_18  and  N_19
REMARK   12  A    between atoms: C_20  and  C_22
REMARK   13  A    between atoms: C_22  and  C_24
REMARK   14  A    between atoms: C_22  and  O_25
REMARK   15  A    between atoms: O_25  and  C_26
REMARK                            x       y       z     vdW  Elec       q    Type
REMARK                         _______ _______ _______ _____ _____    ______ ____
ROOT
ATOM      1  C   UNL     1      -1.027  -1.448   4.536  0.00  0.00    +0.114 C 
ENDROOT
BRANCH   1   2
ATOM      2  C   UNL     1      -2.191  -1.247   5.472  0.00  0.00    +0.230 C 
ATOM      3  O   UNL     1      -3.100  -0.508   5.159  0.00  0.00    -0.274 OA
ATOM      4  N   UNL     1      -2.220  -1.887   6.658  0.00  0.00    -0.234 N 
ATOM      5  H   UNL     1      -1.395  -2.557   6.942  0.00  0.00    +0.173 HD
BRANCH   4   6
ATOM      6  N   UNL     1      -3.302  -1.700   7.529  0.00  0.00    -0.231 N 
ATOM      7  C   UNL     1      -3.331  -2.341   8.714  0.00  0.00    +0.270 C 
ATOM      8  O   UNL     1      -2.421  -3.079   9.027  0.00  0.00    -0.270 OA
ATOM      9  H   UNL     1      -4.127  -1.030   7.245  0.00  0.00    +0.173 HD
BRANCH   7  10
ATOM     10  C   UNL     1      -4.494  -2.139   9.650  0.00  0.00    +0.257 C 
ATOM     11  C   UNL     1      -5.768  -2.694   9.009  0.00  0.00    +0.062 C 
BRANCH  10  12
ATOM     12  O   UNL     1      -4.242  -2.825  10.878  0.00  0.00    -0.477 OA
BRANCH  12  13
ATOM     13  C   UNL     1      -4.875  -2.360  11.987  0.00  0.00    +0.157 A 
ATOM     14  C   UNL     1      -5.789  -1.322  11.881  0.00  0.00    +0.048 A 
ATOM     15  C   UNL     1      -6.432  -0.850  13.009  0.00  0.00    +0.004 A 
ATOM     16  C   UNL     1      -6.166  -1.412  14.245  0.00  0.00    +0.003 A 
ATOM     17  C   UNL     1      -5.256  -2.447  14.355  0.00  0.00    +0.042 A 
ATOM     18  C   UNL     1      -4.613  -2.926  13.228  0.00  0.00    +0.165 A 
ATOM     19  F   UNL     1      -3.727  -3.941  13.335  0.00  0.00    -0.202 F 
ENDBRANCH  12  13
ENDBRANCH  10  12
ENDBRANCH   7  10
ENDBRANCH   4   6
ENDBRANCH   1   2
BRANCH   1  20
ATOM     20  C   UNL     1      -1.240  -0.613   3.271  0.00  0.00    +0.115 C 
BRANCH  20  21
ATOM     21  N   UNL     1      -0.109  -0.809   2.361  0.00  0.00    -0.189 NA
ATOM     22  H   UNL     1       0.871  -1.113   2.758  0.00  0.00    +0.148 HD
BRANCH  21  23
ATOM     23  S   UNL     1      -0.229  -0.338   0.778  0.00  0.00    +0.059 S 
ATOM     24  O   UNL     1      -1.456  -0.864   0.289  0.00  0.00    -0.153 OA
ATOM     25  O   UNL     1       1.022  -0.631   0.171  0.00  0.00    -0.153 OA
BRANCH  23  30
ATOM     26  C   UNL     1      -0.796   5.669   0.744  0.00  0.00    +0.044 C 
ATOM     27  C   UNL     1      -0.654   4.169   0.752  0.00  0.00    -0.044 A 
ATOM     28  C   UNL     1      -1.776   3.368   0.640  0.00  0.00    -0.043 A 
ATOM     29  C   UNL     1      -1.646   1.992   0.648  0.00  0.00    -0.021 A 
ATOM     30  C   UNL     1      -0.395   1.416   0.768  0.00  0.00    +0.112 A 
ATOM     31  C   UNL     1       0.726   2.217   0.885  0.00  0.00    -0.021 A 
ATOM     32  C   UNL     1       0.597   3.593   0.872  0.00  0.00    -0.043 A 
ATOM     33  C   UNL     1       1.819   4.466   0.994  0.00  0.00    +0.044 C 
ATOM     34  C   UNL     1       2.090   1.589   1.021  0.00  0.00    +0.046 C 
ATOM     35  C   UNL     1      -2.868   1.119   0.526  0.00  0.00    +0.046 C 
ATOM     36  C   UNL     1      -3.139   3.996   0.509  0.00  0.00    +0.044 C 
ENDBRANCH  23  30
ENDBRANCH  21  23
ENDBRANCH  20  21
ENDBRANCH   1  20
TORSDOF 9
