REMARK  Name = ZINC63437220
REMARK  7 active torsions:
REMARK  status: ('A' for Active; 'I' for Inactive)
REMARK    1  A    between atoms: C_1  and  O_2
REMARK    2  A    between atoms: O_2  and  C_3
REMARK    3  A    between atoms: C_8  and  N_9
REMARK    4  A    between atoms: C_13  and  N_14
REMARK    5  A    between atoms: N_14  and  C_15
REMARK    6  A    between atoms: C_15  and  C_16
REMARK    7  A    between atoms: C_16  and  C_17
REMARK                            x       y       z     vdW  Elec       q    Type
REMARK                         _______ _______ _______ _____ _____    ______ ____
ROOT
ATOM      1  N   UNL     1      -0.037  -2.478  -0.116  0.00  0.00    -0.214 N 
ATOM      2  C   UNL     1       0.763  -3.005  -1.065  0.00  0.00    +0.263 C 
ATOM      3  O   UNL     1       1.970  -2.858  -1.017  0.00  0.00    -0.269 OA
ATOM      4  C   UNL     1       0.137  -3.764  -2.162  0.00  0.00    +0.113 C 
ATOM      5  C   UNL     1       0.893  -4.334  -3.169  0.00  0.00    +0.085 C 
ATOM      6  C   UNL     1      -1.332  -3.890  -2.138  0.00  0.00    +0.256 C 
ATOM      7  O   UNL     1      -1.921  -4.502  -3.009  0.00  0.00    -0.270 OA
ATOM      8  N   UNL     1      -2.005  -3.309  -1.123  0.00  0.00    -0.263 N 
ATOM      9  C   UNL     1      -1.368  -2.636  -0.154  0.00  0.00    +0.151 C 
ATOM     10  S   UNL     1      -2.304  -1.937   1.097  0.00  0.00    -0.018 S 
ATOM     11  H   UNL     1      -2.972  -3.382  -1.093  0.00  0.00    +0.157 HD
ENDROOT
BRANCH   1  17
ATOM     12  C   UNL     1       0.719  -0.376   0.820  0.00  0.00    +0.142 A 
ATOM     13  C   UNL     1       1.281   0.337   1.867  0.00  0.00    +0.047 A 
ATOM     14  C   UNL     1       1.663  -0.317   3.023  0.00  0.00    +0.004 A 
ATOM     15  C   UNL     1       1.487  -1.684   3.138  0.00  0.00    +0.002 A 
ATOM     16  C   UNL     1       0.928  -2.402   2.099  0.00  0.00    +0.027 A 
ATOM     17  C   UNL     1       0.536  -1.752   0.938  0.00  0.00    +0.085 A 
BRANCH  12  19
ATOM     18  C   UNL     1       0.560   1.678  -0.368  0.00  0.00    +0.277 C 
ATOM     19  O   UNL     1       0.343   0.267  -0.318  0.00  0.00    -0.493 OA
ENDBRANCH  12  19
ENDBRANCH   1  17
BRANCH   5  20
ATOM     20  N   UNL     1       0.312  -5.157  -4.065  0.00  0.00    -0.349 N 
ATOM     21  H   UNL     1      -0.617  -5.413  -3.957  0.00  0.00    +0.146 HD
BRANCH  20  22
ATOM     22  C   UNL     1       1.084  -5.664  -5.202  0.00  0.00    +0.105 C 
BRANCH  22  23
ATOM     23  C   UNL     1       0.196  -6.569  -6.059  0.00  0.00    +0.052 C 
BRANCH  23  24
ATOM     24  C   UNL     1       0.990  -7.091  -7.228  0.00  0.00    -0.040 C 
ATOM     25  C   UNL     1       1.642  -8.274  -7.306  0.00  0.00    -0.001 A 
ATOM     26  C   UNL     1       1.802  -9.385  -6.361  0.00  0.00    +0.010 A 
ATOM     27  C   UNL     1       2.530 -10.462  -6.732  0.00  0.00    +0.001 A 
ATOM     28  C   UNL     1       3.135 -10.544  -7.993  0.00  0.00    +0.002 A 
ATOM     29  C   UNL     1       3.034  -9.563  -8.915  0.00  0.00    +0.026 A 
ATOM     30  C   UNL     1       2.291  -8.384  -8.632  0.00  0.00    +0.043 A 
ATOM     31  N   UNL     1       2.050  -7.312  -9.346  0.00  0.00    -0.380 N 
ATOM     32  C   UNL     1       1.214  -6.401  -8.555  0.00  0.00    +0.144 C 
ATOM     33  H   UNL     1       2.367  -7.149 -10.248  0.00  0.00    +0.160 HD
ENDBRANCH  23  24
ENDBRANCH  22  23
ENDBRANCH  20  22
ENDBRANCH   5  20
TORSDOF 6
