REMARK  Name = ZINC36609398
REMARK  15 active torsions:
REMARK  status: ('A' for Active; 'I' for Inactive)
REMARK    1  A    between atoms: C_1  and  C_2
REMARK    2  A    between atoms: C_2  and  C_3
REMARK    3  A    between atoms: C_2  and  C_4
REMARK    4  A    between atoms: C_2  and  C_5
REMARK    5  A    between atoms: C_5  and  C_6
REMARK    6  A    between atoms: C_6  and  C_7
REMARK    7  A    between atoms: C_6  and  C_8
REMARK    8  A    between atoms: C_6  and  N_9
REMARK    9  A    between atoms: C_10  and  C_12
REMARK   10  A    between atoms: C_12  and  C_14
REMARK   11  A    between atoms: C_12  and  N_20
REMARK   12  A    between atoms: N_20  and  C_21
REMARK   13  A    between atoms: C_27  and  C_29
REMARK   14  A    between atoms: C_31  and  N_36
REMARK   15  A    between atoms: C_34  and  O_35
REMARK                            x       y       z     vdW  Elec       q    Type
REMARK                         _______ _______ _______ _____ _____    ______ ____
ROOT
ATOM      1  N   UNL     1       6.572   0.323  -4.389  0.00  0.00    -0.251 N 
ATOM      2  C   UNL     1       7.463  -0.466  -3.757  0.00  0.00    +0.255 C 
ATOM      3  O   UNL     1       8.655  -0.291  -3.923  0.00  0.00    -0.269 OA
ENDROOT
BRANCH   1   4
ATOM      4  C   UNL     1       6.993   1.163  -5.425  0.00  0.00    +0.038 A 
ATOM      5  C   UNL     1       7.890   2.191  -5.165  0.00  0.00    +0.023 A 
ATOM      6  C   UNL     1       8.304   3.019  -6.190  0.00  0.00    +0.002 A 
ATOM      7  C   UNL     1       7.827   2.826  -7.473  0.00  0.00    +0.000 A 
ATOM      8  C   UNL     1       6.933   1.804  -7.735  0.00  0.00    +0.002 A 
ATOM      9  C   UNL     1       6.519   0.969  -6.715  0.00  0.00    +0.023 A 
ENDBRANCH   1   4
BRANCH   2  10
ATOM     10  C   UNL     1       6.993  -1.542  -2.864  0.00  0.00    +0.081 A 
ATOM     11  C   UNL     1       5.646  -1.615  -2.500  0.00  0.00    +0.049 A 
ATOM     12  C   UNL     1       5.213  -2.622  -1.666  0.00  0.00    +0.127 A 
ATOM     13  C   UNL     1       6.108  -3.565  -1.186  0.00  0.00    +0.036 A 
ATOM     14  C   UNL     1       7.441  -3.505  -1.538  0.00  0.00    +0.048 A 
ATOM     15  C   UNL     1       7.893  -2.502  -2.381  0.00  0.00    +0.129 A 
BRANCH  12  16
ATOM     16  N   UNL     1       3.786  -2.697  -1.280  0.00  0.00    +0.056 N 
ATOM     17  O   UNL     1       2.986  -1.934  -1.770  0.00  0.00    -0.126 OA
ATOM     18  O   UNL     1       3.420  -3.521  -0.475  0.00  0.00    -0.126 OA
ENDBRANCH  12  16
BRANCH  15  19
ATOM     19  O   UNL     1       9.203  -2.445  -2.733  0.00  0.00    -0.506 OA
ATOM     20  H   UNL     1       9.748  -1.919  -2.133  0.00  0.00    +0.292 HD
ENDBRANCH  15  19
ENDBRANCH   2  10
BRANCH   1  21
ATOM     21  C   UNL     1       5.162   0.300  -3.991  0.00  0.00    +0.197 C 
BRANCH  21  22
ATOM     22  C   UNL     1       4.378   1.243  -4.867  0.00  0.00    -0.018 A 
ATOM     23  C   UNL     1       4.789   2.554  -5.013  0.00  0.00    +0.006 A 
ATOM     24  C   UNL     1       4.070   3.419  -5.817  0.00  0.00    +0.000 A 
ATOM     25  C   UNL     1       2.939   2.972  -6.475  0.00  0.00    +0.000 A 
ATOM     26  C   UNL     1       2.528   1.660  -6.329  0.00  0.00    +0.000 A 
ATOM     27  C   UNL     1       3.250   0.794  -5.529  0.00  0.00    +0.006 A 
ENDBRANCH  21  22
BRANCH  21  29
ATOM     28  N   UNL     1       3.826   0.787  -1.967  0.00  0.00    -0.308 N 
ATOM     29  C   UNL     1       5.039   0.732  -2.553  0.00  0.00    +0.239 C 
ATOM     30  O   UNL     1       6.031   1.029  -1.922  0.00  0.00    -0.273 OA
ATOM     31  H   UNL     1       3.033   0.549  -2.472  0.00  0.00    +0.149 HD
BRANCH  28  32
ATOM     32  C   UNL     1       3.707   1.206  -0.569  0.00  0.00    +0.030 C 
ATOM     33  C   UNL     1       4.556   2.458  -0.337  0.00  0.00    +0.031 C 
ATOM     34  C   UNL     1       4.197   0.081   0.345  0.00  0.00    +0.031 C 
BRANCH  32  35
ATOM     35  C   UNL     1       2.242   1.518  -0.253  0.00  0.00    +0.031 C 
BRANCH  35  37
ATOM     36  C   UNL     1       1.263   1.410  -2.549  0.00  0.00    +0.010 C 
ATOM     37  C   UNL     1       1.639   2.340  -1.394  0.00  0.00    -0.036 C 
ATOM     38  C   UNL     1       2.663   3.368  -1.880  0.00  0.00    +0.010 C 
ATOM     39  C   UNL     1       0.387   3.064  -0.894  0.00  0.00    +0.010 C 
ENDBRANCH  35  37
ENDBRANCH  32  35
ENDBRANCH  28  32
ENDBRANCH  21  29
ENDBRANCH   1  21
TORSDOF 10
