REMARK  Name = ZINC43212221
REMARK  11 active torsions:
REMARK  status: ('A' for Active; 'I' for Inactive)
REMARK    1  A    between atoms: C_1  and  C_2
REMARK    2  A    between atoms: C_2  and  C_3
REMARK    3  A    between atoms: C_3  and  C_4
REMARK    4  A    between atoms: C_4  and  C_5
REMARK    5  A    between atoms: C_5  and  C_39
REMARK    6  A    between atoms: C_10  and  C_13
REMARK    7  A    between atoms: C_14  and  C_26
REMARK    8  A    between atoms: N_15  and  C_25
REMARK    9  A    between atoms: N_16  and  C_19
REMARK   10  A    between atoms: N_29  and  C_32
REMARK   11  A    between atoms: C_32  and  C_33
REMARK                            x       y       z     vdW  Elec       q    Type
REMARK                         _______ _______ _______ _____ _____    ______ ____
ROOT
ATOM      1  C   UNL     1       1.526  -3.299  -1.891  0.00  0.00    +0.048 C 
ATOM      2  C   UNL     1       1.904  -4.793  -1.833  0.00  0.00    +0.086 C 
ATOM      3  C   UNL     1       3.234  -4.898  -2.627  0.00  0.00    +0.077 C 
ATOM      4  C   UNL     1       3.526  -3.460  -3.102  0.00  0.00    -0.020 C 
ATOM      5  N   UNL     1       2.812  -2.593  -2.120  0.00  0.00    +0.396 N 
ATOM      6  C   UNL     1       4.239  -5.302  -1.571  0.00  0.00    +0.225 C 
ATOM      7  O   UNL     1       5.420  -5.495  -1.766  0.00  0.00    -0.275 OA
ATOM      8  N   UNL     1       3.622  -5.413  -0.390  0.00  0.00    -0.237 N 
ATOM      9  C   UNL     1       2.294  -5.154  -0.418  0.00  0.00    +0.225 C 
ATOM     10  O   UNL     1       1.537  -5.198   0.528  0.00  0.00    -0.275 OA
ATOM     11  H   UNL     1       2.648  -1.679  -2.517  0.00  0.00    -0.083 HD
ATOM     12  H   UNL     1       3.332  -2.517  -1.259  0.00  0.00    -0.083 HD
ENDROOT
BRANCH   4  13
ATOM     13  C   UNL     1       5.006  -3.180  -3.051  0.00  0.00    +0.026 A 
ATOM     14  C   UNL     1       5.597  -2.163  -2.393  0.00  0.00    +0.040 A 
ATOM     15  N   UNL     1       6.947  -2.249  -2.587  0.00  0.00    -0.284 N 
ATOM     16  N   UNL     1       7.202  -3.364  -3.397  0.00  0.00    -0.217 N 
ATOM     17  C   UNL     1       6.018  -3.943  -3.680  0.00  0.00    +0.274 A 
ATOM     18  O   UNL     1       5.849  -4.941  -4.358  0.00  0.00    -0.266 OA
ATOM     19  C   UNL     1       7.953  -1.334  -2.042  0.00  0.00    +0.171 C 
ATOM     20  C   UNL     1       4.889  -1.108  -1.582  0.00  0.00    +0.065 C 
BRANCH  16  21
ATOM     21  C   UNL     1       8.459  -3.800  -3.828  0.00  0.00    +0.067 A 
ATOM     22  C   UNL     1       8.582  -4.486  -5.029  0.00  0.00    +0.028 A 
ATOM     23  C   UNL     1       9.825  -4.916  -5.452  0.00  0.00    +0.002 A 
ATOM     24  C   UNL     1      10.945  -4.665  -4.681  0.00  0.00    +0.000 A 
ATOM     25  C   UNL     1      10.825  -3.982  -3.484  0.00  0.00    +0.002 A 
ATOM     26  C   UNL     1       9.586  -3.544  -3.058  0.00  0.00    +0.028 A 
ENDBRANCH  16  21
ENDBRANCH   4  13
BRANCH   1  27
ATOM     27  C   UNL     1       0.574  -3.038  -3.030  0.00  0.00    +0.346 C 
ATOM     28  O   UNL     1       0.896  -2.287  -3.934  0.00  0.00    -0.248 OA
ATOM     29  O   UNL     1      -0.518  -3.580  -3.047  0.00  0.00    -0.248 OA
ENDBRANCH   1  27
BRANCH   1  30
ATOM     30  C   UNL     1       0.903  -2.855  -0.565  0.00  0.00    -0.000 C 
BRANCH  30  31
ATOM     31  C   UNL     1       0.612  -1.354  -0.616  0.00  0.00    -0.001 C 
BRANCH  31  33
ATOM     32  C   UNL     1      -0.303   0.591   0.658  0.00  0.00    +0.004 C 
ATOM     33  C   UNL     1      -0.011  -0.910   0.709  0.00  0.00    -0.003 C 
ENDBRANCH  31  33
ENDBRANCH  30  31
ENDBRANCH   1  30
BRANCH   8  34
ATOM     34  C   UNL     1       4.324  -5.793   0.839  0.00  0.00    +0.151 C 
BRANCH  34  35
ATOM     35  C   UNL     1       4.729  -4.551   1.590  0.00  0.00    -0.030 A 
ATOM     36  C   UNL     1       5.908  -3.903   1.271  0.00  0.00    +0.005 A 
ATOM     37  C   UNL     1       6.279  -2.764   1.960  0.00  0.00    +0.000 A 
ATOM     38  C   UNL     1       5.471  -2.272   2.968  0.00  0.00    +0.000 A 
ATOM     39  C   UNL     1       4.292  -2.918   3.287  0.00  0.00    +0.000 A 
ATOM     40  C   UNL     1       3.918  -4.055   2.595  0.00  0.00    +0.005 A 
ENDBRANCH  34  35
ENDBRANCH   8  34
TORSDOF 8
