REMARK  Name = ZINC18122317
REMARK  4 active torsions:
REMARK  status: ('A' for Active; 'I' for Inactive)
REMARK    1  A    between atoms: C_4  and  C_7
REMARK    2  A    between atoms: C_7  and  C_8
REMARK    3  A    between atoms: C_8  and  C_10
REMARK    4  A    between atoms: C_8  and  N_26
REMARK                            x       y       z     vdW  Elec       q    Type
REMARK                         _______ _______ _______ _____ _____    ______ ____
ROOT
ATOM      1  C   UNL     1       4.241  -0.888   1.190  0.00  0.00    +0.175 C 
ENDROOT
BRANCH   1   2
ATOM      2  C   UNL     1       5.422  -1.804   1.383  0.00  0.00    +0.246 C 
ATOM      3  O   UNL     1       6.411  -1.405   1.960  0.00  0.00    -0.273 OA
ATOM      4  N   UNL     1       5.378  -3.068   0.916  0.00  0.00    -0.237 N 
ATOM      5  C   UNL     1       4.190  -3.543   0.347  0.00  0.00    +0.055 A 
ATOM      6  C   UNL     1       2.963  -3.176   0.880  0.00  0.00    +0.025 A 
ATOM      7  C   UNL     1       1.794  -3.651   0.314  0.00  0.00    +0.002 A 
ATOM      8  C   UNL     1       1.837  -4.490  -0.784  0.00  0.00    +0.001 A 
ATOM      9  C   UNL     1       3.056  -4.862  -1.325  0.00  0.00    +0.017 A 
ATOM     10  C   UNL     1       4.228  -4.391  -0.762  0.00  0.00    +0.035 A 
ATOM     11  S   UNL     1       5.798  -4.849  -1.429  0.00  0.00    -0.086 S 
ATOM     12  C   UNL     1       6.850  -4.759  -0.014  0.00  0.00    +0.035 A 
ATOM     13  C   UNL     1       6.524  -3.868   1.008  0.00  0.00    +0.055 A 
ATOM     14  C   UNL     1       7.347  -3.786   2.120  0.00  0.00    +0.025 A 
ATOM     15  C   UNL     1       8.476  -4.581   2.204  0.00  0.00    +0.002 A 
ATOM     16  C   UNL     1       8.792  -5.459   1.185  0.00  0.00    +0.001 A 
ATOM     17  C   UNL     1       7.978  -5.553   0.080  0.00  0.00    +0.017 A 
ENDBRANCH   1   2
BRANCH   1  18
ATOM     18  N   UNL     1       4.583   0.456   1.662  0.00  0.00    -0.229 N 
ATOM     19  C   UNL     1       5.601   1.193   1.142  0.00  0.00    +0.226 C 
ATOM     20  O   UNL     1       6.213   0.972   0.119  0.00  0.00    -0.275 OA
ATOM     21  C   UNL     1       5.812   2.332   2.089  0.00  0.00    +0.087 C 
ATOM     22  C   UNL     1       6.254   3.675   1.550  0.00  0.00    +0.013 C 
ATOM     23  C   UNL     1       6.334   4.620   2.765  0.00  0.00    +0.001 C 
ATOM     24  C   UNL     1       5.003   4.711   3.503  0.00  0.00    +0.001 C 
ATOM     25  C   UNL     1       4.455   3.323   3.884  0.00  0.00    +0.013 C 
ATOM     26  C   UNL     1       4.358   2.515   2.618  0.00  0.00    +0.087 C 
ATOM     27  C   UNL     1       3.910   1.091   2.659  0.00  0.00    +0.226 C 
ATOM     28  O   UNL     1       3.111   0.600   3.428  0.00  0.00    -0.275 OA
ENDBRANCH   1  18
BRANCH   1  29
ATOM     29  C   UNL     1       3.879  -0.830  -0.296  0.00  0.00    +0.067 C 
BRANCH  29  33
ATOM     30  C   UNL     1       0.326   1.485  -0.808  0.00  0.00    +0.000 A 
ATOM     31  C   UNL     1       1.563   2.100  -0.847  0.00  0.00    +0.000 A 
ATOM     32  C   UNL     1       2.713   1.351  -0.681  0.00  0.00    +0.004 A 
ATOM     33  C   UNL     1       2.625  -0.013  -0.476  0.00  0.00    -0.045 A 
ATOM     34  C   UNL     1       1.388  -0.628  -0.436  0.00  0.00    +0.004 A 
ATOM     35  C   UNL     1       0.238   0.121  -0.603  0.00  0.00    +0.000 A 
ENDBRANCH  29  33
ENDBRANCH   1  29
TORSDOF 4
