REMARK  Name = ZINC09129456
REMARK  14 active torsions:
REMARK  status: ('A' for Active; 'I' for Inactive)
REMARK    1  A    between atoms: C_1  and  C_2
REMARK    2  A    between atoms: C_2  and  C_3
REMARK    3  A    between atoms: C_3  and  C_5
REMARK    4  A    between atoms: C_3  and  N_15
REMARK    5  A    between atoms: N_7  and  C_8
REMARK    6  A    between atoms: C_8  and  C_9
REMARK    7  A    between atoms: C_9  and  C_10
REMARK    8  A    between atoms: C_10  and  C_11
REMARK    9  A    between atoms: C_11  and  C_12
REMARK   10  A    between atoms: C_12  and  C_13
REMARK   11  A    between atoms: C_16  and  C_18
REMARK   12  A    between atoms: C_18  and  C_19
REMARK   13  A    between atoms: C_19  and  C_20
REMARK   14  A    between atoms: C_21  and  C_38
REMARK                            x       y       z     vdW  Elec       q    Type
REMARK                         _______ _______ _______ _____ _____    ______ ____
ROOT
ATOM      1  C   UNL     1      -5.486   3.987  -1.368  0.00  0.00    +0.100 C 
ENDROOT
BRANCH   1   3
ATOM      2  N   UNL     1      -7.459   4.946  -2.511  0.00  0.00    -0.304 N 
ATOM      3  C   UNL     1      -6.841   4.646  -1.351  0.00  0.00    +0.214 C 
ATOM      4  O   UNL     1      -7.377   4.906  -0.294  0.00  0.00    -0.276 OA
ATOM      5  H   UNL     1      -7.031   4.739  -3.356  0.00  0.00    +0.149 HD
BRANCH   2   6
ATOM      6  C   UNL     1      -8.776   5.587  -2.495  0.00  0.00    +0.159 C 
BRANCH   6   7
ATOM      7  C   UNL     1      -9.503   5.273  -3.777  0.00  0.00    +0.233 C 
ATOM      8  O   UNL     1      -8.972   4.582  -4.622  0.00  0.00    -0.274 OA
ATOM      9  N   UNL     1     -10.742   5.759  -3.986  0.00  0.00    -0.314 N 
ATOM     10  H   UNL     1     -11.167   6.311  -3.311  0.00  0.00    +0.149 HD
BRANCH   9  11
ATOM     11  C   UNL     1     -11.449   5.454  -5.233  0.00  0.00    +0.104 C 
BRANCH  11  12
ATOM     12  C   UNL     1     -12.825   6.122  -5.216  0.00  0.00    +0.019 C 
BRANCH  12  13
ATOM     13  C   UNL     1     -13.562   5.804  -6.518  0.00  0.00    +0.002 C 
BRANCH  13  14
ATOM     14  C   UNL     1     -14.938   6.472  -6.502  0.00  0.00    +0.011 C 
BRANCH  14  15
ATOM     15  C   UNL     1     -15.676   6.153  -7.804  0.00  0.00    +0.125 C 
BRANCH  15  16
ATOM     16  C   UNL     1     -17.032   6.812  -7.787  0.00  0.00    +0.356 C 
ATOM     17  O   UNL     1     -17.372   7.469  -6.832  0.00  0.00    -0.246 OA
ATOM     18  O   UNL     1     -17.860   6.669  -8.834  0.00  0.00    -0.246 OA
ENDBRANCH  15  16
ENDBRANCH  14  15
ENDBRANCH  13  14
ENDBRANCH  12  13
ENDBRANCH  11  12
ENDBRANCH   9  11
ENDBRANCH   6   7
BRANCH   6  20
ATOM     19  C   UNL     1      -7.981   7.428  -1.006  0.00  0.00    +0.006 C 
ATOM     20  C   UNL     1      -8.606   7.101  -2.363  0.00  0.00    +0.028 C 
ENDBRANCH   6  20
ENDBRANCH   2   6
ENDBRANCH   1   3
BRANCH   1  21
ATOM     21  C   UNL     1      -5.013   3.757   0.069  0.00  0.00    +0.052 C 
BRANCH  21  22
ATOM     22  C   UNL     1      -3.658   3.099   0.053  0.00  0.00    +0.041 A 
ATOM     23  C   UNL     1      -2.531   3.856   0.046  0.00  0.00    -0.030 A 
ATOM     24  C   UNL     1      -1.241   3.159   0.031  0.00  0.00    +0.022 A 
ATOM     25  C   UNL     1      -0.046   3.878   0.023  0.00  0.00    +0.023 A 
ATOM     26  C   UNL     1       1.162   3.193   0.008  0.00  0.00    +0.024 A 
ATOM     27  C   UNL     1       1.180   1.782   0.000  0.00  0.00    +0.139 A 
ATOM     28  C   UNL     1      -0.013   1.076   0.008  0.00  0.00    +0.093 A 
ATOM     29  C   UNL     1      -1.224   1.749   0.017  0.00  0.00    +0.143 A 
ATOM     30  O   UNL     1      -2.380   1.053   0.031  0.00  0.00    -0.422 OA
ATOM     31  C   UNL     1      -3.553   1.693   0.045  0.00  0.00    +0.341 A 
ATOM     32  O   UNL     1      -4.576   1.033   0.052  0.00  0.00    -0.245 OA
ATOM     33  O   UNL     1       2.475   1.400  -0.014  0.00  0.00    -0.459 OA
ATOM     34  C   UNL     1       3.293   2.466  -0.016  0.00  0.00    +0.109 A 
ATOM     35  C   UNL     1       2.568   3.596  -0.003  0.00  0.00    +0.001 A 
ATOM     36  C   UNL     1       3.140   4.989   0.002  0.00  0.00    +0.039 C 
ATOM     37  C   UNL     1       4.620   4.905   0.394  0.00  0.00    +0.005 C 
ATOM     38  C   UNL     1       5.308   3.830  -0.453  0.00  0.00    +0.008 C 
ATOM     39  C   UNL     1       4.805   2.445  -0.031  0.00  0.00    +0.075 C 
ATOM     40  C   UNL     1      -2.603   5.361   0.054  0.00  0.00    +0.045 C 
ENDBRANCH  21  22
ENDBRANCH   1  21
TORSDOF 12
