REMARK  Name = ZINC59794879
REMARK  10 active torsions:
REMARK  status: ('A' for Active; 'I' for Inactive)
REMARK    1  A    between atoms: C_2  and  C_3
REMARK    2  A    between atoms: C_3  and  N_4
REMARK    3  A    between atoms: C_5  and  C_25
REMARK    4  A    between atoms: C_8  and  S_9
REMARK    5  A    between atoms: S_9  and  C_10
REMARK    6  A    between atoms: C_10  and  C_11
REMARK    7  A    between atoms: C_11  and  C_12
REMARK    8  A    between atoms: N_14  and  C_15
REMARK    9  A    between atoms: C_18  and  S_21
REMARK   10  A    between atoms: S_21  and  N_24
REMARK                            x       y       z     vdW  Elec       q    Type
REMARK                         _______ _______ _______ _____ _____    ______ ____
ROOT
ATOM      1  C   UNL     1      -0.077  -5.606   0.047  0.00  0.00    +0.086 C 
ENDROOT
BRANCH   1   2
ATOM      2  S   UNL     1      -0.574  -3.973   0.662  0.00  0.00    -0.086 S 
BRANCH   2   7
ATOM      3  N   UNL     1      -1.474  -1.800  -0.851  0.00  0.00    -0.298 N 
ATOM      4  C   UNL     1      -1.693  -1.543  -2.185  0.00  0.00    +0.165 A 
ATOM      5  N   UNL     1      -1.387  -2.637  -2.844  0.00  0.00    -0.128 NA
ATOM      6  N   UNL     1      -0.998  -3.548  -2.024  0.00  0.00    -0.122 NA
ATOM      7  C   UNL     1      -1.026  -3.089  -0.793  0.00  0.00    +0.192 A 
BRANCH   4   8
ATOM      8  C   UNL     1      -2.180  -0.275  -2.767  0.00  0.00    +0.021 A 
ATOM      9  C   UNL     1      -2.768  -0.265  -4.033  0.00  0.00    +0.011 A 
ATOM     10  C   UNL     1      -3.221   0.922  -4.571  0.00  0.00    +0.002 A 
ATOM     11  C   UNL     1      -3.094   2.101  -3.860  0.00  0.00    +0.020 A 
ATOM     12  C   UNL     1      -2.511   2.099  -2.604  0.00  0.00    +0.042 A 
ATOM     13  C   UNL     1      -2.059   0.917  -2.051  0.00  0.00    +0.031 A 
ATOM     14 CL   UNL     1      -2.354   3.584  -1.718  0.00  0.00    -0.084 Cl
ENDBRANCH   4   8
BRANCH   3  15
ATOM     15  C   UNL     1      -1.675  -0.881   0.272  0.00  0.00    +0.152 C 
BRANCH  15  17
ATOM     16  C   UNL     1      -0.288   1.079   0.715  0.00  0.00    +0.005 C 
ATOM     17  C   UNL     1      -0.364  -0.225   0.624  0.00  0.00    -0.013 C 
ENDBRANCH  15  17
ENDBRANCH   3  15
ENDBRANCH   2   7
ENDBRANCH   1   2
BRANCH   1  18
ATOM     18  C   UNL     1       0.346  -6.487   1.224  0.00  0.00    +0.107 C 
BRANCH  18  19
ATOM     19  C   UNL     1       0.759  -7.843   0.713  0.00  0.00    +0.218 C 
ATOM     20  O   UNL     1       0.719  -8.082  -0.475  0.00  0.00    -0.275 OA
ATOM     21  N   UNL     1       1.172  -8.792   1.577  0.00  0.00    -0.285 N 
ATOM     22  H   UNL     1       1.140  -8.625   2.532  0.00  0.00    +0.155 HD
BRANCH  21  23
ATOM     23  C   UNL     1       1.649 -10.016   1.096  0.00  0.00    +0.033 A 
ATOM     24  C   UNL     1       1.419 -11.183   1.814  0.00  0.00    +0.025 A 
ATOM     25  C   UNL     1       1.891 -12.390   1.337  0.00  0.00    +0.030 A 
ATOM     26  C   UNL     1       2.591 -12.438   0.145  0.00  0.00    +0.105 A 
ATOM     27  C   UNL     1       2.822 -11.278  -0.572  0.00  0.00    +0.030 A 
ATOM     28  C   UNL     1       2.348 -10.069  -0.103  0.00  0.00    +0.025 A 
BRANCH  26  29
ATOM     29  S   UNL     1       3.191 -13.980  -0.460  0.00  0.00    +0.056 S 
ATOM     30  O   UNL     1       4.285 -13.682  -1.317  0.00  0.00    -0.153 OA
ATOM     31  O   UNL     1       3.318 -14.837   0.666  0.00  0.00    -0.153 OA
BRANCH  29  32
ATOM     32  N   UNL     1       2.003 -14.626  -1.416  0.00  0.00    -0.204 NA
ATOM     33  H   UNL     1       1.169 -14.148  -1.543  0.00  0.00    +0.144 HD
ATOM     34  H   UNL     1       2.141 -15.484  -1.848  0.00  0.00    +0.144 HD
ENDBRANCH  29  32
ENDBRANCH  26  29
ENDBRANCH  21  23
ENDBRANCH  18  19
ENDBRANCH   1  18
TORSDOF 10
