REMARK  Name = ZINC13500112
REMARK  12 active torsions:
REMARK  status: ('A' for Active; 'I' for Inactive)
REMARK    1  A    between atoms: C_1  and  C_2
REMARK    2  A    between atoms: C_2  and  C_3
REMARK    3  A    between atoms: C_3  and  C_4
REMARK    4  A    between atoms: C_4  and  C_6
REMARK    5  A    between atoms: C_4  and  N_72
REMARK    6  A    between atoms: N_10  and  C_11
REMARK    7  A    between atoms: C_11  and  C_12
REMARK    8  A    between atoms: C_12  and  C_13
REMARK    9  A    between atoms: C_19  and  C_20
REMARK   10  A    between atoms: C_19  and  N_72
REMARK   11  A    between atoms: C_26  and  C_32
REMARK   12  A    between atoms: C_33  and  N_72
REMARK                            x       y       z     vdW  Elec       q    Type
REMARK                         _______ _______ _______ _____ _____    ______ ____
ROOT
ATOM      1  N   UNL     1       1.517  -3.257   5.338  0.00  0.00    +0.391 N 
ATOM      2  H   UNL     1       1.841  -2.293   5.191  0.00  0.00    -0.080 HD
ENDROOT
BRANCH   1   3
ATOM      3  C   UNL     1       2.323  -4.168   4.499  0.00  0.00    -0.067 C 
ATOM      4  C   UNL     1       1.940  -5.641   4.752  0.00  0.00    -0.015 C 
ATOM      5  C   UNL     1       3.286  -6.403   4.667  0.00  0.00    -0.002 C 
ATOM      6  C   UNL     1       4.278  -5.423   5.340  0.00  0.00    -0.002 C 
ATOM      7  C   UNL     1       3.809  -4.029   4.872  0.00  0.00    -0.015 C 
ENDBRANCH   1   3
BRANCH   1   8
ATOM      8  C   UNL     1       1.682  -3.606   6.765  0.00  0.00    +0.003 C 
BRANCH   8   9
ATOM      9  C   UNL     1       0.693  -4.670   7.164  0.00  0.00    +0.138 A 
ATOM     10  N   UNL     1      -0.595  -4.672   6.921  0.00  0.00    -0.115 NA
ATOM     11  N   UNL     1      -1.093  -5.751   7.420  0.00  0.00    -0.023 NA
ATOM     12  N   UNL     1      -0.156  -6.437   7.976  0.00  0.00    -0.044 NA
ATOM     13  N   UNL     1       0.961  -5.806   7.834  0.00  0.00    -0.231 N 
BRANCH  13  14
ATOM     14  C   UNL     1       2.274  -6.243   8.315  0.00  0.00    +0.152 C 
BRANCH  14  15
ATOM     15  C   UNL     1       2.500  -5.713   9.732  0.00  0.00    +0.058 C 
BRANCH  15  16
ATOM     16  C   UNL     1       3.851  -6.162  10.227  0.00  0.00    -0.046 A 
ATOM     17  C   UNL     1       3.974  -7.358  10.910  0.00  0.00    +0.004 A 
ATOM     18  C   UNL     1       5.214  -7.773  11.359  0.00  0.00    +0.000 A 
ATOM     19  C   UNL     1       6.329  -6.987  11.136  0.00  0.00    +0.000 A 
ATOM     20  C   UNL     1       6.204  -5.788  10.459  0.00  0.00    +0.000 A 
ATOM     21  C   UNL     1       4.966  -5.376  10.004  0.00  0.00    +0.004 A 
ENDBRANCH  15  16
ENDBRANCH  14  15
ENDBRANCH  13  14
ENDBRANCH   8   9
BRANCH   8  22
ATOM     22  C   UNL     1       1.445  -2.349   7.605  0.00  0.00    -0.008 C 
BRANCH  22  24
ATOM     23  C   UNL     1       2.358  -0.102   8.208  0.00  0.00    +0.004 C 
ATOM     24  C   UNL     1       2.520  -1.309   7.282  0.00  0.00    -0.005 C 
ENDBRANCH  22  24
ENDBRANCH   8  22
ENDBRANCH   1   8
BRANCH   1  25
ATOM     25  C   UNL     1       0.092  -3.348   4.958  0.00  0.00    -0.036 C 
BRANCH  25  26
ATOM     26  C   UNL     1      -0.104  -2.639   3.643  0.00  0.00    +0.001 A 
ATOM     27  C   UNL     1      -0.151  -3.353   2.491  0.00  0.00    +0.017 A 
ATOM     28  C   UNL     1      -0.343  -2.634   1.230  0.00  0.00    -0.001 A 
ATOM     29  C   UNL     1      -0.399  -3.315   0.010  0.00  0.00    +0.010 A 
ATOM     30  C   UNL     1      -0.579  -2.615  -1.150  0.00  0.00    +0.001 A 
ATOM     31  C   UNL     1      -0.712  -1.234  -1.127  0.00  0.00    +0.005 A 
ATOM     32  C   UNL     1      -0.653  -0.541   0.063  0.00  0.00    -0.026 A 
ATOM     33  C   UNL     1      -0.471  -1.232   1.256  0.00  0.00    +0.052 A 
ATOM     34  N   UNL     1      -0.414  -0.565   2.461  0.00  0.00    -0.322 N 
ATOM     35  H   UNL     1      -0.502   0.401   2.478  0.00  0.00    +0.169 HD
ATOM     36  C   UNL     1      -0.238  -1.234   3.614  0.00  0.00    +0.251 A 
ATOM     37  O   UNL     1      -0.193  -0.612   4.661  0.00  0.00    -0.268 OA
ATOM     38  C   UNL     1      -0.792   0.960   0.072  0.00  0.00    +0.046 C 
ENDBRANCH  25  26
ENDBRANCH   1  25
TORSDOF 10
