REMARK  Name = ZINC23468600
REMARK  8 active torsions:
REMARK  status: ('A' for Active; 'I' for Inactive)
REMARK    1  A    between atoms: C_1  and  C_2
REMARK    2  A    between atoms: C_2  and  C_4
REMARK    3  A    between atoms: C_2  and  N_17
REMARK    4  A    between atoms: N_6  and  C_7
REMARK    5  A    between atoms: N_20  and  C_23
REMARK    6  A    between atoms: C_23  and  C_25
REMARK    7  A    between atoms: C_23  and  C_26
REMARK    8  A    between atoms: N_28  and  C_29
REMARK                            x       y       z     vdW  Elec       q    Type
REMARK                         _______ _______ _______ _____ _____    ______ ____
ROOT
ATOM      1  N   UNL     1       0.690  -0.478  -1.207  0.00  0.00    -0.289 NA
ATOM      2  C   UNL     1       2.065   0.036  -1.265  0.00  0.00    +0.100 C 
ATOM      3  C   UNL     1       2.771  -0.543  -2.494  0.00  0.00    +0.100 C 
ATOM      4  N   UNL     1       2.022  -0.175  -3.704  0.00  0.00    -0.289 NA
ATOM      5  C   UNL     1       0.647  -0.689  -3.645  0.00  0.00    +0.100 C 
ATOM      6  C   UNL     1      -0.059  -0.110  -2.417  0.00  0.00    +0.100 C 
ENDROOT
BRANCH   1   8
ATOM      7  C   UNL     1      -0.019   1.526   0.010  0.00  0.00    +0.034 C 
ATOM      8  C   UNL     1       0.002  -0.004   0.002  0.00  0.00    +0.140 C 
BRANCH   8   9
ATOM      9  C   UNL     1       0.731  -0.503   1.223  0.00  0.00    +0.230 C 
ATOM     10  O   UNL     1       1.725  -1.187   1.099  0.00  0.00    -0.274 OA
ATOM     11  N   UNL     1       0.278  -0.191   2.453  0.00  0.00    -0.308 N 
ATOM     12  H   UNL     1      -0.517   0.356   2.553  0.00  0.00    +0.149 HD
BRANCH  11  13
ATOM     13  C   UNL     1       0.986  -0.676   3.640  0.00  0.00    +0.035 C 
ATOM     14  C   UNL     1       2.422  -0.146   3.629  0.00  0.00    +0.029 C 
ATOM     15  C   UNL     1       3.162  -0.653   4.869  0.00  0.00    -0.008 C 
ATOM     16  C   UNL     1       2.446  -0.160   6.127  0.00  0.00    +0.007 C 
ATOM     17  C   UNL     1       1.010  -0.689   6.138  0.00  0.00    -0.008 C 
ATOM     18  C   UNL     1       0.270  -0.182   4.899  0.00  0.00    +0.029 C 
ATOM     19  C   UNL     1       1.031  -2.219   6.130  0.00  0.00    +0.007 C 
ATOM     20  C   UNL     1       1.747  -2.712   4.871  0.00  0.00    -0.008 C 
ATOM     21  C   UNL     1       3.183  -2.183   4.860  0.00  0.00    +0.007 C 
ATOM     22  C   UNL     1       1.007  -2.206   3.631  0.00  0.00    +0.029 C 
ENDBRANCH  11  13
ENDBRANCH   8   9
ENDBRANCH   1   8
BRANCH   4  23
ATOM     23  C   UNL     1       2.710  -0.649  -4.913  0.00  0.00    +0.140 C 
ATOM     24  C   UNL     1       2.622  -2.175  -4.984  0.00  0.00    +0.034 C 
BRANCH  23  25
ATOM     25  C   UNL     1       2.055  -0.050  -6.131  0.00  0.00    +0.230 C 
ATOM     26  O   UNL     1       1.109   0.698  -6.004  0.00  0.00    -0.274 OA
ATOM     27  N   UNL     1       2.521  -0.346  -7.360  0.00  0.00    -0.308 N 
ATOM     28  H   UNL     1       3.278  -0.944  -7.461  0.00  0.00    +0.149 HD
BRANCH  27  29
ATOM     29  C   UNL     1       1.884   0.236  -8.544  0.00  0.00    +0.035 C 
ATOM     30  C   UNL     1       1.972   1.762  -8.473  0.00  0.00    +0.029 C 
ATOM     31  C   UNL     1       1.307   2.370  -9.709  0.00  0.00    -0.008 C 
ATOM     32  C   UNL     1       2.023   1.877 -10.968  0.00  0.00    +0.007 C 
ATOM     33  C   UNL     1       1.935   0.351 -11.040  0.00  0.00    -0.008 C 
ATOM     34  C   UNL     1       2.600  -0.257  -9.803  0.00  0.00    +0.029 C 
ATOM     35  C   UNL     1       0.466  -0.074 -11.089  0.00  0.00    +0.007 C 
ATOM     36  C   UNL     1      -0.250   0.420  -9.830  0.00  0.00    -0.008 C 
ATOM     37  C   UNL     1      -0.162   1.946  -9.759  0.00  0.00    +0.007 C 
ATOM     38  C   UNL     1       0.415  -0.188  -8.594  0.00  0.00    +0.029 C 
ENDBRANCH  27  29
ENDBRANCH  23  25
ENDBRANCH   4  23
TORSDOF 6
