REMARK  Name = ZINC08305690
REMARK  4 active torsions:
REMARK  status: ('A' for Active; 'I' for Inactive)
REMARK    1  A    between atoms: C_1  and  C_2
REMARK    2  A    between atoms: C_9  and  C_11
REMARK    3  A    between atoms: N_13  and  N_14
REMARK    4  A    between atoms: C_15  and  C_17
REMARK                            x       y       z     vdW  Elec       q    Type
REMARK                         _______ _______ _______ _____ _____    ______ ____
ROOT
ATOM      1  C   UNL     1       1.609  -5.258   2.945  0.00  0.00    +0.267 C 
ATOM      2  O   UNL     1       1.772  -5.004   4.124  0.00  0.00    -0.268 OA
ATOM      3  N   UNL     1       1.697  -6.531   2.511  0.00  0.00    -0.230 N 
ATOM      4  H   UNL     1       1.568  -6.734   1.572  0.00  0.00    +0.173 HD
ENDROOT
BRANCH   1  12
ATOM      5  C   UNL     1      -0.019   1.526   0.010  0.00  0.00    +0.008 C 
ATOM      6  C   UNL     1       0.002  -0.004   0.002  0.00  0.00    -0.009 C 
ATOM      7  C   UNL     1       0.716  -0.496  -1.260  0.00  0.00    +0.009 C 
ATOM      8  C   UNL     1       0.494  -2.009  -1.394  0.00  0.00    +0.043 C 
ATOM      9  C   UNL     1       0.790  -2.651  -0.071  0.00  0.00    -0.006 A 
ATOM     10  C   UNL     1       0.909  -2.022   1.133  0.00  0.00    -0.036 A 
ATOM     11  C   UNL     1       1.189  -2.823   2.230  0.00  0.00    +0.024 A 
ATOM     12  C   UNL     1       1.319  -4.179   1.995  0.00  0.00    +0.076 A 
ATOM     13  S   UNL     1       1.042  -4.274   0.237  0.00  0.00    -0.088 S 
ATOM     14  C   UNL     1       0.739  -0.509   1.243  0.00  0.00    +0.039 C 
ENDBRANCH   1  12
BRANCH   3  15
ATOM     15  N   UNL     1       1.974  -7.562   3.418  0.00  0.00    -0.230 N 
ATOM     16  C   UNL     1       2.061  -8.836   2.985  0.00  0.00    +0.260 C 
ATOM     17  O   UNL     1       1.899  -9.090   1.807  0.00  0.00    -0.269 OA
ATOM     18  H   UNL     1       2.103  -7.360   4.358  0.00  0.00    +0.173 HD
BRANCH  16  19
ATOM     19  C   UNL     1       2.353  -9.922   3.941  0.00  0.00    +0.043 A 
ATOM     20  C   UNL     1       2.450 -11.242   3.493  0.00  0.00    +0.062 A 
ATOM     21  C   UNL     1       2.723 -12.256   4.390  0.00  0.00    +0.168 A 
ATOM     22  C   UNL     1       2.903 -11.962   5.742  0.00  0.00    +0.184 A 
ATOM     23  C   UNL     1       2.807 -10.649   6.187  0.00  0.00    +0.087 A 
ATOM     24  C   UNL     1       2.539  -9.632   5.295  0.00  0.00    +0.037 A 
ATOM     25 CL   UNL     1       3.031 -10.287   7.870  0.00  0.00    -0.080 Cl
ATOM     26  O   UNL     1       3.158 -13.123   6.410  0.00  0.00    -0.451 OA
ATOM     27  C   UNL     1       2.728 -14.177   5.528  0.00  0.00    +0.466 C 
ATOM     28  O   UNL     1       2.866 -13.603   4.215  0.00  0.00    -0.453 OA
ENDBRANCH  16  19
ENDBRANCH   3  15
TORSDOF 3
