REMARK  Name = ZINC27549972
REMARK  8 active torsions:
REMARK  status: ('A' for Active; 'I' for Inactive)
REMARK    1  A    between atoms: C_1  and  O_2
REMARK    2  A    between atoms: O_2  and  C_3
REMARK    3  A    between atoms: C_3  and  C_5
REMARK    4  A    between atoms: C_9  and  N_10
REMARK    5  A    between atoms: C_11  and  C_13
REMARK    6  A    between atoms: C_13  and  N_14
REMARK    7  A    between atoms: C_21  and  S_23
REMARK    8  A    between atoms: S_23  and  N_26
REMARK                            x       y       z     vdW  Elec       q    Type
REMARK                         _______ _______ _______ _____ _____    ______ ____
ROOT
ATOM      1  N   UNL     1       2.829  -2.275   0.084  0.00  0.00    -0.278 N 
ATOM      2  C   UNL     1       3.770  -3.118   0.552  0.00  0.00    +0.235 C 
ATOM      3  O   UNL     1       3.645  -4.314   0.395  0.00  0.00    -0.274 OA
ATOM      4  H   UNL     1       2.929  -1.318   0.210  0.00  0.00    +0.155 HD
ENDROOT
BRANCH   1   9
ATOM      5  C   UNL     1       0.659  -2.064  -1.123  0.00  0.00    +0.091 A 
ATOM      6  C   UNL     1      -0.388  -2.831  -1.776  0.00  0.00    -0.021 A 
ATOM      7  C   UNL     1      -0.188  -4.166  -1.759  0.00  0.00    -0.004 A 
ATOM      8  S   UNL     1       1.345  -4.379  -0.902  0.00  0.00    -0.077 S 
ATOM      9  C   UNL     1       1.718  -2.775  -0.578  0.00  0.00    +0.086 A 
ATOM     10  C   UNL     1      -1.080  -5.217  -2.343  0.00  0.00    +0.043 C 
ATOM     11  C   UNL     1      -2.447  -4.580  -2.636  0.00  0.00    +0.005 C 
ATOM     12  C   UNL     1      -2.230  -3.260  -3.380  0.00  0.00    +0.005 C 
ATOM     13  C   UNL     1      -1.619  -2.224  -2.434  0.00  0.00    +0.037 C 
BRANCH   5  14
ATOM     14  C   UNL     1       0.601  -0.603  -1.048  0.00  0.00    +0.342 C 
ATOM     15  O   UNL     1       1.094   0.071  -1.932  0.00  0.00    -0.245 OA
BRANCH  14  17
ATOM     16  C   UNL     1      -0.017   1.425   0.010  0.00  0.00    +0.280 C 
ATOM     17  O   UNL     1       0.002  -0.004   0.002  0.00  0.00    -0.464 OA
ENDBRANCH  14  17
ENDBRANCH   5  14
ENDBRANCH   1   9
BRANCH   2  18
ATOM     18  C   UNL     1       4.978  -2.575   1.272  0.00  0.00    +0.201 C 
BRANCH  18  19
ATOM     19  N   UNL     1       5.843  -3.685   1.679  0.00  0.00    -0.321 N 
ATOM     20  C   UNL     1       5.748  -4.400   2.954  0.00  0.00    +0.110 C 
ATOM     21  C   UNL     1       6.859  -5.461   2.905  0.00  0.00    +0.056 C 
ATOM     22  C   UNL     1       7.520  -5.257   1.560  0.00  0.00    -0.023 A 
ATOM     23  C   UNL     1       6.876  -4.218   0.906  0.00  0.00    +0.033 A 
ATOM     24  C   UNL     1       7.311  -3.847  -0.368  0.00  0.00    +0.025 A 
ATOM     25  C   UNL     1       8.362  -4.510  -0.965  0.00  0.00    +0.030 A 
ATOM     26  C   UNL     1       8.995  -5.547  -0.305  0.00  0.00    +0.105 A 
ATOM     27  C   UNL     1       8.576  -5.915   0.960  0.00  0.00    +0.034 A 
BRANCH  26  28
ATOM     28  S   UNL     1      10.338  -6.392  -1.072  0.00  0.00    +0.056 S 
ATOM     29  O   UNL     1      10.402  -7.679  -0.473  0.00  0.00    -0.153 OA
ATOM     30  O   UNL     1      10.185  -6.211  -2.473  0.00  0.00    -0.153 OA
BRANCH  28  31
ATOM     31  N   UNL     1      11.726  -5.599  -0.640  0.00  0.00    -0.204 NA
ATOM     32  H   UNL     1      11.680  -4.820  -0.064  0.00  0.00    +0.144 HD
ATOM     33  H   UNL     1      12.584  -5.913  -0.964  0.00  0.00    +0.144 HD
ENDBRANCH  28  31
ENDBRANCH  26  28
ENDBRANCH  18  19
ENDBRANCH   2  18
TORSDOF 7
