REMARK  Name = ZINC01774909
REMARK  7 active torsions:
REMARK  status: ('A' for Active; 'I' for Inactive)
REMARK    1  A    between atoms: C_5  and  C_7
REMARK    2  A    between atoms: N_11  and  C_15
REMARK    3  A    between atoms: C_15  and  C_16
REMARK    4  A    between atoms: C_16  and  C_17
REMARK    5  A    between atoms: N_19  and  N_20
REMARK    6  A    between atoms: C_21  and  C_23
REMARK    7  A    between atoms: C_28  and  O_29
REMARK                            x       y       z     vdW  Elec       q    Type
REMARK                         _______ _______ _______ _____ _____    ______ ____
ROOT
ATOM      1  C   UNL     1      -1.661  -6.551   1.901  0.00  0.00    +0.116 C 
ENDROOT
BRANCH   1   2
ATOM      2  C   UNL     1      -1.943  -8.026   2.026  0.00  0.00    +0.231 C 
ATOM      3  O   UNL     1      -2.108  -8.698   1.030  0.00  0.00    -0.274 OA
ATOM      4  N   UNL     1      -2.011  -8.599   3.244  0.00  0.00    -0.234 N 
ATOM      5  H   UNL     1      -1.879  -8.061   4.040  0.00  0.00    +0.173 HD
BRANCH   4   6
ATOM      6  N   UNL     1      -2.273  -9.970   3.360  0.00  0.00    -0.230 N 
ATOM      7  C   UNL     1      -2.341 -10.542   4.578  0.00  0.00    +0.264 C 
ATOM      8  O   UNL     1      -2.175  -9.869   5.577  0.00  0.00    -0.269 OA
ATOM      9  H   UNL     1      -2.405 -10.508   2.563  0.00  0.00    +0.173 HD
BRANCH   7  10
ATOM     10  C   UNL     1      -2.617 -11.986   4.700  0.00  0.00    +0.079 A 
ATOM     11  C   UNL     1      -2.803 -12.766   3.556  0.00  0.00    +0.017 A 
ATOM     12  C   UNL     1      -3.061 -14.114   3.676  0.00  0.00    +0.001 A 
ATOM     13  C   UNL     1      -3.136 -14.701   4.929  0.00  0.00    +0.004 A 
ATOM     14  C   UNL     1      -2.955 -13.943   6.068  0.00  0.00    +0.046 A 
ATOM     15  C   UNL     1      -2.689 -12.586   5.965  0.00  0.00    +0.129 A 
BRANCH  15  16
ATOM     16  O   UNL     1      -2.505 -11.841   7.083  0.00  0.00    -0.506 OA
ATOM     17  H   UNL     1      -3.318 -11.456   7.439  0.00  0.00    +0.292 HD
ENDBRANCH  15  16
ENDBRANCH   7  10
ENDBRANCH   4   6
ENDBRANCH   1   2
BRANCH   1  18
ATOM     18  C   UNL     1      -1.637  -6.160   0.422  0.00  0.00    +0.124 C 
BRANCH  18  23
ATOM     19  C   UNL     1       1.255  -2.153  -0.022  0.00  0.00    +0.029 C 
ATOM     20  C   UNL     1       0.099  -2.855   0.087  0.00  0.00    +0.077 C 
ATOM     21  C   UNL     1      -0.110  -4.313   0.207  0.00  0.00    +0.258 C 
ATOM     22  O   UNL     1       0.823  -5.094   0.220  0.00  0.00    -0.269 OA
ATOM     23  N   UNL     1      -1.363  -4.726   0.301  0.00  0.00    -0.255 N 
ATOM     24  C   UNL     1      -2.394  -3.857   0.286  0.00  0.00    +0.121 C 
ATOM     25  S   UNL     1      -4.069  -4.193   0.396  0.00  0.00    -0.027 S 
ATOM     26  S   UNL     1      -1.590  -2.270   0.134  0.00  0.00    -0.061 S 
BRANCH  19  31
ATOM     27  C   UNL     1       0.119   1.346   0.701  0.00  0.00    +0.001 A 
ATOM     28  C   UNL     1       1.197   2.080   0.234  0.00  0.00    +0.001 A 
ATOM     29  C   UNL     1       2.293   1.440  -0.316  0.00  0.00    +0.020 A 
ATOM     30  C   UNL     1       2.321   0.063  -0.403  0.00  0.00    +0.048 A 
ATOM     31  C   UNL     1       1.235  -0.686   0.067  0.00  0.00    -0.005 A 
ATOM     32  C   UNL     1       0.130  -0.030   0.621  0.00  0.00    +0.009 A 
ATOM     33 CL   UNL     1       3.697  -0.739  -1.094  0.00  0.00    -0.083 Cl
ENDBRANCH  19  31
ENDBRANCH  18  23
ENDBRANCH   1  18
TORSDOF 7
