REMARK  Name = ZINC13961359
REMARK  14 active torsions:
REMARK  status: ('A' for Active; 'I' for Inactive)
REMARK    1  A    between atoms: C_1  and  C_2
REMARK    2  A    between atoms: C_2  and  C_3
REMARK    3  A    between atoms: C_4  and  C_30
REMARK    4  A    between atoms: C_6  and  N_13
REMARK    5  A    between atoms: C_7  and  C_8
REMARK    6  A    between atoms: C_8  and  O_10
REMARK    7  A    between atoms: O_10  and  C_11
REMARK    8  A    between atoms: C_11  and  C_12
REMARK    9  A    between atoms: C_14  and  C_16
REMARK   10  A    between atoms: C_18  and  C_29
REMARK   11  A    between atoms: C_22  and  C_28
REMARK   12  A    between atoms: N_24  and  C_25
REMARK   13  A    between atoms: C_25  and  C_26
REMARK   14  A    between atoms: C_25  and  C_27
REMARK                            x       y       z     vdW  Elec       q    Type
REMARK                         _______ _______ _______ _____ _____    ______ ____
ROOT
ATOM      1  N   UNL     1      -3.185   2.279   6.030  0.00  0.00    -0.275 N 
ATOM      2  C   UNL     1      -2.472   2.682   4.959  0.00  0.00    +0.249 C 
ATOM      3  O   UNL     1      -2.240   3.863   4.793  0.00  0.00    -0.270 OA
ATOM      4  H   UNL     1      -3.370   1.336   6.162  0.00  0.00    +0.156 HD
ENDROOT
BRANCH   2   5
ATOM      5  C   UNL     1      -1.973   1.686   3.987  0.00  0.00    +0.051 A 
ATOM      6  C   UNL     1      -2.744   0.583   3.626  0.00  0.00    +0.037 A 
ATOM      7  C   UNL     1      -2.241  -0.327   2.709  0.00  0.00    +0.041 A 
ATOM      8  N   UNL     1      -1.055  -0.173   2.163  0.00  0.00    -0.233 NA
ATOM      9  C   UNL     1      -0.275   0.857   2.457  0.00  0.00    +0.160 A 
ATOM     10  C   UNL     1      -0.704   1.830   3.382  0.00  0.00    +0.054 A 
ATOM     11  C   UNL     1       0.324   2.791   3.481  0.00  0.00    +0.070 A 
ATOM     12  N   UNL     1       1.299   2.439   2.693  0.00  0.00    -0.174 NA
ATOM     13  N   UNL     1       0.972   1.244   2.041  0.00  0.00    -0.244 N 
ATOM     14  C   UNL     1       0.298   4.020   4.353  0.00  0.00    +0.068 C 
ATOM     15  C   UNL     1      -3.076  -1.522   2.328  0.00  0.00    +0.065 C 
BRANCH  13  16
ATOM     16  C   UNL     1       1.815   0.533   1.077  0.00  0.00    +0.103 C 
ATOM     17  C   UNL     1       3.135   0.141   1.744  0.00  0.00    +0.032 C 
ATOM     18  C   UNL     1       2.099   1.443  -0.120  0.00  0.00    +0.032 C 
ENDBRANCH  13  16
ENDBRANCH   2   5
BRANCH   1  22
ATOM     19  C   UNL     1      -4.753   4.161   8.867  0.00  0.00    -0.022 A 
ATOM     20  C   UNL     1      -4.335   5.353   8.406  0.00  0.00    -0.008 A 
ATOM     21  S   UNL     1      -3.445   4.931   6.922  0.00  0.00    -0.078 S 
ATOM     22  C   UNL     1      -3.652   3.212   6.940  0.00  0.00    +0.087 A 
ATOM     23  C   UNL     1      -4.398   2.994   8.095  0.00  0.00    +0.091 A 
ATOM     24  C   UNL     1      -4.560   6.718   9.004  0.00  0.00    +0.052 C 
BRANCH  19  26
ATOM     25  C   UNL     1      -4.613   3.877  11.326  0.00  0.00    +0.009 C 
ATOM     26  C   UNL     1      -5.559   4.048  10.136  0.00  0.00    +0.033 C 
ENDBRANCH  19  26
BRANCH  23  27
ATOM     27  C   UNL     1      -4.802   1.648   8.506  0.00  0.00    +0.342 C 
ATOM     28  O   UNL     1      -4.081   0.992   9.233  0.00  0.00    -0.245 OA
BRANCH  27  29
ATOM     29  O   UNL     1      -5.975   1.136   8.079  0.00  0.00    -0.461 OA
BRANCH  29  30
ATOM     30  C   UNL     1      -6.311  -0.204   8.526  0.00  0.00    +0.229 C 
ATOM     31  C   UNL     1      -7.666  -0.611   7.944  0.00  0.00    +0.048 C 
ENDBRANCH  29  30
ENDBRANCH  27  29
ENDBRANCH  23  27
ENDBRANCH   1  22
TORSDOF 7
