REMARK  Name = ZINC37709246
REMARK  8 active torsions:
REMARK  status: ('A' for Active; 'I' for Inactive)
REMARK    1  A    between atoms: C_1  and  O_2
REMARK    2  A    between atoms: O_2  and  C_3
REMARK    3  A    between atoms: C_5  and  C_20
REMARK    4  A    between atoms: C_6  and  N_17
REMARK    5  A    between atoms: C_8  and  O_9
REMARK    6  A    between atoms: O_9  and  C_10
REMARK    7  A    between atoms: C_10  and  C_11
REMARK    8  A    between atoms: C_20  and  N_21
REMARK                            x       y       z     vdW  Elec       q    Type
REMARK                         _______ _______ _______ _____ _____    ______ ____
ROOT
ATOM      1  C   UNL     1       0.606  -0.608  -1.056  0.00  0.00    +0.162 A 
ATOM      2  C   UNL     1       1.173   0.159  -2.062  0.00  0.00    +0.053 A 
ATOM      3  C   UNL     1       1.787  -0.456  -3.137  0.00  0.00    -0.031 A 
ATOM      4  C   UNL     1       1.837  -1.836  -3.212  0.00  0.00    +0.131 A 
ATOM      5  C   UNL     1       1.274  -2.606  -2.212  0.00  0.00    +0.082 A 
ATOM      6  C   UNL     1       0.662  -1.996  -1.129  0.00  0.00    +0.165 A 
ENDROOT
BRANCH   4   7
ATOM      7  N   UNL     1       2.495  -2.489  -4.366  0.00  0.00    +0.057 N 
ATOM      8  O   UNL     1       2.540  -3.695  -4.433  0.00  0.00    -0.126 OA
ATOM      9  O   UNL     1       2.988  -1.816  -5.241  0.00  0.00    -0.126 OA
ENDBRANCH   4   7
BRANCH   1  11
ATOM     10  C   UNL     1      -0.017   1.425   0.010  0.00  0.00    +0.277 C 
ATOM     11  O   UNL     1       0.002  -0.004   0.002  0.00  0.00    -0.491 OA
ENDBRANCH   1  11
BRANCH   6  12
ATOM     12  O   UNL     1       0.112  -2.753  -0.142  0.00  0.00    -0.483 OA
BRANCH  12  13
ATOM     13  C   UNL     1       0.206  -4.171  -0.283  0.00  0.00    +0.271 C 
BRANCH  13  14
ATOM     14  C   UNL     1      -0.453  -4.839   0.897  0.00  0.00    +0.028 A 
ATOM     15  C   UNL     1      -1.742  -5.231   1.045  0.00  0.00    +0.016 A 
ATOM     16  C   UNL     1      -2.128  -5.830   2.229  0.00  0.00    +0.023 A 
ATOM     17  C   UNL     1      -1.206  -6.008   3.208  0.00  0.00    +0.055 A 
ATOM     18  S   UNL     1       0.263  -5.324   2.459  0.00  0.00    -0.083 S 
ATOM     19 BR   UNL     1      -1.419  -6.784   4.919  0.00  0.00    -0.043 Br
ENDBRANCH  13  14
ENDBRANCH  12  13
ENDBRANCH   6  12
BRANCH   3  20
ATOM     20  C   UNL     1       2.403   0.379  -4.230  0.00  0.00    -0.048 C 
BRANCH  20  21
ATOM     21  N   UNL     1       1.484   0.443  -5.374  0.00  0.00    +0.381 N 
ATOM     22  H   UNL     1       1.896   1.003  -6.106  0.00  0.00    -0.090 HD
ATOM     23  H   UNL     1       1.311  -0.489  -5.720  0.00  0.00    -0.090 HD
ATOM     24  H   UNL     1       0.612   0.860  -5.082  0.00  0.00    -0.090 HD
ENDBRANCH  20  21
ENDBRANCH   3  20
TORSDOF 7
