REMARK  Name = ZINC02249529
REMARK  6 active torsions:
REMARK  status: ('A' for Active; 'I' for Inactive)
REMARK    1  A    between atoms: C_1  and  C_2
REMARK    2  A    between atoms: C_3  and  C_32
REMARK    3  A    between atoms: C_8  and  C_23
REMARK    4  A    between atoms: C_26  and  C_29
REMARK    5  A    between atoms: C_29  and  C_30
REMARK    6  A    between atoms: C_29  and  C_31
REMARK                            x       y       z     vdW  Elec       q    Type
REMARK                         _______ _______ _______ _____ _____    ______ ____
ROOT
ATOM      1  C   UNL     1       4.272  -6.853  -0.073  0.00  0.00    +0.066 C 
ATOM      2  C   UNL     1       4.654  -5.395  -0.070  0.00  0.00    +0.050 A 
ATOM      3  C   UNL     1       5.957  -5.019  -0.080  0.00  0.00    +0.011 A 
ATOM      4  S   UNL     1       5.790  -3.240  -0.070  0.00  0.00    -0.057 S 
ATOM      5  C   UNL     1       4.055  -3.177  -0.053  0.00  0.00    +0.169 A 
ATOM      6  N   UNL     1       3.730  -4.455  -0.051  0.00  0.00    -0.229 NA
ATOM      7  N   UNL     1       3.223  -2.066  -0.040  0.00  0.00    -0.232 N 
ATOM      8  C   UNL     1       1.755  -2.086  -0.026  0.00  0.00    +0.151 C 
ATOM      9  C   UNL     1       1.320  -0.644  -0.014  0.00  0.00    +0.072 A 
ATOM     10  C   UNL     1       0.002  -0.004   0.002  0.00  0.00    +0.199 A 
ATOM     11  O   UNL     1      -1.026  -0.658   0.008  0.00  0.00    -0.287 OA
ATOM     12  C   UNL     1      -0.018   1.472   0.010  0.00  0.00    +0.064 A 
ATOM     13  C   UNL     1      -1.216   2.184   0.020  0.00  0.00    +0.015 A 
ATOM     14  C   UNL     1      -1.191   3.551   0.033  0.00  0.00    +0.001 A 
ATOM     15  C   UNL     1       0.020   4.230   0.025  0.00  0.00    +0.004 A 
ATOM     16  C   UNL     1       1.214   3.543   0.009  0.00  0.00    +0.047 A 
ATOM     17  C   UNL     1       1.213   2.151   0.002  0.00  0.00    +0.139 A 
ATOM     18  O   UNL     1       2.370   1.465  -0.013  0.00  0.00    -0.450 OA
ATOM     19  C   UNL     1       2.441   0.119  -0.021  0.00  0.00    +0.199 A 
ATOM     20  C   UNL     1       3.619  -0.781  -0.037  0.00  0.00    +0.289 C 
ATOM     21  O   UNL     1       4.777  -0.411  -0.046  0.00  0.00    -0.266 OA
ATOM     22  C   UNL     1       7.202  -5.868  -0.096  0.00  0.00    +0.053 C 
ENDROOT
BRANCH   8  23
ATOM     23  C   UNL     1       1.257  -2.789   1.211  0.00  0.00    -0.022 A 
ATOM     24  C   UNL     1       1.935  -2.645   2.407  0.00  0.00    +0.006 A 
ATOM     25  C   UNL     1       1.476  -3.285   3.543  0.00  0.00    +0.004 A 
ATOM     26  C   UNL     1       0.345  -4.078   3.480  0.00  0.00    -0.045 A 
ATOM     27  C   UNL     1      -0.330  -4.226   2.282  0.00  0.00    +0.004 A 
ATOM     28  C   UNL     1       0.127  -3.582   1.148  0.00  0.00    +0.006 A 
BRANCH  26  29
ATOM     29  C   UNL     1      -0.153  -4.780   4.717  0.00  0.00    +0.013 C 
ATOM     30  C   UNL     1       0.932  -5.724   5.239  0.00  0.00    +0.012 C 
ATOM     31  C   UNL     1      -0.488  -3.744   5.792  0.00  0.00    +0.012 C 
ENDBRANCH  26  29
ENDBRANCH   8  23
TORSDOF 2
