REMARK  Name = ZINC11954850
REMARK  10 active torsions:
REMARK  status: ('A' for Active; 'I' for Inactive)
REMARK    1  A    between atoms: C_1  and  N_60
REMARK    2  A    between atoms: C_4  and  C_7
REMARK    3  A    between atoms: C_7  and  N_62
REMARK    4  A    between atoms: C_8  and  C_9
REMARK    5  A    between atoms: C_8  and  N_62
REMARK    6  A    between atoms: C_9  and  C_10
REMARK    7  A    between atoms: C_13  and  O_16
REMARK    8  A    between atoms: O_16  and  C_17
REMARK    9  A    between atoms: C_18  and  C_19
REMARK   10  A    between atoms: C_18  and  N_62
REMARK                            x       y       z     vdW  Elec       q    Type
REMARK                         _______ _______ _______ _____ _____    ______ ____
ROOT
ATOM      1  N   UNL     1       1.003   5.841   1.389  0.00  0.00    +0.383 N 
ATOM      2  H   UNL     1       1.724   6.196   0.750  0.00  0.00    -0.081 HD
ENDROOT
BRANCH   1   3
ATOM      3  C   UNL     1       1.433   6.084   2.782  0.00  0.00    -0.075 C 
BRANCH   3   7
ATOM      4  C   UNL     1       4.829  10.569   3.797  0.00  0.00    -0.096 C 
ATOM      5  C   UNL     1       2.914   9.231   4.433  0.00  0.00    -0.079 C 
ATOM      6  C   UNL     1       2.303   7.830   4.346  0.00  0.00    -0.017 C 
ATOM      7  C   UNL     1       1.988   7.506   2.883  0.00  0.00    -0.031 C 
ATOM      8  C   UNL     1       3.273   7.614   2.056  0.00  0.00    -0.017 C 
ATOM      9  C   UNL     1       3.856   9.021   2.210  0.00  0.00    -0.079 C 
ATOM     10  N   UNL     1       4.160   9.261   3.636  0.00  0.00    +0.378 N 
ATOM     11  H   UNL     1       4.788   8.522   3.972  0.00  0.00    -0.082 HD
ENDBRANCH   3   7
ENDBRANCH   1   3
BRANCH   1  12
ATOM     12  C   UNL     1       0.831   4.391   1.160  0.00  0.00    -0.074 C 
BRANCH  12  13
ATOM     13  C   UNL     1       1.016   4.107  -0.332  0.00  0.00    +0.016 C 
BRANCH  13  14
ATOM     14  C   UNL     1       0.991   2.619  -0.567  0.00  0.00    -0.049 A 
ATOM     15  C   UNL     1      -0.208   1.982  -0.831  0.00  0.00    +0.007 A 
ATOM     16  C   UNL     1      -0.234   0.618  -1.047  0.00  0.00    +0.046 A 
ATOM     17  C   UNL     1       0.945  -0.114  -0.999  0.00  0.00    +0.120 A 
ATOM     18  C   UNL     1       2.146   0.528  -0.734  0.00  0.00    +0.046 A 
ATOM     19  C   UNL     1       2.166   1.892  -0.519  0.00  0.00    +0.007 A 
BRANCH  17  20
ATOM     20  O   UNL     1       0.922  -1.456  -1.210  0.00  0.00    -0.495 OA
ATOM     21  C   UNL     1       2.172  -2.144  -1.146  0.00  0.00    +0.277 C 
ENDBRANCH  17  20
ENDBRANCH  13  14
ENDBRANCH  12  13
ENDBRANCH   1  12
BRANCH   1  22
ATOM     22  C   UNL     1      -0.267   6.549   1.122  0.00  0.00    -0.041 C 
BRANCH  22  23
ATOM     23  C   UNL     1      -0.557   6.483  -0.356  0.00  0.00    -0.042 A 
ATOM     24  C   UNL     1      -1.576   5.674  -0.823  0.00  0.00    +0.052 A 
ATOM     25  C   UNL     1      -1.848   5.615  -2.180  0.00  0.00    +0.167 A 
ATOM     26  C   UNL     1      -1.087   6.366  -3.073  0.00  0.00    +0.168 A 
ATOM     27  C   UNL     1      -0.064   7.171  -2.599  0.00  0.00    +0.069 A 
ATOM     28  C   UNL     1       0.199   7.229  -1.242  0.00  0.00    +0.046 A 
ATOM     29 CL   UNL     1       1.482   8.238  -0.650  0.00  0.00    -0.083 Cl
ATOM     30  O   UNL     1      -1.543   6.133  -4.338  0.00  0.00    -0.453 OA
ATOM     31  C   UNL     1      -2.850   5.552  -4.175  0.00  0.00    +0.466 C 
ATOM     32  O   UNL     1      -2.781   4.913  -2.887  0.00  0.00    -0.453 OA
ENDBRANCH  22  23
ENDBRANCH   1  22
TORSDOF 8
