REMARK  Name = ZINC04313633
REMARK  4 active torsions:
REMARK  status: ('A' for Active; 'I' for Inactive)
REMARK    1  A    between atoms: C_1  and  O_2
REMARK    2  A    between atoms: O_2  and  C_3
REMARK    3  A    between atoms: C_5  and  N_26
REMARK    4  A    between atoms: C_10  and  C_19
REMARK                            x       y       z     vdW  Elec       q    Type
REMARK                         _______ _______ _______ _____ _____    ______ ____
ROOT
ATOM      1  C   UNL     1       0.961  -2.020   0.860  0.00  0.00    +0.143 A 
ATOM      2  C   UNL     1       1.912  -2.699   1.596  0.00  0.00    +0.080 A 
ATOM      3  C   UNL     1       2.905  -2.003   2.261  0.00  0.00    +0.130 A 
ATOM      4  C   UNL     1       2.936  -0.623   2.193  0.00  0.00    +0.039 A 
ATOM      5  C   UNL     1       1.985   0.065   1.467  0.00  0.00    -0.014 A 
ATOM      6  C   UNL     1       0.985  -0.622   0.777  0.00  0.00    +0.074 A 
ATOM      7  N   UNL     1       0.002  -0.004   0.002  0.00  0.00    -0.334 N 
ATOM      8  C   UNL     1      -0.018   1.468   0.010  0.00  0.00    +0.108 C 
ATOM      9  C   UNL     1       1.424   1.931  -0.001  0.00  0.00    +0.029 C 
ATOM     10  C   UNL     1       1.974   1.544   1.407  0.00  0.00    +0.049 C 
ATOM     11  C   UNL     1       3.210   2.357   1.519  0.00  0.00    -0.023 C 
ATOM     12  C   UNL     1       3.060   3.456   0.787  0.00  0.00    -0.030 C 
ATOM     13  C   UNL     1       1.698   3.436   0.090  0.00  0.00    +0.033 C 
ATOM     14  H   UNL     1      -0.911  -0.379   0.209  0.00  0.00    +0.147 HD
ENDROOT
BRANCH   8  15
ATOM     15  C   UNL     1      -0.708   1.966   1.254  0.00  0.00    +0.008 A 
ATOM     16  C   UNL     1      -0.751   1.173   2.385  0.00  0.00    +0.008 A 
ATOM     17  C   UNL     1      -1.379   1.631   3.528  0.00  0.00    +0.000 A 
ATOM     18  C   UNL     1      -1.974   2.879   3.537  0.00  0.00    +0.003 A 
ATOM     19  C   UNL     1      -1.938   3.671   2.406  0.00  0.00    +0.039 A 
ATOM     20  C   UNL     1      -1.304   3.215   1.262  0.00  0.00    +0.128 A 
ATOM     21  F   UNL     1      -1.268   3.989   0.155  0.00  0.00    -0.205 F 
ENDBRANCH   8  15
BRANCH   3  22
ATOM     22  N   UNL     1       3.929  -2.732   3.042  0.00  0.00    +0.057 N 
ATOM     23  O   UNL     1       3.898  -3.948   3.100  0.00  0.00    -0.126 OA
ATOM     24  O   UNL     1       4.801  -2.116   3.627  0.00  0.00    -0.126 OA
ENDBRANCH   3  22
BRANCH   1  26
ATOM     25  C   UNL     1       0.020  -4.139   0.331  0.00  0.00    +0.277 C 
ATOM     26  O   UNL     1      -0.009  -2.716   0.208  0.00  0.00    -0.493 OA
ENDBRANCH   1  26
TORSDOF 3
