REMARK  Name = ZINC18116993
REMARK  6 active torsions:
REMARK  status: ('A' for Active; 'I' for Inactive)
REMARK    1  A    between atoms: C_1  and  C_2
REMARK    2  A    between atoms: C_2  and  C_3
REMARK    3  A    between atoms: C_3  and  C_4
REMARK    4  A    between atoms: C_11  and  N_27
REMARK    5  A    between atoms: C_12  and  C_25
REMARK    6  A    between atoms: C_13  and  C_15
REMARK                            x       y       z     vdW  Elec       q    Type
REMARK                         _______ _______ _______ _____ _____    ______ ____
ROOT
ATOM      1  C   UNL     1       0.739  -2.004  -1.265  0.00  0.00    +0.071 A 
ATOM      2  C   UNL     1       1.726  -2.809  -0.712  0.00  0.00    +0.050 A 
ATOM      3  C   UNL     1       1.378  -4.114  -0.927  0.00  0.00    +0.222 A 
ATOM      4  N   UNL     1       0.212  -4.119  -1.594  0.00  0.00    -0.246 N 
ATOM      5  H   UNL     1      -0.276  -4.905  -1.884  0.00  0.00    +0.192 HD
ATOM      6  N   UNL     1      -0.176  -2.784  -1.791  0.00  0.00    -0.176 NA
ATOM      7  O   UNL     1       2.138  -5.154  -0.503  0.00  0.00    -0.423 OA
ATOM      8  C   UNL     1       3.120  -4.889   0.383  0.00  0.00    +0.200 C 
ATOM      9  C   UNL     1       3.559  -3.643   0.670  0.00  0.00    +0.098 C 
ATOM     10  C   UNL     1       2.986  -2.412   0.012  0.00  0.00    +0.103 C 
ENDROOT
BRANCH  10  11
ATOM     11  C   UNL     1       3.981  -1.851  -0.970  0.00  0.00    -0.010 A 
ATOM     12  C   UNL     1       4.501  -2.486  -2.033  0.00  0.00    +0.088 A 
ATOM     13  N   UNL     1       5.370  -1.660  -2.692  0.00  0.00    -0.360 N 
ATOM     14  H   UNL     1       5.867  -1.897  -3.490  0.00  0.00    +0.165 HD
ATOM     15  C   UNL     1       5.432  -0.442  -2.054  0.00  0.00    +0.047 A 
ATOM     16  C   UNL     1       4.561  -0.505  -0.951  0.00  0.00    +0.004 A 
ATOM     17  C   UNL     1       4.414   0.602  -0.114  0.00  0.00    +0.010 A 
ATOM     18  C   UNL     1       5.116   1.746  -0.373  0.00  0.00    +0.001 A 
ATOM     19  C   UNL     1       5.974   1.815  -1.462  0.00  0.00    +0.002 A 
ATOM     20  C   UNL     1       6.141   0.731  -2.295  0.00  0.00    +0.026 A 
ENDBRANCH  10  11
BRANCH   8  21
ATOM     21  N   UNL     1       3.708  -5.946   1.031  0.00  0.00    -0.328 N 
ATOM     22  H   UNL     1       3.415  -6.852   0.847  0.00  0.00    +0.145 HD
ATOM     23  H   UNL     1       4.417  -5.788   1.674  0.00  0.00    +0.145 HD
ENDBRANCH   8  21
BRANCH   9  24
ATOM     24  C   UNL     1       4.606  -3.486   1.633  0.00  0.00    +0.101 C 
ATOM     25  N   UNL     1       5.437  -3.361   2.398  0.00  0.00    -0.191 NA
ENDBRANCH   9  24
BRANCH   1  26
ATOM     26  C   UNL     1       0.718  -0.497  -1.257  0.00  0.00    +0.057 C 
BRANCH  26  28
ATOM     27  C   UNL     1      -0.019   1.526   0.010  0.00  0.00    +0.004 C 
ATOM     28  C   UNL     1       0.002  -0.004   0.002  0.00  0.00    +0.003 C 
ENDBRANCH  26  28
ENDBRANCH   1  26
TORSDOF 5
