REMARK  Name = ZINC41607525
REMARK  7 active torsions:
REMARK  status: ('A' for Active; 'I' for Inactive)
REMARK    1  A    between atoms: C_1  and  C_2
REMARK    2  A    between atoms: C_2  and  C_4
REMARK    3  A    between atoms: C_2  and  S_17
REMARK    4  A    between atoms: N_6  and  C_7
REMARK    5  A    between atoms: C_10  and  S_13
REMARK    6  A    between atoms: S_13  and  N_16
REMARK    7  A    between atoms: S_17  and  C_18
REMARK                            x       y       z     vdW  Elec       q    Type
REMARK                         _______ _______ _______ _____ _____    ______ ____
ROOT
ATOM      1  C   UNL     1       0.730  -0.505   1.222  0.00  0.00    +0.230 C 
ATOM      2  O   UNL     1       1.909  -0.785   1.153  0.00  0.00    -0.274 OA
ATOM      3  N   UNL     1       0.071  -0.647   2.389  0.00  0.00    -0.285 N 
ATOM      4  H   UNL     1      -0.852  -0.361   2.463  0.00  0.00    +0.155 HD
ENDROOT
BRANCH   3   5
ATOM      5  C   UNL     1       0.720  -1.209   3.495  0.00  0.00    +0.034 A 
ATOM      6  C   UNL     1       0.015  -2.013   4.381  0.00  0.00    +0.025 A 
ATOM      7  C   UNL     1       0.658  -2.566   5.471  0.00  0.00    +0.030 A 
ATOM      8  C   UNL     1       2.002  -2.319   5.681  0.00  0.00    +0.105 A 
ATOM      9  C   UNL     1       2.707  -1.518   4.801  0.00  0.00    +0.030 A 
ATOM     10  C   UNL     1       2.071  -0.968   3.706  0.00  0.00    +0.025 A 
BRANCH   8  11
ATOM     11  S   UNL     1       2.819  -3.026   7.073  0.00  0.00    +0.056 S 
ATOM     12  O   UNL     1       3.943  -2.201   7.346  0.00  0.00    -0.153 OA
ATOM     13  O   UNL     1       1.814  -3.289   8.043  0.00  0.00    -0.153 OA
BRANCH  11  14
ATOM     14  N   UNL     1       3.414  -4.496   6.597  0.00  0.00    -0.204 NA
ATOM     15  H   UNL     1       3.275  -4.804   5.688  0.00  0.00    +0.144 HD
ATOM     16  H   UNL     1       3.903  -5.048   7.227  0.00  0.00    +0.144 HD
ENDBRANCH  11  14
ENDBRANCH   8  11
ENDBRANCH   3   5
BRANCH   1  18
ATOM     17  C   UNL     1      -0.007   1.532   0.016  0.00  0.00    +0.029 C 
ATOM     18  C   UNL     1       0.003   0.002   0.004  0.00  0.00    +0.137 C 
BRANCH  18  19
ATOM     19  S   UNL     1       0.847  -0.585  -1.491  0.00  0.00    -0.075 S 
BRANCH  19  20
ATOM     20  C   UNL     1      -0.192  -0.042  -2.807  0.00  0.00    +0.170 A 
ATOM     21  N   UNL     1       0.153  -0.327  -4.093  0.00  0.00    -0.302 N 
ATOM     22  H   UNL     1       0.964  -0.825  -4.282  0.00  0.00    +0.171 HD
ATOM     23  C   UNL     1      -0.640   0.086  -5.104  0.00  0.00    +0.255 A 
ATOM     24  O   UNL     1      -0.347  -0.160  -6.263  0.00  0.00    -0.267 OA
ATOM     25  C   UNL     1      -1.809   0.806  -4.798  0.00  0.00    +0.038 A 
ATOM     26  C   UNL     1      -2.106   1.064  -3.493  0.00  0.00    +0.052 A 
ATOM     27  N   UNL     1      -1.292   0.629  -2.530  0.00  0.00    -0.228 NA
ATOM     28  C   UNL     1      -3.400   1.845  -3.402  0.00  0.00    +0.056 C 
ATOM     29  C   UNL     1      -3.631   2.407  -4.821  0.00  0.00    +0.011 C 
ATOM     30  C   UNL     1      -2.873   1.390  -5.701  0.00  0.00    +0.043 C 
ENDBRANCH  19  20
ENDBRANCH  18  19
ENDBRANCH   1  18
TORSDOF 6
