REMARK  Name = ZINC08694937
REMARK  9 active torsions:
REMARK  status: ('A' for Active; 'I' for Inactive)
REMARK    1  A    between atoms: C_1  and  C_2
REMARK    2  A    between atoms: C_2  and  C_35
REMARK    3  A    between atoms: C_4  and  N_9
REMARK    4  A    between atoms: C_6  and  C_7
REMARK    5  A    between atoms: C_6  and  C_8
REMARK    6  A    between atoms: C_10  and  C_11
REMARK    7  A    between atoms: C_12  and  C_26
REMARK    8  A    between atoms: C_26  and  S_27
REMARK    9  A    between atoms: S_27  and  C_28
REMARK                            x       y       z     vdW  Elec       q    Type
REMARK                         _______ _______ _______ _____ _____    ______ ____
ROOT
ATOM      1  C   UNL     1       1.169   4.491  -5.391  0.00  0.00    +0.164 C 
ATOM      2  C   UNL     1       2.159   3.759  -6.195  0.00  0.00    +0.065 C 
ATOM      3  N   UNL     1       2.288   4.385  -7.324  0.00  0.00    -0.178 NA
ATOM      4  N   UNL     1       1.463   5.507  -7.379  0.00  0.00    -0.135 N 
ATOM      5  C   UNL     1       0.755   5.619  -6.236  0.00  0.00    +0.255 C 
ATOM      6  O   UNL     1      -0.060   6.482  -5.960  0.00  0.00    -0.272 OA
ATOM      7  C   UNL     1       1.377   6.379  -8.455  0.00  0.00    +0.189 A 
ATOM      8  N   UNL     1       2.020   6.342  -9.598  0.00  0.00    -0.223 NA
ATOM      9  C   UNL     1       1.836   7.265 -10.566  0.00  0.00    +0.080 A 
ATOM     10  C   UNL     1       2.460   7.340 -11.833  0.00  0.00    +0.029 A 
ATOM     11  C   UNL     1       2.156   8.352 -12.705  0.00  0.00    +0.002 A 
ATOM     12  C   UNL     1       1.232   9.335 -12.381  0.00  0.00    +0.001 A 
ATOM     13  C   UNL     1       0.603   9.294 -11.150  0.00  0.00    +0.017 A 
ATOM     14  C   UNL     1       0.901   8.283 -10.270  0.00  0.00    +0.041 A 
ATOM     15  S   UNL     1       0.355   7.834  -8.640  0.00  0.00    -0.050 S 
ENDROOT
BRANCH   1  17
ATOM     16  N   UNL     1       1.203   3.098  -3.478  0.00  0.00    -0.292 NA
ATOM     17  C   UNL     1       0.721   4.183  -4.119  0.00  0.00    +0.096 C 
BRANCH  16  21
ATOM     18  C   UNL     1      -2.143   0.475  -1.020  0.00  0.00    -0.010 C 
ATOM     19  C   UNL     1      -1.048   1.551  -0.843  0.00  0.00    -0.071 C 
ATOM     20  C   UNL     1      -0.543   1.927  -2.233  0.00  0.00    +0.014 C 
ATOM     21  C   UNL     1       0.727   2.770  -2.128  0.00  0.00    +0.102 C 
ATOM     22  C   UNL     1       1.795   1.952  -1.403  0.00  0.00    +0.014 C 
ATOM     23  C   UNL     1       1.318   1.579  -0.002  0.00  0.00    -0.071 C 
ATOM     24  C   UNL     1       1.397   2.808   0.911  0.00  0.00    -0.010 C 
ATOM     25  C   UNL     1       2.301   0.528   0.560  0.00  0.00    -0.010 C 
ATOM     26  C   UNL     1      -1.713   2.771  -0.192  0.00  0.00    -0.010 C 
ATOM     27  N   UNL     1      -0.027   0.945   0.053  0.00  0.00    +0.386 N 
ATOM     28  H   UNL     1       0.076  -0.043  -0.205  0.00  0.00    -0.084 HD
ATOM     29  H   UNL     1      -0.371   1.013   1.018  0.00  0.00    -0.084 HD
ENDBRANCH  16  21
ENDBRANCH   1  17
BRANCH   2  30
ATOM     30  C   UNL     1       2.891   2.508  -5.782  0.00  0.00    +0.128 C 
BRANCH  30  31
ATOM     31  S   UNL     1       4.004   1.989  -7.117  0.00  0.00    -0.119 S 
BRANCH  31  32
ATOM     32  C   UNL     1       4.775   0.535  -6.489  0.00  0.00    +0.008 A 
ATOM     33  C   UNL     1       4.455   0.070  -5.219  0.00  0.00    +0.016 A 
ATOM     34  C   UNL     1       5.058  -1.072  -4.731  0.00  0.00    +0.021 A 
ATOM     35  C   UNL     1       5.988  -1.749  -5.501  0.00  0.00    +0.041 A 
ATOM     36  C   UNL     1       6.312  -1.286  -6.765  0.00  0.00    +0.021 A 
ATOM     37  C   UNL     1       5.709  -0.147  -7.260  0.00  0.00    +0.016 A 
ATOM     38 CL   UNL     1       6.749  -3.180  -4.881  0.00  0.00    -0.084 Cl
ENDBRANCH  31  32
ENDBRANCH  30  31
ENDBRANCH   2  30
TORSDOF 5
