REMARK  Name = ZINC04876423
REMARK  8 active torsions:
REMARK  status: ('A' for Active; 'I' for Inactive)
REMARK    1  A    between atoms: C_1  and  C_2
REMARK    2  A    between atoms: C_2  and  N_3
REMARK    3  A    between atoms: C_4  and  C_15
REMARK    4  A    between atoms: C_7  and  S_8
REMARK    5  A    between atoms: S_8  and  C_9
REMARK    6  A    between atoms: C_9  and  C_11
REMARK    7  A    between atoms: C_9  and  C_12
REMARK    8  A    between atoms: C_17  and  C_25
REMARK                            x       y       z     vdW  Elec       q    Type
REMARK                         _______ _______ _______ _____ _____    ______ ____
ROOT
ATOM      1  C   UNL     1      -2.410   3.693  -0.210  0.00  0.00    +0.030 A 
ATOM      2  C   UNL     1      -2.195   5.060  -0.062  0.00  0.00    +0.040 A 
ATOM      3  C   UNL     1      -0.903   5.572  -0.214  0.00  0.00    +0.072 A 
ATOM      4  N   UNL     1       0.132   4.803  -0.495  0.00  0.00    -0.247 NA
ATOM      5  C   UNL     1       0.018   3.482  -0.654  0.00  0.00    +0.072 A 
ATOM      6  C   UNL     1      -1.247   2.860  -0.522  0.00  0.00    +0.011 A 
ATOM      7  C   UNL     1      -1.364   1.477  -0.694  0.00  0.00    +0.011 A 
ATOM      8  C   UNL     1      -0.255   0.737  -0.980  0.00  0.00    +0.001 A 
ATOM      9  C   UNL     1       0.992   1.344  -1.112  0.00  0.00    +0.002 A 
ATOM     10  C   UNL     1       1.139   2.688  -0.955  0.00  0.00    +0.028 A 
ENDROOT
BRANCH   3  11
ATOM     11  C   UNL     1      -0.688   7.030  -0.054  0.00  0.00    +0.000 A 
ATOM     12  C   UNL     1      -1.763   7.868   0.238  0.00  0.00    +0.010 A 
ATOM     13  C   UNL     1      -1.556   9.224   0.392  0.00  0.00    +0.001 A 
ATOM     14  C   UNL     1      -0.286   9.753   0.245  0.00  0.00    +0.000 A 
ATOM     15  C   UNL     1       0.784   8.927  -0.050  0.00  0.00    +0.001 A 
ATOM     16  C   UNL     1       0.589   7.569  -0.200  0.00  0.00    +0.010 A 
ENDBRANCH   3  11
BRANCH   1  18
ATOM     17  N   UNL     1      -4.916   3.563  -0.644  0.00  0.00    -0.302 N 
ATOM     18  C   UNL     1      -3.755   3.108  -0.059  0.00  0.00    +0.166 A 
ATOM     19  N   UNL     1      -4.073   2.057   0.663  0.00  0.00    -0.128 NA
ATOM     20  N   UNL     1      -5.334   1.825   0.567  0.00  0.00    -0.122 NA
ATOM     21  C   UNL     1      -5.898   2.714  -0.223  0.00  0.00    +0.193 A 
BRANCH  17  23
ATOM     22  C   UNL     1      -4.816   4.279  -2.981  0.00  0.00    +0.027 C 
ATOM     23  C   UNL     1      -5.065   4.716  -1.536  0.00  0.00    +0.122 C 
ENDBRANCH  17  23
BRANCH  21  24
ATOM     24  S   UNL     1      -7.605   2.797  -0.652  0.00  0.00    -0.074 S 
BRANCH  24  25
ATOM     25  C   UNL     1      -8.232   1.378   0.281  0.00  0.00    +0.137 C 
ATOM     26  C   UNL     1      -7.626   0.091  -0.281  0.00  0.00    +0.029 C 
BRANCH  25  27
ATOM     27  C   UNL     1      -9.733   1.321   0.159  0.00  0.00    +0.224 C 
ATOM     28  O   UNL     1     -10.284   1.822  -0.799  0.00  0.00    -0.275 OA
ATOM     29  N   UNL     1     -10.464   0.714   1.114  0.00  0.00    -0.328 N 
ATOM     30  H   UNL     1     -10.024   0.313   1.880  0.00  0.00    +0.145 HD
ATOM     31  H   UNL     1     -11.431   0.677   1.036  0.00  0.00    +0.145 HD
ENDBRANCH  25  27
ENDBRANCH  24  25
ENDBRANCH  21  24
ENDBRANCH   1  18
TORSDOF 6
