REMARK  Name = ZINC09477900
REMARK  8 active torsions:
REMARK  status: ('A' for Active; 'I' for Inactive)
REMARK    1  A    between atoms: C_1  and  C_2
REMARK    2  A    between atoms: N_5  and  S_11
REMARK    3  A    between atoms: C_7  and  C_10
REMARK    4  A    between atoms: S_11  and  C_14
REMARK    5  A    between atoms: C_17  and  N_20
REMARK    6  A    between atoms: C_21  and  C_23
REMARK    7  A    between atoms: C_23  and  S_24
REMARK    8  A    between atoms: S_24  and  C_25
REMARK                            x       y       z     vdW  Elec       q    Type
REMARK                         _______ _______ _______ _____ _____    ______ ____
ROOT
ATOM      1  C   UNL     1      -3.826   2.615   0.295  0.00  0.00    +0.106 A 
ATOM      2  C   UNL     1      -3.662   1.243   0.349  0.00  0.00    +0.030 A 
ATOM      3  C   UNL     1      -2.398   0.693   0.255  0.00  0.00    +0.025 A 
ATOM      4  C   UNL     1      -1.292   1.520   0.104  0.00  0.00    +0.034 A 
ATOM      5  C   UNL     1      -1.460   2.897   0.055  0.00  0.00    +0.025 A 
ATOM      6  C   UNL     1      -2.727   3.441   0.145  0.00  0.00    +0.030 A 
ENDROOT
BRANCH   4   7
ATOM      7  N   UNL     1      -0.011   0.966   0.007  0.00  0.00    -0.285 N 
ATOM      8  C   UNL     1       0.924   1.561  -0.759  0.00  0.00    +0.227 C 
ATOM      9  O   UNL     1       0.631   2.523  -1.436  0.00  0.00    -0.275 OA
ATOM     10  H   UNL     1       0.203   0.151   0.488  0.00  0.00    +0.155 HD
BRANCH   8  11
ATOM     11  C   UNL     1       2.335   1.031  -0.773  0.00  0.00    +0.171 C 
BRANCH  11  12
ATOM     12  S   UNL     1       3.345   2.036  -1.890  0.00  0.00    -0.096 S 
BRANCH  12  13
ATOM     13  C   UNL     1       4.897   1.218  -1.718  0.00  0.00    +0.109 A 
ATOM     14  C   UNL     1       6.036   1.676  -2.437  0.00  0.00    +0.040 A 
ATOM     15  C   UNL     1       6.164   2.786  -3.365  0.00  0.00    +0.020 A 
ATOM     16  C   UNL     1       7.355   3.032  -3.931  0.00  0.00    +0.048 A 
ATOM     17  S   UNL     1       8.410   1.767  -3.248  0.00  0.00    -0.077 S 
ATOM     18  C   UNL     1       7.223   0.943  -2.220  0.00  0.00    +0.112 A 
ATOM     19  N   UNL     1       7.253  -0.091  -1.403  0.00  0.00    -0.228 NA
ATOM     20  C   UNL     1       6.163  -0.469  -0.763  0.00  0.00    +0.223 A 
ATOM     21  N   UNL     1       5.018   0.174  -0.914  0.00  0.00    -0.229 NA
ENDBRANCH  12  13
ENDBRANCH  11  12
ENDBRANCH   8  11
ENDBRANCH   4   7
BRANCH   1  22
ATOM     22  S   UNL     1      -5.440   3.313   0.415  0.00  0.00    +0.061 S 
ATOM     23  O   UNL     1      -5.379   4.587  -0.211  0.00  0.00    -0.153 OA
ATOM     24  O   UNL     1      -6.350   2.303   0.001  0.00  0.00    -0.153 OA
BRANCH  22  28
ATOM     25  C   UNL     1      -4.356   5.880   4.696  0.00  0.00    +0.039 C 
ATOM     26  C   UNL     1      -4.575   4.579   3.921  0.00  0.00    +0.131 C 
ATOM     27  C   UNL     1      -5.379   4.870   2.648  0.00  0.00    +0.140 C 
ATOM     28  N   UNL     1      -5.735   3.588   2.021  0.00  0.00    -0.172 NA
ATOM     29  C   UNL     1      -6.368   2.559   2.862  0.00  0.00    +0.140 C 
ATOM     30  C   UNL     1      -5.511   2.379   4.125  0.00  0.00    +0.131 C 
ATOM     31  O   UNL     1      -5.300   3.655   4.734  0.00  0.00    -0.371 OA
ATOM     32  C   UNL     1      -4.162   1.763   3.748  0.00  0.00    +0.039 C 
ENDBRANCH  22  28
ENDBRANCH   1  22
TORSDOF 6
