REMARK  Name = ZINC39693529
REMARK  15 active torsions:
REMARK  status: ('A' for Active; 'I' for Inactive)
REMARK    1  A    between atoms: C_1  and  C_2
REMARK    2  A    between atoms: C_2  and  C_3
REMARK    3  A    between atoms: C_3  and  C_4
REMARK    4  A    between atoms: C_4  and  C_5
REMARK    5  A    between atoms: C_5  and  C_7
REMARK    6  A    between atoms: C_5  and  C_8
REMARK    7  A    between atoms: C_12  and  C_21
REMARK    8  A    between atoms: N_23  and  C_24
REMARK    9  A    between atoms: C_24  and  C_25
REMARK   10  A    between atoms: C_25  and  N_26
REMARK   11  A    between atoms: C_27  and  O_29
REMARK   12  A    between atoms: O_29  and  C_30
REMARK   13  A    between atoms: C_30  and  C_31
REMARK   14  A    between atoms: C_30  and  C_32
REMARK   15  A    between atoms: C_30  and  C_33
REMARK                            x       y       z     vdW  Elec       q    Type
REMARK                         _______ _______ _______ _____ _____    ______ ____
ROOT
ATOM      1  C   UNL     1       1.597  -3.794   2.569  0.00  0.00    +0.218 C 
ATOM      2  O   UNL     1       1.013  -4.316   1.643  0.00  0.00    -0.275 OA
ATOM      3  N   UNL     1       2.110  -4.555   3.556  0.00  0.00    -0.300 N 
ATOM      4  C   UNL     1       2.844  -4.104   4.762  0.00  0.00    +0.121 C 
ATOM      5  C   UNL     1       2.333  -5.021   5.896  0.00  0.00    +0.100 C 
ATOM      6  C   UNL     1       1.827  -6.285   5.180  0.00  0.00    -0.004 C 
ATOM      7  C   UNL     1       2.063  -6.031   3.684  0.00  0.00    +0.115 C 
ATOM      8  C   UNL     1       2.618  -7.506   5.641  0.00  0.00    -0.010 C 
ATOM      9  C   UNL     1       2.058  -8.758   4.959  0.00  0.00    -0.082 C 
ATOM     10  N   UNL     1       0.639  -8.911   5.301  0.00  0.00    +0.379 N 
ATOM     11  C   UNL     1      -0.129  -7.777   4.773  0.00  0.00    -0.082 C 
ATOM     12  C   UNL     1       0.338  -6.484   5.447  0.00  0.00    -0.010 C 
ATOM     13  H   UNL     1       0.288  -9.768   4.901  0.00  0.00    -0.086 HD
ATOM     14  H   UNL     1       0.538  -8.945   6.305  0.00  0.00    -0.086 HD
ENDROOT
BRANCH   5  15
ATOM     15  C   UNL     1       1.208  -4.354   6.644  0.00  0.00    +0.218 C 
ATOM     16  O   UNL     1       0.476  -3.575   6.070  0.00  0.00    -0.275 OA
ATOM     17  N   UNL     1       1.015  -4.622   7.950  0.00  0.00    -0.314 N 
ATOM     18  H   UNL     1       1.600  -5.245   8.409  0.00  0.00    +0.149 HD
BRANCH  17  19
ATOM     19  C   UNL     1      -0.079  -3.973   8.678  0.00  0.00    +0.123 C 
BRANCH  19  20
ATOM     20  C   UNL     1      -0.076  -4.448  10.132  0.00  0.00    +0.126 C 
BRANCH  20  21
ATOM     21  N   UNL     1      -1.169  -3.799  10.860  0.00  0.00    -0.280 N 
ATOM     22  C   UNL     1      -1.362  -4.067  12.166  0.00  0.00    +0.401 C 
ATOM     23  O   UNL     1      -0.629  -4.847  12.741  0.00  0.00    -0.226 OA
ATOM     24  H   UNL     1      -1.755  -3.176  10.401  0.00  0.00    +0.152 HD
BRANCH  22  25
ATOM     25  O   UNL     1      -2.367  -3.470  12.835  0.00  0.00    -0.445 OA
BRANCH  25  26
ATOM     26  C   UNL     1      -2.513  -3.801  14.217  0.00  0.00    +0.107 C 
ATOM     27  C   UNL     1      -1.237  -3.422  14.970  0.00  0.00    +0.055 C 
ATOM     28  C   UNL     1      -3.699  -3.032  14.804  0.00  0.00    +0.055 C 
ATOM     29  C   UNL     1      -2.761  -5.305  14.358  0.00  0.00    +0.055 C 
ENDBRANCH  25  26
ENDBRANCH  22  25
ENDBRANCH  20  21
ENDBRANCH  19  20
ENDBRANCH  17  19
ENDBRANCH   5  15
BRANCH   1  30
ATOM     30  C   UNL     1       1.748  -2.295   2.616  0.00  0.00    +0.072 C 
ATOM     31  C   UNL     1       3.235  -1.933   2.627  0.00  0.00    +0.017 C 
BRANCH  30  32
ATOM     32  C   UNL     1       1.081  -1.676   1.387  0.00  0.00    +0.012 C 
BRANCH  32  33
ATOM     33  C   UNL     1       1.125  -0.151   1.496  0.00  0.00    +0.000 C 
BRANCH  33  35
ATOM     34  C   UNL     1       0.502   1.994   0.376  0.00  0.00    +0.004 C 
ATOM     35  C   UNL     1       0.458   0.468   0.266  0.00  0.00    -0.003 C 
ENDBRANCH  33  35
ENDBRANCH  32  33
ENDBRANCH  30  32
ENDBRANCH   1  30
TORSDOF 10
