REMARK  Name = ZINC01144568
REMARK  9 active torsions:
REMARK  status: ('A' for Active; 'I' for Inactive)
REMARK    1  A    between atoms: C_1  and  O_2
REMARK    2  A    between atoms: O_2  and  C_3
REMARK    3  A    between atoms: C_5  and  C_10
REMARK    4  A    between atoms: C_8  and  O_9
REMARK    5  A    between atoms: C_12  and  C_33
REMARK    6  A    between atoms: C_13  and  S_22
REMARK    7  A    between atoms: S_22  and  C_23
REMARK    8  A    between atoms: C_23  and  C_24
REMARK    9  A    between atoms: N_26  and  C_27
REMARK                            x       y       z     vdW  Elec       q    Type
REMARK                         _______ _______ _______ _____ _____    ______ ____
ROOT
ATOM      1  C   UNL     1      -4.871   0.257   0.037  0.00  0.00    +0.097 C 
ATOM      2  C   UNL     1      -5.612  -0.045   1.328  0.00  0.00    +0.073 C 
ATOM      3  C   UNL     1      -6.894  -0.556   1.218  0.00  0.00    +0.112 C 
ATOM      4  N   UNL     1      -7.474  -0.781   0.037  0.00  0.00    -0.244 NA
ATOM      5  C   UNL     1      -6.930  -0.558  -1.134  0.00  0.00    +0.050 C 
ATOM      6  C   UNL     1      -5.630  -0.041  -1.242  0.00  0.00    +0.029 C 
ATOM      7  C   UNL     1      -5.054   0.191  -2.433  0.00  0.00    +0.162 C 
ATOM      8  C   UNL     1      -5.779  -0.093  -3.721  0.00  0.00    +0.080 C 
ATOM      9  C   UNL     1      -6.762  -1.247  -3.504  0.00  0.00    +0.014 C 
ATOM     10  C   UNL     1      -7.722  -0.865  -2.384  0.00  0.00    +0.056 C 
ATOM     11  O   UNL     1      -3.802   0.688  -2.475  0.00  0.00    -0.292 OA
ENDROOT
BRANCH   1  14
ATOM     12  C   UNL     1      -1.201  -0.638   0.010  0.00  0.00    +0.162 A 
ATOM     13  C   UNL     1      -2.374   0.099   0.019  0.00  0.00    +0.054 A 
ATOM     14  C   UNL     1      -3.596  -0.546   0.027  0.00  0.00    -0.031 A 
ATOM     15  C   UNL     1      -3.652  -1.928   0.026  0.00  0.00    +0.008 A 
ATOM     16  C   UNL     1      -2.485  -2.669   0.017  0.00  0.00    +0.049 A 
ATOM     17  C   UNL     1      -1.257  -2.028   0.003  0.00  0.00    +0.158 A 
BRANCH  12  19
ATOM     18  C   UNL     1      -0.017   1.425   0.010  0.00  0.00    +0.277 C 
ATOM     19  O   UNL     1       0.002  -0.004   0.002  0.00  0.00    -0.491 OA
ENDBRANCH  12  19
BRANCH  17  20
ATOM     20  O   UNL     1      -0.108  -2.756  -0.012  0.00  0.00    -0.503 OA
ATOM     21  H   UNL     1       0.232  -2.972   0.867  0.00  0.00    +0.292 HD
ENDBRANCH  17  20
ENDBRANCH   1  14
BRANCH   2  22
ATOM     22  C   UNL     1      -5.010   0.188   2.606  0.00  0.00    +0.098 C 
ATOM     23  N   UNL     1      -4.532   0.373   3.619  0.00  0.00    -0.191 NA
ENDBRANCH   2  22
BRANCH   3  24
ATOM     24  S   UNL     1      -7.792  -0.923   2.688  0.00  0.00    -0.096 S 
BRANCH  24  25
ATOM     25  C   UNL     1      -9.383  -1.554   2.086  0.00  0.00    +0.171 C 
BRANCH  25  26
ATOM     26  C   UNL     1     -10.259  -1.910   3.259  0.00  0.00    +0.223 C 
ATOM     27  O   UNL     1      -9.851  -1.754   4.390  0.00  0.00    -0.275 OA
ATOM     28  N   UNL     1     -11.496  -2.402   3.051  0.00  0.00    -0.312 N 
ATOM     29  H   UNL     1     -11.823  -2.527   2.146  0.00  0.00    +0.149 HD
BRANCH  28  30
ATOM     30  C   UNL     1     -12.348  -2.749   4.192  0.00  0.00    +0.073 C 
ATOM     31  C   UNL     1     -12.021  -4.168   4.660  0.00  0.00    +0.022 C 
ATOM     32  C   UNL     1     -12.910  -4.530   5.851  0.00  0.00    +0.002 C 
ATOM     33  C   UNL     1     -14.380  -4.457   5.431  0.00  0.00    +0.000 C 
ATOM     34  C   UNL     1     -14.707  -3.038   4.963  0.00  0.00    +0.002 C 
ATOM     35  C   UNL     1     -13.817  -2.676   3.772  0.00  0.00    +0.022 C 
ENDBRANCH  28  30
ENDBRANCH  25  26
ENDBRANCH  24  25
ENDBRANCH   3  24
TORSDOF 8
