REMARK  Name = ZINC32995777
REMARK  9 active torsions:
REMARK  status: ('A' for Active; 'I' for Inactive)
REMARK    1  A    between atoms: C_1  and  C_2
REMARK    2  A    between atoms: C_3  and  C_33
REMARK    3  A    between atoms: C_11  and  C_13
REMARK    4  A    between atoms: C_13  and  S_14
REMARK    5  A    between atoms: S_14  and  C_15
REMARK    6  A    between atoms: C_15  and  C_17
REMARK    7  A    between atoms: C_15  and  C_18
REMARK    8  A    between atoms: N_20  and  C_21
REMARK    9  A    between atoms: C_21  and  C_22
REMARK                            x       y       z     vdW  Elec       q    Type
REMARK                         _______ _______ _______ _____ _____    ______ ____
ROOT
ATOM      1  C   UNL     1       0.135  -6.147   5.443  0.00  0.00    +0.129 C 
ATOM      2  C   UNL     1      -1.169  -5.941   6.217  0.00  0.00    +0.029 C 
ENDROOT
BRANCH   1   3
ATOM      3  C   UNL     1       0.275  -7.601   5.074  0.00  0.00    +0.226 C 
ATOM      4  O   UNL     1      -0.009  -7.972   3.955  0.00  0.00    -0.275 OA
ATOM      5  N   UNL     1       0.716  -8.489   5.987  0.00  0.00    -0.311 N 
ATOM      6  H   UNL     1       0.944  -8.191   6.882  0.00  0.00    +0.149 HD
BRANCH   5   7
ATOM      7  C   UNL     1       0.853  -9.902   5.628  0.00  0.00    +0.152 C 
BRANCH   7   8
ATOM      8  C   UNL     1       1.368 -10.688   6.835  0.00  0.00    +0.228 C 
ATOM      9  C   UNL     1       1.618 -12.148   6.434  0.00  0.00    +0.275 C 
ATOM     10  O   UNL     1       2.085 -12.856   7.588  0.00  0.00    -0.485 OA
ATOM     11  C   UNL     1       1.402 -12.653   8.748  0.00  0.00    +0.162 A 
ATOM     12  C   UNL     1       1.554 -13.552   9.793  0.00  0.00    +0.049 A 
ATOM     13  C   UNL     1       0.870 -13.357  10.978  0.00  0.00    +0.004 A 
ATOM     14  C   UNL     1       0.032 -12.267  11.125  0.00  0.00    +0.004 A 
ATOM     15  C   UNL     1      -0.125 -11.369  10.086  0.00  0.00    +0.049 A 
ATOM     16  C   UNL     1       0.558 -11.559   8.894  0.00  0.00    +0.163 A 
ATOM     17  O   UNL     1       0.387 -10.670   7.878  0.00  0.00    -0.480 OA
ENDBRANCH   7   8
ENDBRANCH   5   7
ENDBRANCH   1   3
BRANCH   1  18
ATOM     18  S   UNL     1       0.108  -5.139   3.935  0.00  0.00    -0.141 S 
BRANCH  18  19
ATOM     19  C   UNL     1       0.090  -3.432   4.547  0.00  0.00    +0.144 C 
BRANCH  19  30
ATOM     20  C   UNL     1      -0.018   1.503   0.010  0.00  0.00    +0.045 C 
ATOM     21  C   UNL     1       0.002  -0.004   0.002  0.00  0.00    -0.026 A 
ATOM     22  C   UNL     1       0.006  -0.677  -1.160  0.00  0.00    -0.008 A 
ATOM     23  S   UNL     1       0.032  -2.385  -0.648  0.00  0.00    -0.073 S 
ATOM     24  C   UNL     1       0.037  -2.144   1.110  0.00  0.00    +0.116 A 
ATOM     25  C   UNL     1       0.024  -0.745   1.250  0.00  0.00    +0.075 A 
ATOM     26  C   UNL     1       0.029  -0.257   2.597  0.00  0.00    +0.260 A 
ATOM     27  O   UNL     1       0.014   0.942   2.821  0.00  0.00    -0.267 OA
ATOM     28  N   UNL     1       0.051  -1.142   3.611  0.00  0.00    -0.310 N 
ATOM     29  H   UNL     1       0.054  -0.817   4.525  0.00  0.00    +0.170 HD
ATOM     30  C   UNL     1       0.067  -2.480   3.380  0.00  0.00    +0.121 A 
ATOM     31  N   UNL     1       0.053  -2.956   2.163  0.00  0.00    -0.226 NA
ATOM     32  C   UNL     1      -0.009  -0.122  -2.561  0.00  0.00    +0.052 C 
ENDBRANCH  19  30
ENDBRANCH  18  19
ENDBRANCH   1  18
TORSDOF 6
