REMARK  Name = ZINC66952121
REMARK  8 active torsions:
REMARK  status: ('A' for Active; 'I' for Inactive)
REMARK    1  A    between atoms: C_1  and  N_2
REMARK    2  A    between atoms: C_3  and  C_5
REMARK    3  A    between atoms: C_5  and  O_6
REMARK    4  A    between atoms: O_6  and  C_7
REMARK    5  A    between atoms: C_11  and  N_13
REMARK    6  A    between atoms: N_16  and  C_17
REMARK    7  A    between atoms: C_17  and  C_18
REMARK    8  A    between atoms: C_18  and  O_28
REMARK                            x       y       z     vdW  Elec       q    Type
REMARK                         _______ _______ _______ _____ _____    ______ ____
ROOT
ATOM      1  N   UNL     1       2.670  -6.397  -4.850  0.00  0.00    -0.269 N 
ATOM      2  C   UNL     1       2.912  -7.722  -4.920  0.00  0.00    +0.304 C 
ATOM      3  O   UNL     1       2.487  -8.464  -4.056  0.00  0.00    -0.253 OA
ATOM      4  N   UNL     1       3.623  -8.223  -5.949  0.00  0.00    -0.296 N 
ATOM      5  H   UNL     1       2.943  -5.816  -5.577  0.00  0.00    +0.156 HD
ATOM      6  H   UNL     1       3.962  -7.631  -6.639  0.00  0.00    +0.150 HD
ENDROOT
BRANCH   1  11
ATOM      7  C   UNL     1       0.548  -4.240  -2.755  0.00  0.00    +0.123 A 
ATOM      8  C   UNL     1       0.754  -4.807  -1.505  0.00  0.00    +0.046 A 
ATOM      9  C   UNL     1       1.593  -5.897  -1.369  0.00  0.00    +0.005 A 
ATOM     10  C   UNL     1       2.228  -6.426  -2.476  0.00  0.00    +0.023 A 
ATOM     11  C   UNL     1       2.026  -5.862  -3.729  0.00  0.00    +0.038 A 
ATOM     12  C   UNL     1       1.180  -4.771  -3.869  0.00  0.00    +0.069 A 
BRANCH   7  13
ATOM     13  O   UNL     1      -0.277  -3.169  -2.888  0.00  0.00    -0.483 OA
BRANCH  13  14
ATOM     14  C   UNL     1      -0.894  -2.674  -1.698  0.00  0.00    +0.324 C 
BRANCH  14  17
ATOM     15  C   UNL     1      -3.302   0.288  -1.397  0.00  0.00    +0.128 C 
ATOM     16  N   UNL     1      -2.453  -0.860  -1.067  0.00  0.00    -0.316 N 
ATOM     17  C   UNL     1      -1.767  -1.493  -2.038  0.00  0.00    +0.250 C 
ATOM     18  O   UNL     1      -1.852  -1.113  -3.187  0.00  0.00    -0.272 OA
ATOM     19  H   UNL     1      -2.385  -1.164  -0.148  0.00  0.00    +0.148 HD
ENDBRANCH  14  17
ENDBRANCH  13  14
ENDBRANCH   7  13
ENDBRANCH   1  11
BRANCH   4  20
ATOM     20  C   UNL     1       3.886  -9.662  -6.025  0.00  0.00    +0.145 C 
BRANCH  20  21
ATOM     21  C   UNL     1       4.821  -9.949  -7.202  0.00  0.00    +0.107 C 
ATOM     22  C   UNL     1       6.103  -9.136  -7.035  0.00  0.00    +0.041 C 
ATOM     23  C   UNL     1       7.109  -9.596  -8.097  0.00  0.00    +0.008 C 
ATOM     24  C   UNL     1       7.575 -11.006  -7.739  0.00  0.00    +0.035 C 
ATOM     25  C   UNL     1       6.394 -11.908  -7.494  0.00  0.00    -0.041 A 
ATOM     26  C   UNL     1       5.130 -11.422  -7.244  0.00  0.00    -0.011 A 
ATOM     27  C   UNL     1       4.085 -12.309  -7.020  0.00  0.00    +0.007 A 
ATOM     28  C   UNL     1       4.301 -13.671  -7.050  0.00  0.00    +0.000 A 
ATOM     29  C   UNL     1       5.569 -14.159  -7.305  0.00  0.00    +0.000 A 
ATOM     30  C   UNL     1       6.610 -13.280  -7.526  0.00  0.00    +0.004 A 
BRANCH  21  31
ATOM     31  O   UNL     1       4.177  -9.567  -8.419  0.00  0.00    -0.382 OA
ATOM     32  H   UNL     1       3.349 -10.036  -8.590  0.00  0.00    +0.211 HD
ENDBRANCH  21  31
ENDBRANCH  20  21
ENDBRANCH   4  20
TORSDOF 7
