REMARK  Name = ZINC09209552
REMARK  10 active torsions:
REMARK  status: ('A' for Active; 'I' for Inactive)
REMARK    1  A    between atoms: C_1  and  O_2
REMARK    2  A    between atoms: O_2  and  C_3
REMARK    3  A    between atoms: C_6  and  C_11
REMARK    4  A    between atoms: C_8  and  O_9
REMARK    5  A    between atoms: O_9  and  C_10
REMARK    6  A    between atoms: C_19  and  O_35
REMARK    7  A    between atoms: C_22  and  C_23
REMARK    8  A    between atoms: C_22  and  N_65
REMARK    9  A    between atoms: N_25  and  C_26
REMARK   10  A    between atoms: C_29  and  N_32
REMARK                            x       y       z     vdW  Elec       q    Type
REMARK                         _______ _______ _______ _____ _____    ______ ____
ROOT
ATOM      1  C   UNL     1       1.235   2.051  -0.348  0.00  0.00    -0.031 C 
ATOM      2  C   UNL     1       1.117   3.575  -0.398  0.00  0.00    +0.011 C 
ATOM      3  C   UNL     1       2.509   4.207  -0.425  0.00  0.00    +0.005 C 
ATOM      4  C   UNL     1       2.373   5.730  -0.467  0.00  0.00    +0.000 C 
ATOM      5  C   UNL     1       1.597   6.143  -1.719  0.00  0.00    +0.003 C 
ATOM      6  C   UNL     1       0.207   5.502  -1.698  0.00  0.00    +0.035 C 
ATOM      7  C   UNL     1       0.354   3.980  -1.662  0.00  0.00    +0.066 C 
ATOM      8  C   UNL     1      -1.027   3.321  -1.645  0.00  0.00    +0.016 C 
ATOM      9  C   UNL     1      -0.855   1.802  -1.555  0.00  0.00    -0.075 C 
ATOM     10  N   UNL     1      -0.126   1.470  -0.312  0.00  0.00    +0.390 N 
ATOM     11  H   UNL     1      -0.635   1.864   0.488  0.00  0.00    -0.080 HD
ENDROOT
BRANCH   1  15
ATOM     12  C   UNL     1       3.325   0.898   3.201  0.00  0.00    +0.161 A 
ATOM     13  C   UNL     1       1.980   1.229   3.261  0.00  0.00    +0.049 A 
ATOM     14  C   UNL     1       1.309   1.606   2.113  0.00  0.00    +0.006 A 
ATOM     15  C   UNL     1       1.973   1.644   0.901  0.00  0.00    -0.057 A 
ATOM     16  C   UNL     1       3.314   1.315   0.834  0.00  0.00    +0.051 A 
ATOM     17  C   UNL     1       3.994   0.941   1.982  0.00  0.00    +0.162 A 
BRANCH  12  19
ATOM     18  C   UNL     1       3.237   0.509   5.545  0.00  0.00    +0.277 C 
ATOM     19  O   UNL     1       3.988   0.531   4.330  0.00  0.00    -0.491 OA
ENDBRANCH  12  19
BRANCH  17  20
ATOM     20  O   UNL     1       5.313   0.618   1.917  0.00  0.00    -0.491 OA
ATOM     21  C   UNL     1       5.936   0.685   0.632  0.00  0.00    +0.277 C 
ENDBRANCH  17  20
ENDBRANCH   1  15
BRANCH   7  22
ATOM     22  O   UNL     1       1.077   3.544  -2.815  0.00  0.00    -0.388 OA
ATOM     23  H   UNL     1       0.651   3.767  -3.654  0.00  0.00    +0.210 HD
ENDBRANCH   7  22
BRANCH  10  24
ATOM     24  C   UNL     1      -0.043   0.004  -0.153  0.00  0.00    +0.020 C 
BRANCH  24  25
ATOM     25  C   UNL     1      -1.428  -0.535   0.098  0.00  0.00    +0.201 C 
ATOM     26  O   UNL     1      -2.377   0.220   0.121  0.00  0.00    -0.278 OA
ATOM     27  N   UNL     1      -1.612  -1.855   0.297  0.00  0.00    -0.287 N 
ATOM     28  H   UNL     1      -0.866  -2.468   0.203  0.00  0.00    +0.155 HD
BRANCH  27  29
ATOM     29  C   UNL     1      -2.879  -2.341   0.639  0.00  0.00    +0.033 A 
ATOM     30  C   UNL     1      -3.731  -1.574   1.421  0.00  0.00    +0.025 A 
ATOM     31  C   UNL     1      -4.983  -2.054   1.752  0.00  0.00    +0.034 A 
ATOM     32  C   UNL     1      -5.383  -3.303   1.315  0.00  0.00    +0.126 A 
ATOM     33  C   UNL     1      -4.535  -4.073   0.540  0.00  0.00    +0.034 A 
ATOM     34  C   UNL     1      -3.284  -3.596   0.201  0.00  0.00    +0.025 A 
BRANCH  32  35
ATOM     35  N   UNL     1      -6.723  -3.818   1.676  0.00  0.00    +0.056 N 
ATOM     36  O   UNL     1      -7.077  -4.918   1.292  0.00  0.00    -0.126 OA
ATOM     37  O   UNL     1      -7.472  -3.141   2.358  0.00  0.00    -0.126 OA
ENDBRANCH  32  35
ENDBRANCH  27  29
ENDBRANCH  24  25
ENDBRANCH  10  24
TORSDOF 8
