REMARK  Name = ZINC36907699
REMARK  8 active torsions:
REMARK  status: ('A' for Active; 'I' for Inactive)
REMARK    1  A    between atoms: C_1  and  C_2
REMARK    2  A    between atoms: C_5  and  N_13
REMARK    3  A    between atoms: C_7  and  C_12
REMARK    4  A    between atoms: N_10  and  C_11
REMARK    5  A    between atoms: N_13  and  C_14
REMARK    6  A    between atoms: C_14  and  C_15
REMARK    7  A    between atoms: C_18  and  S_21
REMARK    8  A    between atoms: S_21  and  N_24
REMARK                            x       y       z     vdW  Elec       q    Type
REMARK                         _______ _______ _______ _____ _____    ______ ____
ROOT
ATOM      1  N   UNL     1      -2.781  -2.579   0.086  0.00  0.00    +0.384 N 
ATOM      2  H   UNL     1      -2.759  -3.585   0.164  0.00  0.00    -0.085 HD
ATOM      3  H   UNL     1      -3.237  -2.190   0.898  0.00  0.00    -0.085 HD
ENDROOT
BRANCH   1   7
ATOM      4  C   UNL     1      -0.019   1.526   0.010  0.00  0.00    -0.013 C 
ATOM      5  C   UNL     1       0.002  -0.004   0.002  0.00  0.00    -0.074 C 
ATOM      6  C   UNL     1      -1.434  -0.533   0.011  0.00  0.00    -0.031 C 
ATOM      7  C   UNL     1      -1.408  -2.064   0.003  0.00  0.00    -0.072 C 
ATOM      8  C   UNL     1      -0.600  -2.558   1.206  0.00  0.00    -0.045 C 
ATOM      9  C   UNL     1       0.805  -1.954   1.152  0.00  0.00    -0.077 C 
ATOM     10  N   UNL     1       0.713  -0.490   1.191  0.00  0.00    +0.380 N 
ATOM     11  C   UNL     1       2.066   0.083   1.218  0.00  0.00    -0.096 C 
ATOM     12  C   UNL     1      -1.293  -2.127   2.499  0.00  0.00    +0.004 C 
ATOM     13  H   UNL     1       0.213  -0.206   2.020  0.00  0.00    -0.082 HD
ENDBRANCH   1   7
BRANCH   1  14
ATOM     14  C   UNL     1      -3.522  -2.197  -1.123  0.00  0.00    -0.046 C 
BRANCH  14  15
ATOM     15  C   UNL     1      -4.931  -2.725  -1.037  0.00  0.00    -0.064 A 
ATOM     16  C   UNL     1      -5.228  -3.984  -1.526  0.00  0.00    +0.003 A 
ATOM     17  C   UNL     1      -6.520  -4.468  -1.447  0.00  0.00    +0.029 A 
ATOM     18  C   UNL     1      -7.515  -3.695  -0.878  0.00  0.00    +0.105 A 
ATOM     19  C   UNL     1      -7.218  -2.437  -0.389  0.00  0.00    +0.029 A 
ATOM     20  C   UNL     1      -5.925  -1.954  -0.464  0.00  0.00    +0.003 A 
BRANCH  18  21
ATOM     21  S   UNL     1      -9.163  -4.312  -0.779  0.00  0.00    +0.056 S 
ATOM     22  O   UNL     1     -10.017  -3.179  -0.699  0.00  0.00    -0.153 OA
ATOM     23  O   UNL     1      -9.291  -5.292  -1.800  0.00  0.00    -0.153 OA
BRANCH  21  24
ATOM     24  N   UNL     1      -9.300  -5.111   0.665  0.00  0.00    -0.204 NA
ATOM     25  H   UNL     1     -10.155  -5.147   1.120  0.00  0.00    +0.144 HD
ATOM     26  H   UNL     1      -8.524  -5.543   1.055  0.00  0.00    +0.144 HD
ENDBRANCH  21  24
ENDBRANCH  18  21
ENDBRANCH  14  15
ENDBRANCH   1  14
TORSDOF 5
