REMARK  Name = ZINC09504072
REMARK  9 active torsions:
REMARK  status: ('A' for Active; 'I' for Inactive)
REMARK    1  A    between atoms: C_1  and  C_2
REMARK    2  A    between atoms: C_2  and  C_3
REMARK    3  A    between atoms: C_4  and  C_12
REMARK    4  A    between atoms: C_12  and  N_54
REMARK    5  A    between atoms: C_13  and  N_54
REMARK    6  A    between atoms: C_14  and  C_15
REMARK    7  A    between atoms: C_14  and  N_54
REMARK    8  A    between atoms: N_17  and  C_18
REMARK    9  A    between atoms: C_19  and  C_26
REMARK                            x       y       z     vdW  Elec       q    Type
REMARK                         _______ _______ _______ _____ _____    ______ ____
ROOT
ATOM      1  C   UNL     1      -2.249   1.608  -0.941  0.00  0.00    +0.201 C 
ATOM      2  O   UNL     1      -2.594   0.966   0.029  0.00  0.00    -0.278 OA
ATOM      3  N   UNL     1      -3.161   1.982  -1.860  0.00  0.00    -0.281 N 
ATOM      4  H   UNL     1      -2.885   2.495  -2.636  0.00  0.00    +0.155 HD
ENDROOT
BRANCH   3   5
ATOM      5  C   UNL     1      -4.493   1.633  -1.698  0.00  0.00    +0.084 A 
ATOM      6  C   UNL     1      -5.566   1.927  -2.522  0.00  0.00    +0.068 A 
ATOM      7  C   UNL     1      -6.883   1.433  -2.121  0.00  0.00    -0.023 A 
ATOM      8  C   UNL     1      -6.907   0.741  -0.967  0.00  0.00    -0.004 A 
ATOM      9  S   UNL     1      -5.220   0.731  -0.412  0.00  0.00    -0.077 S 
ATOM     10  C   UNL     1      -8.293   0.270  -0.621  0.00  0.00    +0.043 C 
ATOM     11  C   UNL     1      -9.086   0.388  -1.942  0.00  0.00    +0.010 C 
ATOM     12  C   UNL     1      -8.306   1.496  -2.678  0.00  0.00    +0.037 C 
BRANCH   6  13
ATOM     13  C   UNL     1      -5.388   2.701  -3.754  0.00  0.00    +0.244 C 
ATOM     14  O   UNL     1      -5.146   2.131  -4.802  0.00  0.00    -0.270 OA
ATOM     15  N   UNL     1      -5.492   4.045  -3.726  0.00  0.00    -0.325 N 
ATOM     16  H   UNL     1      -5.684   4.499  -2.891  0.00  0.00    +0.145 HD
ATOM     17  H   UNL     1      -5.374   4.558  -4.541  0.00  0.00    +0.145 HD
ENDBRANCH   6  13
ENDBRANCH   3   5
BRANCH   1  18
ATOM     18  C   UNL     1      -0.802   1.987  -1.117  0.00  0.00    +0.019 C 
BRANCH  18  20
ATOM     19  C   UNL     1       0.002  -0.004   0.002  0.00  0.00    -0.095 C 
ATOM     20  N   UNL     1      -0.030   1.473   0.034  0.00  0.00    +0.386 N 
ATOM     21  H   UNL     1      -0.486   1.778   0.903  0.00  0.00    -0.081 HD
BRANCH  20  22
ATOM     22  C   UNL     1       1.346   2.010   0.000  0.00  0.00    -0.039 C 
BRANCH  22  24
ATOM     23  C   UNL     1       2.768   0.556   1.536  0.00  0.00    +0.107 A 
ATOM     24  C   UNL     1       2.039   1.654   1.290  0.00  0.00    -0.015 A 
ATOM     25  C   UNL     1       2.056   2.442   2.528  0.00  0.00    +0.022 A 
ATOM     26  C   UNL     1       1.493   3.656   2.919  0.00  0.00    +0.012 A 
ATOM     27  C   UNL     1       1.701   4.122   4.188  0.00  0.00    +0.001 A 
ATOM     28  C   UNL     1       2.464   3.393   5.088  0.00  0.00    +0.004 A 
ATOM     29  C   UNL     1       3.024   2.188   4.721  0.00  0.00    +0.047 A 
ATOM     30  C   UNL     1       2.825   1.696   3.437  0.00  0.00    +0.135 A 
ATOM     31  O   UNL     1       3.231   0.580   2.798  0.00  0.00    -0.459 OA
BRANCH  23  33
ATOM     32  C   UNL     1       4.306  -0.230  -0.244  0.00  0.00    +0.012 C 
ATOM     33  C   UNL     1       3.031  -0.545   0.541  0.00  0.00    +0.071 C 
ENDBRANCH  23  33
ENDBRANCH  22  24
ENDBRANCH  20  22
ENDBRANCH  18  20
ENDBRANCH   1  18
TORSDOF 7
