REMARK  Name = ZINC36348097
REMARK  6 active torsions:
REMARK  status: ('A' for Active; 'I' for Inactive)
REMARK    1  A    between atoms: C_1  and  C_2
REMARK    2  A    between atoms: C_2  and  C_3
REMARK    3  A    between atoms: C_6  and  C_9
REMARK    4  A    between atoms: N_19  and  C_20
REMARK    5  A    between atoms: C_20  and  C_21
REMARK    6  A    between atoms: C_26  and  O_27
REMARK                            x       y       z     vdW  Elec       q    Type
REMARK                         _______ _______ _______ _____ _____    ______ ____
ROOT
ATOM      1  C   UNL     1      -5.367  -2.031  -0.024  0.00  0.00    +0.011 C 
ATOM      2  C   UNL     1      -5.397  -3.484  -0.429  0.00  0.00    +0.009 A 
ATOM      3  C   UNL     1      -4.417  -4.387  -0.229  0.00  0.00    +0.021 A 
ATOM      4  C   UNL     1      -4.866  -5.619  -0.746  0.00  0.00    +0.019 A 
ATOM      5  C   UNL     1      -6.103  -5.421  -1.246  0.00  0.00    +0.086 A 
ATOM      6  N   UNL     1      -6.431  -4.112  -1.063  0.00  0.00    -0.352 N 
ATOM      7  C   UNL     1      -7.678  -3.459  -1.482  0.00  0.00    +0.119 C 
ATOM      8  C   UNL     1      -8.202  -2.601  -0.328  0.00  0.00    +0.003 C 
ATOM      9  C   UNL     1      -7.593  -1.206  -0.406  0.00  0.00    -0.075 C 
ATOM     10  N   UNL     1      -6.226  -1.256  -0.930  0.00  0.00    +0.391 N 
ATOM     11  H   UNL     1      -6.233  -1.692  -1.840  0.00  0.00    -0.080 HD
ENDROOT
BRANCH   1  15
ATOM     12  C   UNL     1      -1.362  -0.565  -0.258  0.00  0.00    -0.048 A 
ATOM     13  C   UNL     1      -1.994  -1.035  -1.395  0.00  0.00    +0.004 A 
ATOM     14  C   UNL     1      -3.290  -1.509  -1.319  0.00  0.00    +0.002 A 
ATOM     15  C   UNL     1      -3.954  -1.514  -0.106  0.00  0.00    -0.055 A 
ATOM     16  C   UNL     1      -3.322  -1.046   1.030  0.00  0.00    +0.002 A 
ATOM     17  C   UNL     1      -2.024  -0.576   0.955  0.00  0.00    +0.004 A 
BRANCH  12  19
ATOM     18  C   UNL     1       1.030  -1.200  -0.107  0.00  0.00    +0.009 C 
ATOM     19  C   UNL     1       0.051  -0.048  -0.341  0.00  0.00    +0.032 C 
ENDBRANCH  12  19
ENDBRANCH   1  15
BRANCH  10  20
ATOM     20  C   UNL     1      -5.700   0.110  -1.051  0.00  0.00    -0.038 C 
BRANCH  20  21
ATOM     21  C   UNL     1      -6.527   0.880  -2.049  0.00  0.00    -0.021 A 
ATOM     22  C   UNL     1      -6.073   1.043  -3.343  0.00  0.00    +0.025 A 
ATOM     23  C   UNL     1      -6.831   1.750  -4.259  0.00  0.00    +0.041 A 
ATOM     24  C   UNL     1      -8.045   2.295  -3.881  0.00  0.00    +0.023 A 
ATOM     25  C   UNL     1      -8.503   2.134  -2.588  0.00  0.00    +0.047 A 
ATOM     26  C   UNL     1      -7.746   1.421  -1.669  0.00  0.00    +0.118 A 
ATOM     27 CL   UNL     1      -6.258   1.954  -5.885  0.00  0.00    -0.084 Cl
BRANCH  26  28
ATOM     28  O   UNL     1      -8.197   1.256  -0.398  0.00  0.00    -0.507 OA
ATOM     29  H   UNL     1      -7.922   1.956   0.211  0.00  0.00    +0.292 HD
ENDBRANCH  26  28
ENDBRANCH  20  21
ENDBRANCH  10  20
TORSDOF 5
