REMARK  Name = ZINC32891531
REMARK  5 active torsions:
REMARK  status: ('A' for Active; 'I' for Inactive)
REMARK    1  A    between atoms: C_1  and  C_2
REMARK    2  A    between atoms: N_16  and  C_17
REMARK    3  A    between atoms: C_17  and  C_18
REMARK    4  A    between atoms: N_20  and  C_21
REMARK    5  A    between atoms: C_21  and  C_28
REMARK                            x       y       z     vdW  Elec       q    Type
REMARK                         _______ _______ _______ _____ _____    ______ ____
ROOT
ATOM      1  C   UNL     1      -1.672   3.383   2.222  0.00  0.00    -0.008 C 
ATOM      2  C   UNL     1      -0.494   2.957   1.343  0.00  0.00    -0.040 C 
ATOM      3  C   UNL     1      -0.461   3.816   0.106  0.00  0.00    -0.054 A 
ATOM      4  C   UNL     1      -0.702   5.176   0.238  0.00  0.00    +0.051 A 
ATOM      5  C   UNL     1      -0.672   6.007  -0.869  0.00  0.00    +0.162 A 
ATOM      6  C   UNL     1      -0.393   5.473  -2.122  0.00  0.00    +0.162 A 
ATOM      7  C   UNL     1      -0.157   4.114  -2.250  0.00  0.00    +0.053 A 
ATOM      8  C   UNL     1      -0.194   3.285  -1.139  0.00  0.00    -0.038 A 
ATOM      9  C   UNL     1       0.064   1.815  -1.326  0.00  0.00    -0.019 C 
ATOM     10  C   UNL     1      -1.175   1.149  -1.956  0.00  0.00    +0.010 C 
ATOM     11  C   UNL     1      -0.862   1.127  -3.473  0.00  0.00    +0.001 C 
ATOM     12  C   UNL     1       0.656   0.820  -3.506  0.00  0.00    +0.001 C 
ATOM     13  C   UNL     1       1.227   1.609  -2.308  0.00  0.00    +0.010 C 
ATOM     14  C   UNL     1       0.384   1.150   0.010  0.00  0.00    -0.066 C 
ATOM     15  N   UNL     1      -0.642   1.543   0.990  0.00  0.00    +0.390 N 
ATOM     16  O   UNL     1      -0.347   6.268  -3.219  0.00  0.00    -0.485 OA
ATOM     17  C   UNL     1      -0.869   7.586  -3.142  0.00  0.00    +0.270 C 
ATOM     18  C   UNL     1      -0.603   8.218  -1.784  0.00  0.00    +0.270 C 
ATOM     19  O   UNL     1      -0.917   7.332  -0.721  0.00  0.00    -0.485 OA
ATOM     20  H   UNL     1      -1.633   1.408   0.533  0.00  0.00    -0.080 HD
ENDROOT
BRANCH  15  21
ATOM     21  C   UNL     1      -0.583   0.690   2.184  0.00  0.00    +0.019 C 
BRANCH  21  22
ATOM     22  C   UNL     1      -0.944  -0.724   1.810  0.00  0.00    +0.197 C 
ATOM     23  O   UNL     1      -1.335  -0.974   0.689  0.00  0.00    -0.278 OA
ATOM     24  N   UNL     1      -0.833  -1.712   2.720  0.00  0.00    -0.310 N 
ATOM     25  H   UNL     1      -0.478  -1.486   3.736  0.00  0.00    +0.149 HD
BRANCH  24  26
ATOM     26  C   UNL     1      -1.184  -3.087   2.356  0.00  0.00    +0.052 C 
ATOM     27  C   UNL     1      -0.359  -3.496   1.136  0.00  0.00    +0.049 C 
ATOM     28  C   UNL     1       0.980  -4.147   1.585  0.00  0.00    +0.168 C 
ATOM     29  S   UNL     1       0.375  -5.133   3.024  0.00  0.00    -0.029 S 
ATOM     30  O   UNL     1       1.391  -5.183   4.017  0.00  0.00    -0.174 OA
ATOM     31  O   UNL     1      -0.207  -6.341   2.552  0.00  0.00    -0.174 OA
ATOM     32  C   UNL     1      -0.961  -3.995   3.581  0.00  0.00    +0.191 C 
ATOM     33  C   UNL     1      -2.666  -3.129   1.977  0.00  0.00    +0.033 C 
ENDBRANCH  24  26
ENDBRANCH  21  22
ENDBRANCH  15  21
TORSDOF 3
