REMARK  Name = ZINC21643287
REMARK  9 active torsions:
REMARK  status: ('A' for Active; 'I' for Inactive)
REMARK    1  A    between atoms: C_1  and  O_2
REMARK    2  A    between atoms: O_2  and  C_3
REMARK    3  A    between atoms: C_6  and  C_9
REMARK    4  A    between atoms: C_14  and  N_18
REMARK    5  A    between atoms: N_18  and  C_19
REMARK    6  A    between atoms: C_19  and  C_20
REMARK    7  A    between atoms: C_20  and  C_21
REMARK    8  A    between atoms: C_21  and  N_22
REMARK    9  A    between atoms: N_25  and  C_28
REMARK                            x       y       z     vdW  Elec       q    Type
REMARK                         _______ _______ _______ _____ _____    ______ ____
ROOT
ATOM      1  N   UNL     1       2.980  -2.118  -0.750  0.00  0.00    -0.328 N 
ATOM      2  H   UNL     1       3.799  -1.394  -0.627  0.00  0.00    +0.147 HD
ENDROOT
BRANCH   1   8
ATOM      3  C   UNL     1       2.260   0.743   0.035  0.00  0.00    +0.002 A 
ATOM      4  C   UNL     1       1.727   1.944   0.357  0.00  0.00    +0.056 A 
ATOM      5  S   UNL     1      -0.029   1.669   0.225  0.00  0.00    -0.076 S 
ATOM      6  C   UNL     1      -0.011  -0.037  -0.255  0.00  0.00    +0.114 A 
ATOM      7  C   UNL     1       1.362  -0.356  -0.303  0.00  0.00    +0.055 A 
ATOM      8  C   UNL     1       1.665  -1.694  -0.671  0.00  0.00    +0.131 A 
ATOM      9  N   UNL     1       0.675  -2.531  -0.938  0.00  0.00    -0.220 NA
ATOM     10  C   UNL     1      -0.592  -2.164  -0.873  0.00  0.00    +0.224 A 
ATOM     11  N   UNL     1      -0.935  -0.935  -0.537  0.00  0.00    -0.228 NA
BRANCH   3  15
ATOM     12  C   UNL     1       6.476   0.183   0.006  0.00  0.00    +0.120 A 
ATOM     13  C   UNL     1       5.899   1.137  -0.820  0.00  0.00    +0.046 A 
ATOM     14  C   UNL     1       4.532   1.321  -0.813  0.00  0.00    +0.012 A 
ATOM     15  C   UNL     1       3.730   0.547   0.025  0.00  0.00    -0.016 A 
ATOM     16  C   UNL     1       4.313  -0.407   0.857  0.00  0.00    +0.012 A 
ATOM     17  C   UNL     1       5.681  -0.589   0.842  0.00  0.00    +0.046 A 
BRANCH  12  19
ATOM     18  C   UNL     1       8.351  -0.995   0.873  0.00  0.00    +0.277 C 
ATOM     19  O   UNL     1       7.823   0.004  -0.002  0.00  0.00    -0.495 OA
ENDBRANCH  12  19
ENDBRANCH   3  15
ENDBRANCH   1   8
BRANCH   1  20
ATOM     20  C   UNL     1       3.281  -3.530  -0.998  0.00  0.00    +0.104 C 
BRANCH  20  21
ATOM     21  C   UNL     1       4.798  -3.728  -1.038  0.00  0.00    +0.034 C 
BRANCH  21  22
ATOM     22  C   UNL     1       5.112  -5.203  -1.297  0.00  0.00    +0.086 C 
BRANCH  22  23
ATOM     23  N   UNL     1       6.569  -5.393  -1.337  0.00  0.00    -0.306 NA
ATOM     24  C   UNL     1       7.159  -4.705  -2.493  0.00  0.00    +0.066 C 
ATOM     25  C   UNL     1       8.681  -4.860  -2.453  0.00  0.00    -0.063 C 
ATOM     26  N   UNL     1       9.025  -6.289  -2.462  0.00  0.00    +0.383 N 
ATOM     27  C   UNL     1       8.435  -6.977  -1.306  0.00  0.00    -0.063 C 
ATOM     28  C   UNL     1       6.913  -6.822  -1.346  0.00  0.00    +0.066 C 
ATOM     29  H   UNL     1       8.602  -6.734  -3.375  0.00  0.00    -0.081 HD
BRANCH  26  30
ATOM     30  C   UNL     1      10.481  -6.479  -2.502  0.00  0.00    -0.068 C 
ATOM     31  C   UNL     1      11.117  -5.805  -1.284  0.00  0.00    -0.015 C 
ATOM     32  C   UNL     1      12.633  -6.003  -1.325  0.00  0.00    -0.002 C 
ATOM     33  C   UNL     1      13.195  -5.380  -2.605  0.00  0.00    -0.000 C 
ATOM     34  C   UNL     1      12.559  -6.055  -3.822  0.00  0.00    -0.002 C 
ATOM     35  C   UNL     1      11.043  -5.857  -3.781  0.00  0.00    -0.015 C 
ENDBRANCH  26  30
ENDBRANCH  22  23
ENDBRANCH  21  22
ENDBRANCH  20  21
ENDBRANCH   1  20
TORSDOF 8
