REMARK  Name = ZINC43553418
REMARK  11 active torsions:
REMARK  status: ('A' for Active; 'I' for Inactive)
REMARK    1  A    between atoms: C_1  and  C_2
REMARK    2  A    between atoms: C_2  and  C_3
REMARK    3  A    between atoms: C_2  and  N_4
REMARK    4  A    between atoms: C_5  and  C_7
REMARK    5  A    between atoms: C_7  and  C_8
REMARK    6  A    between atoms: C_16  and  C_18
REMARK    7  A    between atoms: C_27  and  C_37
REMARK    8  A    between atoms: C_30  and  O_36
REMARK    9  A    between atoms: C_32  and  C_33
REMARK   10  A    between atoms: C_32  and  C_34
REMARK   11  A    between atoms: C_34  and  O_35
REMARK                            x       y       z     vdW  Elec       q    Type
REMARK                         _______ _______ _______ _____ _____    ______ ____
ROOT
ATOM      1  C   UNL     1      -3.140  -3.480  -1.129  0.00  0.00    +0.054 C 
ATOM      2  C   UNL     1      -2.903  -3.391  -2.623  0.00  0.00    +0.058 A 
ATOM      3  C   UNL     1      -3.296  -4.429  -3.401  0.00  0.00    +0.015 A 
ATOM      4  S   UNL     1      -2.820  -3.889  -5.020  0.00  0.00    -0.057 S 
ATOM      5  C   UNL     1      -2.164  -2.402  -4.572  0.00  0.00    +0.165 A 
ATOM      6  N   UNL     1      -2.332  -2.381  -3.267  0.00  0.00    -0.229 NA
ATOM      7  N   UNL     1      -1.586  -1.433  -5.383  0.00  0.00    -0.264 N 
ATOM      8  C   UNL     1      -1.499  -1.631  -6.713  0.00  0.00    +0.222 C 
ATOM      9  O   UNL     1      -1.927  -2.656  -7.203  0.00  0.00    -0.275 OA
ATOM     10  C   UNL     1      -3.961  -5.688  -2.977  0.00  0.00    +0.049 C 
ATOM     11  C   UNL     1      -4.163  -5.762  -1.452  0.00  0.00    +0.011 C 
ATOM     12  C   UNL     1      -4.358  -4.372  -0.860  0.00  0.00    -0.019 C 
ATOM     13  C   UNL     1      -5.638  -3.763  -1.418  0.00  0.00    +0.010 C 
ATOM     14  C   UNL     1      -6.831  -4.622  -0.997  0.00  0.00    +0.032 C 
ATOM     15  C   UNL     1      -6.696  -6.055  -1.477  0.00  0.00    +0.123 C 
ATOM     16  C   UNL     1      -5.346  -6.696  -1.201  0.00  0.00    +0.021 C 
ATOM     17  C   UNL     1      -5.320  -7.290   0.214  0.00  0.00    +0.016 C 
ATOM     18  C   UNL     1      -4.465  -4.423   0.671  0.00  0.00    +0.012 C 
ATOM     19  H   UNL     1      -1.244  -0.614  -4.992  0.00  0.00    +0.157 HD
ENDROOT
BRANCH   8  20
ATOM     20  C   UNL     1      -0.872  -0.581  -7.593  0.00  0.00    +0.075 C 
ATOM     21  C   UNL     1      -1.656   0.727  -7.464  0.00  0.00    +0.013 C 
ATOM     22  C   UNL     1      -1.019   1.793  -8.357  0.00  0.00    +0.001 C 
ATOM     23  C   UNL     1      -1.046   1.323  -9.812  0.00  0.00    +0.000 C 
ATOM     24  C   UNL     1      -0.262   0.016  -9.941  0.00  0.00    +0.001 C 
ATOM     25  C   UNL     1      -0.899  -1.051  -9.048  0.00  0.00    +0.013 C 
ENDBRANCH   8  20
BRANCH  15  26
ATOM     26  O   UNL     1      -7.002  -6.129  -2.874  0.00  0.00    -0.391 OA
ATOM     27  H   UNL     1      -7.897  -5.840  -3.096  0.00  0.00    +0.210 HD
ENDBRANCH  15  26
BRANCH   1  28
ATOM     28  C   UNL     1      -3.348  -2.091  -0.534  0.00  0.00    +0.106 C 
BRANCH  28  30
ATOM     29  N   UNL     1      -2.021  -0.031  -0.195  0.00  0.00    -0.313 N 
ATOM     30  C   UNL     1      -2.073  -1.296  -0.657  0.00  0.00    +0.214 C 
ATOM     31  O   UNL     1      -1.095  -1.795  -1.172  0.00  0.00    -0.276 OA
ATOM     32  H   UNL     1      -2.803   0.368   0.216  0.00  0.00    +0.149 HD
BRANCH  29  34
ATOM     33  C   UNL     1      -1.112   2.236  -0.323  0.00  0.00    +0.027 C 
ATOM     34  C   UNL     1      -0.782   0.742  -0.315  0.00  0.00    +0.067 C 
ATOM     35  C   UNL     1       0.132   0.427   0.870  0.00  0.00    +0.027 C 
ENDBRANCH  29  34
ENDBRANCH  28  30
ENDBRANCH   1  28
BRANCH  16  36
ATOM     36  C   UNL     1      -5.214  -7.913  -2.155  0.00  0.00    +0.165 C 
BRANCH  36  37
ATOM     37  O   UNL     1      -6.309  -8.806  -1.942  0.00  0.00    -0.394 OA
ATOM     38  H   UNL     1      -6.292  -9.591  -2.506  0.00  0.00    +0.209 HD
ENDBRANCH  36  37
ENDBRANCH  16  36
TORSDOF 7
