REMARK  Name = ZINC39404581
REMARK  5 active torsions:
REMARK  status: ('A' for Active; 'I' for Inactive)
REMARK    1  A    between atoms: C_7  and  C_10
REMARK    2  A    between atoms: C_10  and  C_11
REMARK    3  A    between atoms: C_11  and  N_12
REMARK    4  A    between atoms: C_13  and  C_15
REMARK    5  A    between atoms: N_17  and  C_18
REMARK                            x       y       z     vdW  Elec       q    Type
REMARK                         _______ _______ _______ _____ _____    ______ ____
ROOT
ATOM      1  N   UNL     1      -4.962   5.047  -1.362  0.00  0.00    -0.307 N 
ATOM      2  C   UNL     1      -5.120   5.719  -2.519  0.00  0.00    +0.299 C 
ATOM      3  O   UNL     1      -4.826   5.191  -3.572  0.00  0.00    -0.265 OA
ATOM      4  H   UNL     1      -5.197   5.469  -0.520  0.00  0.00    +0.149 HD
ENDROOT
BRANCH   2   5
ATOM      5  C   UNL     1      -5.656   7.114  -2.507  0.00  0.00    +0.301 C 
ATOM      6  O   UNL     1      -5.949   7.642  -1.455  0.00  0.00    -0.265 OA
ATOM      7  N   UNL     1      -5.813   7.786  -3.665  0.00  0.00    -0.280 N 
ATOM      8  H   UNL     1      -5.579   7.364  -4.506  0.00  0.00    +0.152 HD
BRANCH   7   9
ATOM      9  C   UNL     1      -6.339   9.153  -3.653  0.00  0.00    +0.224 C 
ATOM     10  N   UNL     1      -6.175   9.794  -4.965  0.00  0.00    -0.316 N 
ATOM     11  C   UNL     1      -7.330  10.184  -5.640  0.00  0.00    +0.043 A 
ATOM     12  C   UNL     1      -7.370  10.809  -6.899  0.00  0.00    +0.024 A 
ATOM     13  C   UNL     1      -8.565  11.157  -7.484  0.00  0.00    +0.002 A 
ATOM     14  C   UNL     1      -9.769  10.903  -6.854  0.00  0.00    +0.001 A 
ATOM     15  C   UNL     1      -9.760  10.288  -5.613  0.00  0.00    +0.016 A 
ATOM     16  C   UNL     1      -8.563   9.941  -5.029  0.00  0.00    +0.032 A 
ATOM     17  S   UNL     1      -8.168   9.157  -3.481  0.00  0.00    -0.082 S 
ATOM     18  H   UNL     1      -5.295   9.941  -5.346  0.00  0.00    +0.149 HD
ENDBRANCH   7   9
ENDBRANCH   2   5
BRANCH   1  19
ATOM     19  C   UNL     1      -4.437   3.680  -1.374  0.00  0.00    +0.109 C 
BRANCH  19  20
ATOM     20  C   UNL     1      -4.358   3.151   0.060  0.00  0.00    +0.056 C 
BRANCH  20  27
ATOM     21  C   UNL     1      -0.017   1.384   0.010  0.00  0.00    +0.001 A 
ATOM     22  C   UNL     1       0.002  -0.004   0.002  0.00  0.00    +0.002 A 
ATOM     23  C   UNL     1      -1.173  -0.723   0.009  0.00  0.00    +0.026 A 
ATOM     24  C   UNL     1      -2.392  -0.053   0.024  0.00  0.00    +0.047 A 
ATOM     25  N   UNL     1      -3.704  -0.472   0.034  0.00  0.00    -0.360 N 
ATOM     26  C   UNL     1      -4.539   0.612   0.047  0.00  0.00    +0.087 A 
ATOM     27  C   UNL     1      -3.818   1.744   0.047  0.00  0.00    -0.021 A 
ATOM     28  C   UNL     1      -2.406   1.353   0.032  0.00  0.00    +0.003 A 
ATOM     29  C   UNL     1      -1.203   2.062   0.030  0.00  0.00    +0.010 A 
ATOM     30  H   UNL     1      -3.993  -1.398   0.030  0.00  0.00    +0.165 HD
ENDBRANCH  20  27
ENDBRANCH  19  20
ENDBRANCH   1  19
TORSDOF 5
