REMARK  Name = ZINC01327563
REMARK  7 active torsions:
REMARK  status: ('A' for Active; 'I' for Inactive)
REMARK    1  A    between atoms: C_1  and  O_2
REMARK    2  A    between atoms: O_2  and  C_3
REMARK    3  A    between atoms: C_8  and  C_15
REMARK    4  A    between atoms: C_15  and  N_16
REMARK    5  A    between atoms: N_16  and  C_17
REMARK    6  A    between atoms: C_17  and  C_18
REMARK    7  A    between atoms: N_27  and  C_28
REMARK                            x       y       z     vdW  Elec       q    Type
REMARK                         _______ _______ _______ _____ _____    ______ ____
ROOT
ATOM      1  N   UNL     1      -7.976  -1.210   4.028  0.00  0.00    -0.277 N 
ATOM      2  C   UNL     1      -7.949  -2.445   3.489  0.00  0.00    +0.307 C 
ATOM      3  O   UNL     1      -7.735  -2.584   2.300  0.00  0.00    -0.252 OA
ATOM      4  N   UNL     1      -8.160  -3.525   4.266  0.00  0.00    -0.269 N 
ATOM      5  H   UNL     1      -8.254  -3.421   5.226  0.00  0.00    +0.156 HD
ENDROOT
BRANCH   4   6
ATOM      6  C   UNL     1      -8.244  -4.798   3.689  0.00  0.00    +0.035 A 
ATOM      7  C   UNL     1      -7.777  -5.908   4.381  0.00  0.00    +0.026 A 
ATOM      8  C   UNL     1      -7.866  -7.163   3.812  0.00  0.00    +0.040 A 
ATOM      9  C   UNL     1      -8.410  -7.315   2.548  0.00  0.00    +0.124 A 
ATOM     10  C   UNL     1      -8.871  -6.209   1.854  0.00  0.00    +0.040 A 
ATOM     11  C   UNL     1      -8.789  -4.952   2.421  0.00  0.00    +0.026 A 
ATOM     12  F   UNL     1      -8.491  -8.543   1.992  0.00  0.00    -0.205 F 
ENDBRANCH   4   6
BRANCH   1  13
ATOM     13  C   UNL     1      -7.746  -0.036   3.183  0.00  0.00    +0.150 C 
BRANCH  13  19
ATOM     14  C   UNL     1      -1.381   0.777   2.189  0.00  0.00    +0.122 A 
ATOM     15  C   UNL     1      -1.901  -0.004   1.157  0.00  0.00    +0.046 A 
ATOM     16  C   UNL     1      -3.225  -0.329   1.133  0.00  0.00    +0.013 A 
ATOM     17  C   UNL     1      -4.073   0.134   2.147  0.00  0.00    -0.001 A 
ATOM     18  C   UNL     1      -5.499  -0.193   2.146  0.00  0.00    +0.020 A 
ATOM     19  C   UNL     1      -6.274   0.282   3.154  0.00  0.00    +0.035 A 
ATOM     20  C   UNL     1      -5.706   1.072   4.174  0.00  0.00    +0.254 A 
ATOM     21  O   UNL     1      -6.420   1.488   5.070  0.00  0.00    -0.268 OA
ATOM     22  N   UNL     1      -4.397   1.379   4.184  0.00  0.00    -0.322 N 
ATOM     23  H   UNL     1      -4.040   1.925   4.901  0.00  0.00    +0.169 HD
ATOM     24  C   UNL     1      -3.556   0.927   3.189  0.00  0.00    +0.053 A 
ATOM     25  C   UNL     1      -2.203   1.244   3.200  0.00  0.00    +0.072 A 
BRANCH  14  27
ATOM     26  C   UNL     1       0.735   0.574   1.128  0.00  0.00    +0.277 C 
ATOM     27  O   UNL     1      -0.060   1.086   2.199  0.00  0.00    -0.495 OA
ENDBRANCH  14  27
ENDBRANCH  13  19
ENDBRANCH   1  13
BRANCH   1  28
ATOM     28  C   UNL     1      -8.234  -1.042   5.460  0.00  0.00    +0.144 C 
BRANCH  28  29
ATOM     29  C   UNL     1      -9.717  -0.900   5.690  0.00  0.00    -0.030 A 
ATOM     30  C   UNL     1     -10.301   0.352   5.679  0.00  0.00    +0.006 A 
ATOM     31  C   UNL     1     -11.662   0.482   5.884  0.00  0.00    +0.020 A 
ATOM     32  C   UNL     1     -12.437  -0.640   6.112  0.00  0.00    +0.041 A 
ATOM     33  C   UNL     1     -11.851  -1.893   6.129  0.00  0.00    +0.020 A 
ATOM     34  C   UNL     1     -10.491  -2.023   5.918  0.00  0.00    +0.006 A 
ATOM     35 CL   UNL     1     -14.145  -0.477   6.376  0.00  0.00    -0.084 Cl
ENDBRANCH  28  29
ENDBRANCH   1  28
TORSDOF 6
