REMARK  Name = ZINC36546459
REMARK  12 active torsions:
REMARK  status: ('A' for Active; 'I' for Inactive)
REMARK    1  A    between atoms: C_1  and  C_2
REMARK    2  A    between atoms: C_2  and  C_3
REMARK    3  A    between atoms: C_2  and  C_4
REMARK    4  A    between atoms: C_2  and  N_5
REMARK    5  A    between atoms: C_6  and  C_8
REMARK    6  A    between atoms: C_8  and  C_10
REMARK    7  A    between atoms: C_8  and  N_15
REMARK    8  A    between atoms: N_15  and  C_16
REMARK    9  A    between atoms: C_23  and  C_25
REMARK   10  A    between atoms: C_25  and  C_26
REMARK   11  A    between atoms: C_25  and  C_32
REMARK   12  A    between atoms: C_25  and  O_38
REMARK                            x       y       z     vdW  Elec       q    Type
REMARK                         _______ _______ _______ _____ _____    ______ ____
ROOT
ATOM      1  N   UNL     1       4.154   0.272  -1.840  0.00  0.00    -0.248 N 
ATOM      2  C   UNL     1       5.041  -0.703  -2.123  0.00  0.00    +0.262 C 
ATOM      3  O   UNL     1       4.699  -1.866  -2.078  0.00  0.00    -0.271 OA
ENDROOT
BRANCH   1   4
ATOM      4  C   UNL     1       4.516   1.614  -1.999  0.00  0.00    +0.056 A 
ATOM      5  C   UNL     1       5.037   2.326  -0.927  0.00  0.00    +0.025 A 
ATOM      6  C   UNL     1       5.394   3.651  -1.087  0.00  0.00    +0.002 A 
ATOM      7  C   UNL     1       5.232   4.269  -2.313  0.00  0.00    +0.002 A 
ATOM      8  C   UNL     1       4.713   3.564  -3.383  0.00  0.00    +0.022 A 
ATOM      9  C   UNL     1       4.360   2.236  -3.232  0.00  0.00    +0.062 A 
ATOM     10 CL   UNL     1       3.716   1.349  -4.578  0.00  0.00    -0.082 Cl
ENDBRANCH   1   4
BRANCH   1  11
ATOM     11  C   UNL     1       2.812  -0.074  -1.366  0.00  0.00    +0.233 C 
BRANCH  11  12
ATOM     12  C   UNL     1       1.785   0.468  -2.326  0.00  0.00    +0.135 A 
ATOM     13  C   UNL     1       0.661  -0.160  -2.713  0.00  0.00    +0.047 A 
ATOM     14  C   UNL     1      -0.003   0.705  -3.613  0.00  0.00    +0.041 A 
ATOM     15  C   UNL     1       0.756   1.810  -3.722  0.00  0.00    +0.195 A 
ATOM     16  O   UNL     1       1.835   1.664  -2.936  0.00  0.00    -0.465 OA
ENDBRANCH  11  12
BRANCH  11  18
ATOM     17  N   UNL     1       1.418   0.338   0.635  0.00  0.00    -0.309 N 
ATOM     18  C   UNL     1       2.591   0.526  -0.002  0.00  0.00    +0.242 C 
ATOM     19  O   UNL     1       3.468   1.179   0.523  0.00  0.00    -0.273 OA
ATOM     20  H   UNL     1       0.717  -0.183   0.216  0.00  0.00    +0.149 HD
BRANCH  17  22
ATOM     21  C   UNL     1       1.338   2.444   1.877  0.00  0.00    +0.031 C 
ATOM     22  C   UNL     1       1.203   0.922   1.962  0.00  0.00    +0.026 C 
ATOM     23  C   UNL     1       2.246   0.371   2.937  0.00  0.00    +0.031 C 
ATOM     24  C   UNL     1      -0.199   0.561   2.457  0.00  0.00    +0.031 C 
ENDBRANCH  17  22
ENDBRANCH  11  18
ENDBRANCH   1  11
BRANCH   2  25
ATOM     25  C   UNL     1       6.458  -0.349  -2.495  0.00  0.00    +0.193 C 
BRANCH  25  26
ATOM     26  C   UNL     1       7.233  -0.003  -1.250  0.00  0.00    -0.003 A 
ATOM     27  C   UNL     1       7.071  -0.758  -0.103  0.00  0.00    +0.007 A 
ATOM     28  C   UNL     1       7.782  -0.441   1.039  0.00  0.00    +0.000 A 
ATOM     29  C   UNL     1       8.655   0.630   1.035  0.00  0.00    +0.000 A 
ATOM     30  C   UNL     1       8.818   1.384  -0.112  0.00  0.00    +0.000 A 
ATOM     31  C   UNL     1       8.110   1.065  -1.256  0.00  0.00    +0.007 A 
ENDBRANCH  25  26
BRANCH  25  32
ATOM     32  C   UNL     1       7.106  -1.524  -3.181  0.00  0.00    -0.003 A 
ATOM     33  C   UNL     1       7.298  -2.706  -2.491  0.00  0.00    +0.007 A 
ATOM     34  C   UNL     1       7.893  -3.784  -3.120  0.00  0.00    +0.000 A 
ATOM     35  C   UNL     1       8.295  -3.680  -4.439  0.00  0.00    +0.000 A 
ATOM     36  C   UNL     1       8.102  -2.498  -5.128  0.00  0.00    +0.000 A 
ATOM     37  C   UNL     1       7.503  -1.421  -4.501  0.00  0.00    +0.007 A 
ENDBRANCH  25  32
BRANCH  25  38
ATOM     38  O   UNL     1       6.451   0.774  -3.379  0.00  0.00    -0.371 OA
ATOM     39  H   UNL     1       5.969   0.623  -4.203  0.00  0.00    +0.212 HD
ENDBRANCH  25  38
ENDBRANCH   2  25
TORSDOF 9
