REMARK  Name = ZINC49180915
REMARK  14 active torsions:
REMARK  status: ('A' for Active; 'I' for Inactive)
REMARK    1  A    between atoms: C_1  and  C_2
REMARK    2  A    between atoms: C_6  and  C_38
REMARK    3  A    between atoms: C_9  and  O_34
REMARK    4  A    between atoms: C_11  and  C_32
REMARK    5  A    between atoms: C_11  and  C_33
REMARK    6  A    between atoms: C_16  and  C_31
REMARK    7  A    between atoms: C_17  and  C_27
REMARK    8  A    between atoms: C_18  and  C_26
REMARK    9  A    between atoms: C_21  and  C_24
REMARK   10  A    between atoms: C_21  and  O_25
REMARK   11  A    between atoms: C_27  and  O_29
REMARK   12  A    between atoms: O_29  and  C_30
REMARK   13  A    between atoms: O_34  and  C_35
REMARK   14  A    between atoms: C_35  and  C_37
REMARK                            x       y       z     vdW  Elec       q    Type
REMARK                         _______ _______ _______ _____ _____    ______ ____
ROOT
ATOM      1  C   UNL     1      -3.334   2.494   0.504  0.00  0.00    +0.040 C 
ATOM      2  C   UNL     1      -2.343   1.549  -0.119  0.00  0.00    -0.062 C 
ATOM      3  C   UNL     1      -2.160   1.577  -1.409  0.00  0.00    -0.022 C 
ATOM      4  C   UNL     1      -1.222   0.702  -2.198  0.00  0.00    +0.025 C 
ATOM      5  C   UNL     1      -1.902   0.420  -3.542  0.00  0.00    -0.022 C 
ATOM      6  C   UNL     1      -3.414   0.316  -3.341  0.00  0.00    +0.011 C 
ATOM      7  C   UNL     1      -4.126   0.108  -4.676  0.00  0.00    +0.046 C 
ATOM      8  C   UNL     1      -3.640  -1.170  -5.346  0.00  0.00    +0.182 C 
ATOM      9  C   UNL     1      -2.127  -1.163  -5.544  0.00  0.00    +0.005 C 
ATOM     10  C   UNL     1      -1.378  -0.807  -4.268  0.00  0.00    +0.005 C 
ATOM     11  C   UNL     1      -1.459  -1.978  -3.274  0.00  0.00    +0.005 C 
ATOM     12  C   UNL     1      -0.422  -1.734  -2.188  0.00  0.00    +0.009 C 
ATOM     13  C   UNL     1      -0.629  -0.440  -1.421  0.00  0.00    -0.001 C 
ATOM     14  C   UNL     1      -1.262  -0.659  -0.088  0.00  0.00    +0.150 C 
ATOM     15  C   UNL     1      -1.553   0.620   0.724  0.00  0.00    +0.073 C 
ATOM     16  C   UNL     1      -2.226   0.009   1.935  0.00  0.00    +0.183 C 
ATOM     17  O   UNL     1      -3.183   0.411   2.552  0.00  0.00    -0.293 OA
ATOM     18  C   UNL     1      -1.400  -1.254   2.211  0.00  0.00    +0.180 C 
ATOM     19  C   UNL     1      -0.555  -1.490   0.956  0.00  0.00    +0.190 C 
ATOM     20  O   UNL     1       0.421  -2.175   0.837  0.00  0.00    -0.293 OA
ATOM     21  C   UNL     1      -0.503  -1.061   3.431  0.00  0.00    +0.058 C 
ATOM     22  C   UNL     1      -0.307   1.351   1.223  0.00  0.00    +0.025 C 
ATOM     23  C   UNL     1       0.845  -0.022  -1.183  0.00  0.00    +0.013 C 
ATOM     24  C   UNL     1      -1.760  -0.233  -6.708  0.00  0.00    +0.015 C 
ATOM     25  C   UNL     1      -1.720  -2.576  -6.018  0.00  0.00    +0.015 C 
ATOM     26  C   UNL     1      -1.621   1.686  -4.383  0.00  0.00    +0.012 C 
ENDROOT
BRANCH  18  27
ATOM     27  O   UNL     1      -2.268  -2.373   2.427  0.00  0.00    -0.374 OA
ATOM     28  H   UNL     1      -2.855  -2.274   3.189  0.00  0.00    +0.211 HD
ENDBRANCH  18  27
BRANCH  14  29
ATOM     29  C   UNL     1      -2.603  -1.357  -0.318  0.00  0.00    +0.322 C 
ATOM     30  O   UNL     1      -3.635  -0.786  -0.056  0.00  0.00    -0.250 OA
BRANCH  29  31
ATOM     31  O   UNL     1      -2.634  -2.605  -0.812  0.00  0.00    -0.467 OA
ATOM     32  C   UNL     1      -3.921  -3.196  -1.001  0.00  0.00    +0.280 C 
ENDBRANCH  29  31
ENDBRANCH  14  29
BRANCH   8  33
ATOM     33  O   UNL     1      -4.024  -2.309  -4.570  0.00  0.00    -0.461 OA
BRANCH  33  34
ATOM     34  C   UNL     1      -5.213  -2.865  -4.851  0.00  0.00    +0.304 C 
ATOM     35  O   UNL     1      -5.905  -2.400  -5.726  0.00  0.00    -0.251 OA
ATOM     36  C   UNL     1      -5.684  -4.068  -4.076  0.00  0.00    +0.136 C 
ENDBRANCH  33  34
ENDBRANCH   8  33
TORSDOF 5
