REMARK  Name = ZINC02138251
REMARK  8 active torsions:
REMARK  status: ('A' for Active; 'I' for Inactive)
REMARK    1  A    between atoms: C_1  and  C_2
REMARK    2  A    between atoms: C_7  and  C_8
REMARK    3  A    between atoms: C_17  and  C_19
REMARK    4  A    between atoms: C_19  and  C_20
REMARK    5  A    between atoms: N_25  and  C_28
REMARK    6  A    between atoms: C_28  and  C_29
REMARK    7  A    between atoms: C_32  and  O_35
REMARK    8  A    between atoms: O_35  and  C_36
REMARK                            x       y       z     vdW  Elec       q    Type
REMARK                         _______ _______ _______ _____ _____    ______ ____
ROOT
ATOM      1  C   UNL     1      -0.013   1.086   0.008  0.00  0.00    +0.044 C 
ATOM      2  C   UNL     1      -0.718   1.572   1.248  0.00  0.00    -0.046 A 
ATOM      3  C   UNL     1      -2.084   1.788   1.222  0.00  0.00    +0.004 A 
ATOM      4  C   UNL     1      -2.733   2.229   2.362  0.00  0.00    +0.005 A 
ATOM      5  C   UNL     1      -2.017   2.462   3.516  0.00  0.00    -0.027 A 
ATOM      6  C   UNL     1      -0.641   2.254   3.551  0.00  0.00    +0.039 A 
ATOM      7  C   UNL     1       0.002   1.804   2.401  0.00  0.00    -0.026 A 
ATOM      8  C   UNL     1       1.491   1.570   2.416  0.00  0.00    +0.046 C 
ATOM      9  N   UNL     1      -0.140   2.557   4.819  0.00  0.00    -0.286 N 
ATOM     10  C   UNL     1      -1.106   2.968   5.663  0.00  0.00    +0.211 C 
ATOM     11  O   UNL     1      -0.964   3.299   6.821  0.00  0.00    -0.277 OA
ATOM     12  C   UNL     1      -2.396   2.936   4.890  0.00  0.00    +0.050 C 
ATOM     13  C   UNL     1      -3.059   4.317   4.846  0.00  0.00    +0.088 C 
ATOM     14  C   UNL     1      -4.140   4.270   5.962  0.00  0.00    +0.073 C 
ATOM     15  C   UNL     1      -4.002   2.865   6.586  0.00  0.00    -0.049 C 
ATOM     16  C   UNL     1      -3.660   5.303   6.955  0.00  0.00    +0.224 C 
ATOM     17  O   UNL     1      -4.220   5.593   7.991  0.00  0.00    -0.275 OA
ATOM     18  N   UNL     1      -2.520   5.848   6.515  0.00  0.00    -0.237 N 
ATOM     19  C   UNL     1      -2.091   5.367   5.342  0.00  0.00    +0.225 C 
ATOM     20  O   UNL     1      -1.083   5.718   4.767  0.00  0.00    -0.275 OA
ATOM     21  H   UNL     1       0.796   2.481   5.063  0.00  0.00    +0.155 HD
ATOM     22  N   UNL     1      -3.371   2.070   5.530  0.00  0.00    +0.394 N 
ATOM     23  H   UNL     1      -2.906   1.249   5.934  0.00  0.00    -0.083 HD
ATOM     24  H   UNL     1      -4.075   1.763   4.848  0.00  0.00    -0.083 HD
ENDROOT
BRANCH  15  25
ATOM     25  C   UNL     1      -5.378   2.310   6.959  0.00  0.00    +0.080 C 
BRANCH  25  26
ATOM     26  C   UNL     1      -5.212   0.995   7.676  0.00  0.00    +0.209 C 
ATOM     27  O   UNL     1      -4.103   0.546   7.870  0.00  0.00    -0.276 OA
ATOM     28  N   UNL     1      -6.297   0.319   8.103  0.00  0.00    -0.329 N 
ATOM     29  H   UNL     1      -7.185   0.678   7.948  0.00  0.00    +0.145 HD
ATOM     30  H   UNL     1      -6.190  -0.528   8.565  0.00  0.00    +0.145 HD
ENDBRANCH  25  26
ENDBRANCH  15  25
BRANCH  18  31
ATOM     31  C   UNL     1      -1.800   6.887   7.255  0.00  0.00    +0.151 C 
BRANCH  31  32
ATOM     32  C   UNL     1      -2.296   8.244   6.827  0.00  0.00    -0.029 A 
ATOM     33  C   UNL     1      -1.685   8.902   5.776  0.00  0.00    +0.009 A 
ATOM     34  C   UNL     1      -2.141  10.144   5.378  0.00  0.00    +0.046 A 
ATOM     35  C   UNL     1      -3.206  10.735   6.042  0.00  0.00    +0.120 A 
ATOM     36  C   UNL     1      -3.814  10.076   7.100  0.00  0.00    +0.046 A 
ATOM     37  C   UNL     1      -3.357   8.832   7.490  0.00  0.00    +0.009 A 
BRANCH  35  38
ATOM     38  O   UNL     1      -3.654  11.959   5.655  0.00  0.00    -0.495 OA
ATOM     39  C   UNL     1      -2.980  12.579   4.558  0.00  0.00    +0.277 C 
ENDBRANCH  35  38
ENDBRANCH  31  32
ENDBRANCH  18  31
TORSDOF 5
