REMARK  Name = ZINC09357132
REMARK  5 active torsions:
REMARK  status: ('A' for Active; 'I' for Inactive)
REMARK    1  A    between atoms: C_1  and  C_2
REMARK    2  A    between atoms: C_9  and  C_27
REMARK    3  A    between atoms: C_11  and  C_18
REMARK    4  A    between atoms: C_21  and  N_24
REMARK    5  A    between atoms: C_27  and  C_29
REMARK                            x       y       z     vdW  Elec       q    Type
REMARK                         _______ _______ _______ _____ _____    ______ ____
ROOT
ATOM      1  C   UNL     1      -6.366   8.430  -1.306  0.00  0.00    +0.044 C 
ATOM      2  C   UNL     1      -4.919   8.341  -1.717  0.00  0.00    -0.050 A 
ATOM      3  C   UNL     1      -4.542   8.680  -3.003  0.00  0.00    +0.005 A 
ATOM      4  C   UNL     1      -3.219   8.600  -3.385  0.00  0.00    +0.024 A 
ATOM      5  C   UNL     1      -2.252   8.177  -2.476  0.00  0.00    +0.036 A 
ATOM      6  C   UNL     1      -2.643   7.838  -1.184  0.00  0.00    -0.027 A 
ATOM      7  C   UNL     1      -3.965   7.920  -0.808  0.00  0.00    +0.008 A 
ATOM      8  C   UNL     1      -1.386   7.432  -0.469  0.00  0.00    +0.052 C 
ATOM      9  C   UNL     1      -1.473   5.994   0.056  0.00  0.00    +0.069 C 
ATOM     10  C   UNL     1      -1.999   6.146   1.501  0.00  0.00    +0.016 C 
ATOM     11  C   UNL     1      -1.833   7.631   1.830  0.00  0.00    -0.047 C 
ATOM     12  C   UNL     1       0.338   8.348   0.914  0.00  0.00    -0.005 C 
ATOM     13  S   UNL     1       0.504   8.410   2.743  0.00  0.00    -0.181 S 
ATOM     14  C   UNL     1      -1.187   7.851   3.202  0.00  0.00    +0.052 C 
ATOM     15  C   UNL     1      -0.289   7.580  -1.488  0.00  0.00    +0.212 C 
ATOM     16  O   UNL     1       0.890   7.353  -1.321  0.00  0.00    -0.277 OA
ATOM     17  N   UNL     1      -0.872   8.015  -2.622  0.00  0.00    -0.286 N 
ATOM     18  H   UNL     1      -0.390   8.195  -3.444  0.00  0.00    +0.155 HD
ATOM     19  N   UNL     1      -1.143   8.261   0.690  0.00  0.00    +0.401 N 
ATOM     20  H   UNL     1      -1.519   9.204   0.538  0.00  0.00    -0.078 HD
ENDROOT
BRANCH  10  21
ATOM     21  C   UNL     1      -1.181   5.305   2.447  0.00  0.00    -0.045 A 
ATOM     22  C   UNL     1       0.167   5.563   2.611  0.00  0.00    +0.006 A 
ATOM     23  C   UNL     1       0.917   4.795   3.482  0.00  0.00    +0.033 A 
ATOM     24  C   UNL     1       0.320   3.763   4.182  0.00  0.00    +0.126 A 
ATOM     25  C   UNL     1      -1.027   3.502   4.014  0.00  0.00    +0.033 A 
ATOM     26  C   UNL     1      -1.778   4.273   3.146  0.00  0.00    +0.006 A 
BRANCH  24  27
ATOM     27  N   UNL     1       1.123   2.938   5.112  0.00  0.00    +0.056 N 
ATOM     28  O   UNL     1       0.597   2.029   5.729  0.00  0.00    -0.126 OA
ATOM     29  O   UNL     1       2.310   3.167   5.260  0.00  0.00    -0.126 OA
ENDBRANCH  24  27
ENDBRANCH  10  21
BRANCH   9  30
ATOM     30  C   UNL     1      -0.111   5.350   0.055  0.00  0.00    +0.168 C 
ATOM     31  O   UNL     1       0.886   6.038   0.119  0.00  0.00    -0.292 OA
BRANCH  30  32
ATOM     32  C   UNL     1       0.011   3.885  -0.023  0.00  0.00    +0.036 A 
ATOM     33  C   UNL     1       1.273   3.272  -0.024  0.00  0.00    +0.014 A 
ATOM     34  C   UNL     1       1.331   1.893  -0.099  0.00  0.00    +0.020 A 
ATOM     35  C   UNL     1       0.154   1.168  -0.171  0.00  0.00    +0.111 A 
ATOM     36  N   UNL     1      -1.020   1.770  -0.173  0.00  0.00    -0.263 NA
ATOM     37  C   UNL     1      -1.130   3.080  -0.098  0.00  0.00    +0.122 A 
ENDBRANCH  30  32
ENDBRANCH   9  30
TORSDOF 4
