REMARK  Name = ZINC01856438
REMARK  9 active torsions:
REMARK  status: ('A' for Active; 'I' for Inactive)
REMARK    1  A    between atoms: C_1  and  N_2
REMARK    2  A    between atoms: N_2  and  C_3
REMARK    3  A    between atoms: N_2  and  C_4
REMARK    4  A    between atoms: C_20  and  N_30
REMARK    5  A    between atoms: C_26  and  N_27
REMARK    6  A    between atoms: N_27  and  C_28
REMARK    7  A    between atoms: N_27  and  C_29
REMARK    8  A    between atoms: N_30  and  C_31
REMARK    9  A    between atoms: N_30  and  C_32
REMARK                            x       y       z     vdW  Elec       q    Type
REMARK                         _______ _______ _______ _____ _____    ______ ____
ROOT
ATOM      1  C   UNL     1      -3.773   8.444  -3.959  0.00  0.00    +0.040 A 
ATOM      2  C   UNL     1      -2.386   8.469  -4.092  0.00  0.00    +0.024 A 
ATOM      3  C   UNL     1      -1.661   7.317  -3.881  0.00  0.00    +0.002 A 
ATOM      4  C   UNL     1      -2.303   6.133  -3.559  0.00  0.00    +0.005 A 
ATOM      5  C   UNL     1      -3.682   6.072  -3.457  0.00  0.00    -0.021 A 
ATOM      6  C   UNL     1      -4.423   7.245  -3.635  0.00  0.00    +0.047 A 
ATOM      7  C   UNL     1      -5.890   7.210  -3.473  0.00  0.00    +0.188 C 
ATOM      8  O   UNL     1      -6.599   8.162  -3.750  0.00  0.00    -0.287 OA
ATOM      9  C   UNL     1      -6.500   5.972  -2.958  0.00  0.00    +0.048 C 
ATOM     10  C   UNL     1      -5.784   4.880  -2.803  0.00  0.00    -0.007 C 
ATOM     11  C   UNL     1      -4.322   4.753  -3.130  0.00  0.00    +0.041 C 
ATOM     12  C   UNL     1      -4.192   3.788  -4.311  0.00  0.00    +0.025 C 
ATOM     13  C   UNL     1      -2.734   3.440  -4.581  0.00  0.00    +0.037 C 
ATOM     14  C   UNL     1      -2.074   2.920  -3.332  0.00  0.00    -0.039 A 
ATOM     15  C   UNL     1      -0.998   2.092  -3.455  0.00  0.00    +0.006 A 
ATOM     16  C   UNL     1      -0.333   1.622  -2.333  0.00  0.00    +0.024 A 
ATOM     17  C   UNL     1      -0.761   1.960  -1.059  0.00  0.00    +0.039 A 
ATOM     18  C   UNL     1      -1.901   2.768  -0.894  0.00  0.00    +0.025 A 
ATOM     19  C   UNL     1      -2.542   3.285  -2.059  0.00  0.00    -0.007 A 
ATOM     20  C   UNL     1      -3.630   4.158  -1.923  0.00  0.00    -0.025 A 
ATOM     21  C   UNL     1      -4.099   4.488  -0.685  0.00  0.00    +0.007 A 
ATOM     22  C   UNL     1      -3.527   3.942   0.454  0.00  0.00    +0.024 A 
ATOM     23  C   UNL     1      -2.446   3.083   0.365  0.00  0.00    +0.039 A 
ENDROOT
BRANCH   1  25
ATOM     24  C   UNL     1      -4.048  10.654  -3.189  0.00  0.00    +0.129 C 
ATOM     25  N   UNL     1      -4.481   9.625  -4.144  0.00  0.00    -0.335 N 
ATOM     26  C   UNL     1      -4.354  10.104  -5.527  0.00  0.00    +0.129 C 
ENDBRANCH   1  25
BRANCH  23  27
ATOM     27  N   UNL     1      -1.949   2.563   1.560  0.00  0.00    -0.335 N 
ATOM     28  C   UNL     1      -1.497   3.638   2.454  0.00  0.00    +0.129 C 
ATOM     29  C   UNL     1      -2.950   1.715   2.221  0.00  0.00    +0.129 C 
ENDBRANCH  23  27
BRANCH  17  30
ATOM     30  N   UNL     1      -0.018   1.465   0.010  0.00  0.00    -0.335 N 
ATOM     31  C   UNL     1       0.002  -0.004   0.002  0.00  0.00    +0.129 C 
ATOM     32  C   UNL     1       1.346   2.010   0.000  0.00  0.00    +0.129 C 
ENDBRANCH  17  30
TORSDOF 3
