REMARK  Name = ZINC36514670
REMARK  16 active torsions:
REMARK  status: ('A' for Active; 'I' for Inactive)
REMARK    1  A    between atoms: C_1  and  C_2
REMARK    2  A    between atoms: C_2  and  C_3
REMARK    3  A    between atoms: C_3  and  C_4
REMARK    4  A    between atoms: C_4  and  C_5
REMARK    5  A    between atoms: C_5  and  C_6
REMARK    6  A    between atoms: C_6  and  N_7
REMARK    7  A    between atoms: N_7  and  C_8
REMARK    8  A    between atoms: C_8  and  C_10
REMARK    9  A    between atoms: C_8  and  C_17
REMARK   10  A    between atoms: N_19  and  C_20
REMARK   11  A    between atoms: C_20  and  C_21
REMARK   12  A    between atoms: C_20  and  C_22
REMARK   13  A    between atoms: C_20  and  C_23
REMARK   14  A    between atoms: C_24  and  C_26
REMARK   15  A    between atoms: C_27  and  O_33
REMARK   16  A    between atoms: C_31  and  O_32
REMARK                            x       y       z     vdW  Elec       q    Type
REMARK                         _______ _______ _______ _____ _____    ______ ____
ROOT
ATOM      1  N   UNL     1       2.158  -4.521  -3.724  0.00  0.00    -0.282 N 
ATOM      2  C   UNL     1       1.481  -4.965  -4.801  0.00  0.00    +0.255 C 
ATOM      3  O   UNL     1       2.056  -5.611  -5.657  0.00  0.00    -0.270 OA
ENDROOT
BRANCH   2   4
ATOM      4  C   UNL     1       0.046  -4.669  -4.942  0.00  0.00    +0.119 A 
ATOM      5  C   UNL     1      -0.374  -3.507  -5.606  0.00  0.00    +0.133 A 
ATOM      6  C   UNL     1      -1.727  -3.239  -5.733  0.00  0.00    +0.046 A 
ATOM      7  C   UNL     1      -2.663  -4.112  -5.209  0.00  0.00    +0.007 A 
ATOM      8  C   UNL     1      -2.260  -5.260  -4.552  0.00  0.00    +0.046 A 
ATOM      9  C   UNL     1      -0.912  -5.551  -4.419  0.00  0.00    +0.133 A 
BRANCH   9  10
ATOM     10  O   UNL     1      -0.519  -6.681  -3.779  0.00  0.00    -0.506 OA
ATOM     11  H   UNL     1      -0.390  -6.569  -2.827  0.00  0.00    +0.292 HD
ENDBRANCH   9  10
BRANCH   5  12
ATOM     12  O   UNL     1       0.542  -2.649  -6.121  0.00  0.00    -0.506 OA
ATOM     13  H   UNL     1       0.792  -2.843  -7.035  0.00  0.00    +0.292 HD
ENDBRANCH   5  12
ENDBRANCH   2   4
BRANCH   1  14
ATOM     14  C   UNL     1       1.443  -3.851  -2.634  0.00  0.00    +0.109 C 
BRANCH  14  15
ATOM     15  C   UNL     1       1.394  -2.346  -2.905  0.00  0.00    +0.019 C 
BRANCH  15  16
ATOM     16  C   UNL     1       0.647  -1.647  -1.768  0.00  0.00    +0.002 C 
BRANCH  16  17
ATOM     17  C   UNL     1       0.598  -0.142  -2.039  0.00  0.00    -0.000 C 
BRANCH  17  19
ATOM     18  C   UNL     1      -0.197   2.062  -1.172  0.00  0.00    +0.004 C 
ATOM     19  C   UNL     1      -0.148   0.557  -0.901  0.00  0.00    -0.003 C 
ENDBRANCH  17  19
ENDBRANCH  16  17
ENDBRANCH  15  16
ENDBRANCH  14  15
ENDBRANCH   1  14
BRANCH   1  20
ATOM     20  C   UNL     1       3.609  -4.707  -3.643  0.00  0.00    +0.192 C 
BRANCH  20  21
ATOM     21  C   UNL     1       4.272  -3.378  -3.388  0.00  0.00    -0.018 A 
ATOM     22  C   UNL     1       4.578  -2.544  -4.447  0.00  0.00    +0.007 A 
ATOM     23  C   UNL     1       5.186  -1.325  -4.213  0.00  0.00    +0.020 A 
ATOM     24  C   UNL     1       5.490  -0.940  -2.920  0.00  0.00    +0.041 A 
ATOM     25  C   UNL     1       5.184  -1.775  -1.860  0.00  0.00    +0.020 A 
ATOM     26  C   UNL     1       4.570  -2.991  -2.094  0.00  0.00    +0.007 A 
ATOM     27 CL   UNL     1       6.255   0.591  -2.626  0.00  0.00    -0.084 Cl
ENDBRANCH  20  21
BRANCH  20  28
ATOM     28  C   UNL     1       3.932  -5.654  -2.515  0.00  0.00    +0.238 C 
ATOM     29  O   UNL     1       3.037  -6.127  -1.846  0.00  0.00    -0.273 OA
ATOM     30  N   UNL     1       5.213  -5.975  -2.251  0.00  0.00    -0.309 N 
ATOM     31  H   UNL     1       5.928  -5.597  -2.787  0.00  0.00    +0.149 HD
BRANCH  30  32
ATOM     32  C   UNL     1       5.527  -6.896  -1.156  0.00  0.00    +0.026 C 
ATOM     33  C   UNL     1       4.853  -8.245  -1.415  0.00  0.00    +0.031 C 
ATOM     34  C   UNL     1       7.042  -7.090  -1.071  0.00  0.00    +0.031 C 
ATOM     35  C   UNL     1       5.013  -6.314   0.163  0.00  0.00    +0.031 C 
ENDBRANCH  30  32
ENDBRANCH  20  28
ENDBRANCH   1  20
TORSDOF 12
