REMARK  Name = ZINC23329912
REMARK  6 active torsions:
REMARK  status: ('A' for Active; 'I' for Inactive)
REMARK    1  A    between atoms: C_1  and  C_2
REMARK    2  A    between atoms: C_3  and  C_32
REMARK    3  A    between atoms: C_7  and  N_18
REMARK    4  A    between atoms: C_9  and  C_11
REMARK    5  A    between atoms: C_11  and  N_12
REMARK    6  A    between atoms: N_21  and  C_24
REMARK                            x       y       z     vdW  Elec       q    Type
REMARK                         _______ _______ _______ _____ _____    ______ ____
ROOT
ATOM      1  C   UNL     1      -1.228   4.019   0.432  0.00  0.00    +0.045 C 
ATOM      2  C   UNL     1      -1.651   2.866   1.304  0.00  0.00    -0.028 A 
ATOM      3  C   UNL     1      -1.607   1.610   0.836  0.00  0.00    -0.008 A 
ATOM      4  S   UNL     1      -2.184   0.632   2.210  0.00  0.00    -0.074 S 
ATOM      5  C   UNL     1      -2.476   1.937   3.374  0.00  0.00    +0.114 A 
ATOM      6  C   UNL     1      -2.116   3.101   2.660  0.00  0.00    +0.051 A 
ATOM      7  C   UNL     1      -2.255   4.323   3.374  0.00  0.00    +0.133 A 
ATOM      8  N   UNL     1      -2.700   4.294   4.620  0.00  0.00    -0.215 NA
ATOM      9  C   UNL     1      -3.019   3.165   5.227  0.00  0.00    +0.146 A 
ATOM     10  N   UNL     1      -2.911   2.001   4.617  0.00  0.00    -0.223 NA
ATOM     11  C   UNL     1      -1.167   1.137  -0.526  0.00  0.00    +0.052 C 
ENDROOT
BRANCH   7  12
ATOM     12  N   UNL     1      -1.931   5.526   2.774  0.00  0.00    -0.318 N 
ATOM     13  C   UNL     1      -0.883   6.226   3.529  0.00  0.00    +0.088 C 
ATOM     14  C   UNL     1      -0.497   7.510   2.792  0.00  0.00    -0.059 C 
ATOM     15  N   UNL     1      -1.687   8.359   2.637  0.00  0.00    +0.385 N 
ATOM     16  C   UNL     1      -2.735   7.659   1.881  0.00  0.00    -0.059 C 
ATOM     17  C   UNL     1      -3.120   6.375   2.619  0.00  0.00    +0.088 C 
ATOM     18  H   UNL     1      -2.080   8.578   3.640  0.00  0.00    -0.081 HD
BRANCH  15  19
ATOM     19  C   UNL     1      -1.342   9.637   2.000  0.00  0.00    -0.046 C 
ATOM     20  C   UNL     1      -2.566  10.568   2.007  0.00  0.00    +0.009 C 
ATOM     21  C   UNL     1      -2.136  12.008   1.638  0.00  0.00    +0.164 C 
ATOM     22  S   UNL     1      -0.390  12.068   2.213  0.00  0.00    -0.033 S 
ATOM     23  O   UNL     1       0.459  12.274   1.093  0.00  0.00    -0.174 OA
ATOM     24  O   UNL     1      -0.301  12.944   3.329  0.00  0.00    -0.174 OA
ATOM     25  C   UNL     1      -0.201  10.331   2.797  0.00  0.00    +0.151 C 
ENDBRANCH  15  19
ENDBRANCH   7  12
BRANCH   9  26
ATOM     26  C   UNL     1      -3.519   3.209   6.648  0.00  0.00    +0.160 C 
BRANCH  26  27
ATOM     27  N   UNL     1      -2.381   3.103   7.571  0.00  0.00    -0.291 NA
ATOM     28  C   UNL     1      -1.744   1.781   7.472  0.00  0.00    +0.113 C 
ATOM     29  C   UNL     1      -0.530   1.734   8.404  0.00  0.00    +0.175 C 
ATOM     30  O   UNL     1      -0.948   2.035   9.738  0.00  0.00    -0.377 OA
ATOM     31  C   UNL     1      -1.572   3.315   9.871  0.00  0.00    +0.175 C 
ATOM     32  C   UNL     1      -2.796   3.378   8.954  0.00  0.00    +0.113 C 
ENDBRANCH  26  27
ENDBRANCH   9  26
TORSDOF 4
