REMARK  Name = ZINC33679102
REMARK  14 active torsions:
REMARK  status: ('A' for Active; 'I' for Inactive)
REMARK    1  A    between atoms: C_1  and  C_2
REMARK    2  A    between atoms: C_2  and  C_4
REMARK    3  A    between atoms: C_2  and  N_7
REMARK    4  A    between atoms: C_4  and  C_5
REMARK    5  A    between atoms: C_4  and  C_6
REMARK    6  A    between atoms: C_8  and  C_10
REMARK    7  A    between atoms: C_10  and  C_11
REMARK    8  A    between atoms: C_17  and  C_19
REMARK    9  A    between atoms: C_19  and  N_20
REMARK   10  A    between atoms: N_20  and  C_21
REMARK   11  A    between atoms: C_21  and  C_22
REMARK   12  A    between atoms: C_22  and  C_23
REMARK   13  A    between atoms: C_22  and  C_24
REMARK   14  A    between atoms: C_25  and  C_27
REMARK                            x       y       z     vdW  Elec       q    Type
REMARK                         _______ _______ _______ _____ _____    ______ ____
ROOT
ATOM      1  C   UNL     1       0.913   2.862   6.168  0.00  0.00    +0.059 A 
ATOM      2  C   UNL     1       1.294   1.723   6.798  0.00  0.00    +0.072 A 
ATOM      3  S   UNL     1      -0.205   1.312   7.676  0.00  0.00    -0.060 S 
ATOM      4  C   UNL     1      -1.142   2.611   7.158  0.00  0.00    +0.165 A 
ATOM      5  N   UNL     1      -0.321   3.280   6.379  0.00  0.00    -0.229 NA
ATOM      6  N   UNL     1      -2.461   2.907   7.480  0.00  0.00    -0.263 N 
ATOM      7  C   UNL     1      -3.151   2.098   8.309  0.00  0.00    +0.236 C 
ATOM      8  O   UNL     1      -2.619   1.111   8.774  0.00  0.00    -0.274 OA
ATOM      9  H   UNL     1      -2.886   3.695   7.108  0.00  0.00    +0.157 HD
ENDROOT
BRANCH   1  10
ATOM     10  C   UNL     1       1.859   3.620   5.273  0.00  0.00    +0.151 C 
BRANCH  10  12
ATOM     11  N   UNL     1       1.896   4.459   2.946  0.00  0.00    -0.312 N 
ATOM     12  C   UNL     1       1.228   3.805   3.917  0.00  0.00    +0.219 C 
ATOM     13  O   UNL     1       0.119   3.364   3.699  0.00  0.00    -0.275 OA
ATOM     14  H   UNL     1       2.783   4.811   3.120  0.00  0.00    +0.149 HD
BRANCH  11  16
ATOM     15  C   UNL     1       0.388   5.880   1.647  0.00  0.00    +0.028 C 
ATOM     16  C   UNL     1       1.282   4.639   1.628  0.00  0.00    +0.072 C 
BRANCH  16  17
ATOM     17  C   UNL     1       2.378   4.816   0.575  0.00  0.00    +0.003 C 
ATOM     18  C   UNL     1       3.273   3.575   0.556  0.00  0.00    +0.009 C 
ATOM     19  C   UNL     1       1.737   5.004  -0.801  0.00  0.00    +0.009 C 
ENDBRANCH  16  17
ENDBRANCH  11  16
ENDBRANCH  10  12
ENDBRANCH   1  10
BRANCH   7  20
ATOM     20  C   UNL     1      -4.581   2.418   8.658  0.00  0.00    +0.204 C 
BRANCH  20  21
ATOM     21  N   UNL     1      -5.103   1.395   9.567  0.00  0.00    -0.288 N 
ATOM     22  C   UNL     1      -5.977   0.474   9.115  0.00  0.00    +0.248 C 
ATOM     23  O   UNL     1      -6.437  -0.354   9.877  0.00  0.00    -0.270 OA
BRANCH  22  24
ATOM     24  C   UNL     1      -6.377   0.471   7.693  0.00  0.00    +0.055 A 
ATOM     25  C   UNL     1      -5.521   0.997   6.723  0.00  0.00    +0.016 A 
ATOM     26  C   UNL     1      -5.899   0.991   5.397  0.00  0.00    +0.021 A 
ATOM     27  C   UNL     1      -7.126   0.465   5.026  0.00  0.00    +0.042 A 
ATOM     28  C   UNL     1      -7.980  -0.058   5.981  0.00  0.00    +0.040 A 
ATOM     29  C   UNL     1      -7.610  -0.064   7.312  0.00  0.00    +0.054 A 
ATOM     30 CL   UNL     1      -8.678  -0.727   8.509  0.00  0.00    -0.083 Cl
ATOM     31 CL   UNL     1      -7.594   0.463   3.354  0.00  0.00    -0.083 Cl
ENDBRANCH  22  24
BRANCH  21  32
ATOM     32  C   UNL     1      -4.675   1.373  10.968  0.00  0.00    +0.111 C 
BRANCH  32  33
ATOM     33  C   UNL     1      -5.526   2.355  11.777  0.00  0.00    +0.000 C 
ATOM     34  C   UNL     1      -6.977   1.872  11.802  0.00  0.00    +0.009 C 
ATOM     35  C   UNL     1      -4.990   2.435  13.208  0.00  0.00    +0.009 C 
ENDBRANCH  32  33
ENDBRANCH  21  32
ENDBRANCH  20  21
ENDBRANCH   7  20
TORSDOF 9
