REMARK  Name = ZINC35990831
REMARK  13 active torsions:
REMARK  status: ('A' for Active; 'I' for Inactive)
REMARK    1  A    between atoms: C_1  and  C_2
REMARK    2  A    between atoms: C_2  and  O_3
REMARK    3  A    between atoms: O_3  and  C_4
REMARK    4  A    between atoms: C_4  and  C_6
REMARK    5  A    between atoms: C_7  and  C_26
REMARK    6  A    between atoms: N_8  and  C_23
REMARK    7  A    between atoms: C_12  and  C_14
REMARK    8  A    between atoms: C_17  and  C_20
REMARK    9  A    between atoms: C_20  and  C_21
REMARK   10  A    between atoms: C_20  and  C_22
REMARK   11  A    between atoms: C_23  and  C_24
REMARK   12  A    between atoms: C_26  and  N_27
REMARK   13  A    between atoms: C_31  and  C_34
REMARK                            x       y       z     vdW  Elec       q    Type
REMARK                         _______ _______ _______ _____ _____    ______ ____
ROOT
ATOM      1  C   UNL     1      -2.796  -2.416   0.160  0.00  0.00    +0.080 C 
ATOM      2  C   UNL     1      -2.985  -3.731  -0.085  0.00  0.00    +0.041 C 
ATOM      3  N   UNL     1      -4.240  -4.249  -0.221  0.00  0.00    -0.254 N 
ATOM      4  C   UNL     1      -5.359  -3.520  -0.126  0.00  0.00    +0.307 C 
ATOM      5  O   UNL     1      -6.434  -4.072  -0.262  0.00  0.00    -0.252 OA
ATOM      6  N   UNL     1      -5.333  -2.194   0.115  0.00  0.00    -0.288 N 
ATOM      7  C   UNL     1      -4.025  -1.538   0.284  0.00  0.00    +0.144 C 
ATOM      8  H   UNL     1      -6.156  -1.685   0.179  0.00  0.00    +0.151 HD
ENDROOT
BRANCH   7   9
ATOM      9  C   UNL     1      -3.998  -0.890   1.644  0.00  0.00    -0.022 A 
ATOM     10  C   UNL     1      -4.405  -1.601   2.757  0.00  0.00    +0.006 A 
ATOM     11  C   UNL     1      -4.380  -1.005   4.004  0.00  0.00    +0.004 A 
ATOM     12  C   UNL     1      -3.947   0.300   4.139  0.00  0.00    -0.045 A 
ATOM     13  C   UNL     1      -3.538   1.011   3.025  0.00  0.00    +0.004 A 
ATOM     14  C   UNL     1      -3.559   0.414   1.779  0.00  0.00    +0.006 A 
BRANCH  12  15
ATOM     15  C   UNL     1      -3.920   0.950   5.498  0.00  0.00    +0.013 C 
ATOM     16  C   UNL     1      -2.488   1.371   5.834  0.00  0.00    +0.012 C 
ATOM     17  C   UNL     1      -4.827   2.182   5.493  0.00  0.00    +0.012 C 
ENDBRANCH  12  15
ENDBRANCH   7   9
BRANCH   1  18
ATOM     18  C   UNL     1      -1.496  -1.877   0.301  0.00  0.00    +0.339 C 
ATOM     19  O   UNL     1      -1.042  -1.665   1.411  0.00  0.00    -0.245 OA
BRANCH  18  20
ATOM     20  O   UNL     1      -0.758  -1.599  -0.793  0.00  0.00    -0.462 OA
BRANCH  20  22
ATOM     21  C   UNL     1       1.226  -0.808  -1.924  0.00  0.00    +0.048 C 
ATOM     22  C   UNL     1       0.546  -1.057  -0.576  0.00  0.00    +0.229 C 
ENDBRANCH  20  22
ENDBRANCH  18  20
ENDBRANCH   1  18
BRANCH   3  23
ATOM     23  C   UNL     1      -4.371  -5.684  -0.485  0.00  0.00    +0.141 C 
BRANCH  23  24
ATOM     24  C   UNL     1      -4.462  -6.430   0.822  0.00  0.00    -0.015 C 
ATOM     25  C   UNL     1      -5.475  -7.229   1.050  0.00  0.00    +0.005 C 
ENDBRANCH  23  24
ENDBRANCH   3  23
BRANCH   2  26
ATOM     26  C   UNL     1      -1.789  -4.640  -0.210  0.00  0.00    +0.136 C 
BRANCH  26  27
ATOM     27  N   UNL     1      -1.770  -5.582   0.917  0.00  0.00    -0.300 NA
ATOM     28  C   UNL     1      -1.537  -4.880   2.187  0.00  0.00    +0.066 C 
ATOM     29  C   UNL     1      -1.584  -5.886   3.339  0.00  0.00    -0.067 C 
ATOM     30  N   UNL     1      -0.556  -6.915   3.133  0.00  0.00    +0.382 N 
ATOM     31  C   UNL     1      -0.817  -7.624   1.873  0.00  0.00    -0.061 C 
ATOM     32  C   UNL     1      -0.764  -6.632   0.709  0.00  0.00    +0.069 C 
ATOM     33  C   UNL     1       0.244  -8.708   1.669  0.00  0.00    -0.012 C 
ATOM     34  H   UNL     1       0.352  -6.479   3.091  0.00  0.00    -0.085 HD
ATOM     35  H   UNL     1      -0.580  -7.571   3.899  0.00  0.00    -0.085 HD
ENDBRANCH  26  27
ENDBRANCH   2  26
TORSDOF 9
