REMARK  Name = ZINC06629911
REMARK  9 active torsions:
REMARK  status: ('A' for Active; 'I' for Inactive)
REMARK    1  A    between atoms: C_1  and  C_2
REMARK    2  A    between atoms: C_2  and  N_3
REMARK    3  A    between atoms: N_3  and  C_4
REMARK    4  A    between atoms: N_3  and  C_6
REMARK    5  A    between atoms: C_4  and  C_5
REMARK    6  A    between atoms: C_9  and  N_13
REMARK    7  A    between atoms: C_10  and  C_12
REMARK    8  A    between atoms: C_14  and  C_16
REMARK    9  A    between atoms: C_17  and  C_18
REMARK                            x       y       z     vdW  Elec       q    Type
REMARK                         _______ _______ _______ _____ _____    ______ ____
ROOT
ATOM      1  N   UNL     1      -0.199  -6.173  -1.736  0.00  0.00    -0.282 N 
ATOM      2  C   UNL     1       0.590  -7.064  -1.104  0.00  0.00    +0.241 C 
ATOM      3  O   UNL     1       1.449  -6.677  -0.334  0.00  0.00    -0.270 OA
ATOM      4  H   UNL     1      -0.927  -6.482  -2.298  0.00  0.00    +0.155 HD
ENDROOT
BRANCH   1   8
ATOM      5  C   UNL     1       0.488  -2.090  -1.278  0.00  0.00    +0.014 A 
ATOM      6  C   UNL     1       0.875  -2.971  -0.284  0.00  0.00    +0.023 A 
ATOM      7  C   UNL     1       0.648  -4.325  -0.433  0.00  0.00    +0.025 A 
ATOM      8  C   UNL     1       0.031  -4.802  -1.582  0.00  0.00    +0.037 A 
ATOM      9  C   UNL     1      -0.356  -3.915  -2.578  0.00  0.00    -0.028 A 
ATOM     10  C   UNL     1      -0.131  -2.562  -2.421  0.00  0.00    +0.026 A 
ATOM     11  C   UNL     1      -1.025  -4.428  -3.827  0.00  0.00    +0.046 C 
BRANCH   5  12
ATOM     12  N   UNL     1       0.720  -0.720  -1.125  0.00  0.00    -0.394 NA
ATOM     13  H   UNL     1       0.374  -0.228  -1.935  0.00  0.00    +0.126 HD
BRANCH  12  15
ATOM     14  C   UNL     1      -1.487  -0.383  -0.118  0.00  0.00    +0.022 C 
ATOM     15  C   UNL     1       0.023  -0.238   0.076  0.00  0.00    +0.081 C 
ENDBRANCH  12  15
BRANCH  12  16
ATOM     16  C   UNL     1       2.162  -0.479  -0.984  0.00  0.00    +0.081 C 
ATOM     17  C   UNL     1       2.874  -0.875  -2.279  0.00  0.00    +0.022 C 
ENDBRANCH  12  16
ENDBRANCH   5  12
ENDBRANCH   1   8
BRANCH   2  18
ATOM     18  C   UNL     1       0.414  -8.496  -1.345  0.00  0.00    +0.068 C 
ATOM     19  C   UNL     1       1.204  -9.389  -0.712  0.00  0.00    +0.014 C 
BRANCH  19  20
ATOM     20  C   UNL     1       1.026 -10.829  -0.954  0.00  0.00    -0.006 A 
ATOM     21  C   UNL     1       0.043 -11.277  -1.843  0.00  0.00    +0.011 A 
ATOM     22  C   UNL     1      -0.117 -12.627  -2.064  0.00  0.00    +0.020 A 
ATOM     23  C   UNL     1       0.692 -13.542  -1.408  0.00  0.00    +0.042 A 
ATOM     24  C   UNL     1       1.667 -13.107  -0.526  0.00  0.00    +0.040 A 
ATOM     25  C   UNL     1       1.844 -11.757  -0.299  0.00  0.00    +0.049 A 
ATOM     26 CL   UNL     1       3.072 -11.213   0.801  0.00  0.00    -0.083 Cl
ATOM     27 CL   UNL     1       0.482 -15.241  -1.694  0.00  0.00    -0.083 Cl
ENDBRANCH  19  20
ENDBRANCH   2  18
TORSDOF 6
