REMARK  Name = ZINC01432470
REMARK  5 active torsions:
REMARK  status: ('A' for Active; 'I' for Inactive)
REMARK    1  A    between atoms: C_1  and  C_2
REMARK    2  A    between atoms: C_5  and  C_8
REMARK    3  A    between atoms: C_14  and  C_17
REMARK    4  A    between atoms: C_20  and  O_23
REMARK    5  A    between atoms: O_23  and  C_24
REMARK                            x       y       z     vdW  Elec       q    Type
REMARK                         _______ _______ _______ _____ _____    ______ ____
ROOT
ATOM      1  C   UNL     1       2.054   0.601  -0.006  0.00  0.00    +0.186 A 
ATOM      2  N   UNL     1       1.223  -0.423  -0.006  0.00  0.00    -0.126 NA
ATOM      3  N   UNL     1       0.002  -0.004   0.002  0.00  0.00    -0.120 NA
ATOM      4  C   UNL     1      -0.015   1.295   0.009  0.00  0.00    +0.213 A 
ATOM      5  N   UNL     1       1.291   1.733  -0.001  0.00  0.00    -0.186 N 
ATOM      6  N   UNL     1       1.640   3.080  -0.010  0.00  0.00    -0.166 NA
ATOM      7  C   UNL     1       0.828   4.008   0.361  0.00  0.00    +0.079 C 
ATOM      8  C   UNL     1      -0.560   3.799   0.885  0.00  0.00    +0.135 C 
ATOM      9  S   UNL     1      -1.373   2.420   0.035  0.00  0.00    -0.078 S 
ENDROOT
BRANCH   1  14
ATOM     10  C   UNL     1       7.803   0.347  -0.025  0.00  0.00    +0.044 C 
ATOM     11  C   UNL     1       6.297   0.413  -0.020  0.00  0.00    -0.050 A 
ATOM     12  C   UNL     1       5.557  -0.714  -0.330  0.00  0.00    +0.004 A 
ATOM     13  C   UNL     1       4.179  -0.659  -0.328  0.00  0.00    +0.012 A 
ATOM     14  C   UNL     1       3.531   0.536  -0.011  0.00  0.00    +0.021 A 
ATOM     15  C   UNL     1       4.284   1.671   0.296  0.00  0.00    +0.012 A 
ATOM     16  C   UNL     1       5.661   1.601   0.295  0.00  0.00    +0.004 A 
ENDBRANCH   1  14
BRANCH   7  17
ATOM     17  C   UNL     1       1.306   5.398   0.262  0.00  0.00    -0.001 A 
ATOM     18  C   UNL     1       0.474   6.454   0.642  0.00  0.00    +0.013 A 
ATOM     19  C   UNL     1       0.927   7.753   0.553  0.00  0.00    +0.046 A 
ATOM     20  C   UNL     1       2.205   8.013   0.074  0.00  0.00    +0.127 A 
ATOM     21  C   UNL     1       3.033   6.967  -0.311  0.00  0.00    +0.046 A 
ATOM     22  C   UNL     1       2.591   5.665  -0.219  0.00  0.00    +0.013 A 
BRANCH  20  23
ATOM     23  O   UNL     1       2.645   9.294  -0.018  0.00  0.00    -0.434 OA
BRANCH  23  24
ATOM     24  C   UNL     1       1.742  10.322   0.395  0.00  0.00    +0.541 C 
ATOM     25  F   UNL     1       0.583  10.266  -0.386  0.00  0.00    -0.166 F 
ATOM     26  F   UNL     1       1.407  10.135   1.741  0.00  0.00    -0.166 F 
ENDBRANCH  23  24
ENDBRANCH  20  23
ENDBRANCH   7  17
TORSDOF 4
