REMARK  Name = ZINC34750066
REMARK  11 active torsions:
REMARK  status: ('A' for Active; 'I' for Inactive)
REMARK    1  A    between atoms: C_1  and  C_2
REMARK    2  A    between atoms: C_2  and  C_3
REMARK    3  A    between atoms: C_2  and  C_4
REMARK    4  A    between atoms: C_4  and  S_5
REMARK    5  A    between atoms: S_5  and  C_6
REMARK    6  A    between atoms: C_17  and  C_19
REMARK    7  A    between atoms: C_17  and  C_20
REMARK    8  A    between atoms: N_24  and  C_27
REMARK    9  A    between atoms: C_27  and  C_28
REMARK   10  A    between atoms: C_28  and  C_29
REMARK   11  A    between atoms: C_29  and  C_30
REMARK                            x       y       z     vdW  Elec       q    Type
REMARK                         _______ _______ _______ _____ _____    ______ ____
ROOT
ATOM      1  C   UNL     1      -3.882  -0.740  -1.367  0.00  0.00    +0.191 A 
ATOM      2  N   UNL     1      -4.761  -0.570  -2.348  0.00  0.00    -0.206 NA
ATOM      3  C   UNL     1      -5.993  -1.044  -2.277  0.00  0.00    +0.134 A 
ATOM      4  C   UNL     1      -6.398  -1.760  -1.116  0.00  0.00    +0.051 A 
ATOM      5  C   UNL     1      -7.694  -2.367  -0.818  0.00  0.00    -0.020 A 
ATOM      6  C   UNL     1      -7.820  -2.998   0.369  0.00  0.00    +0.021 A 
ATOM      7  S   UNL     1      -6.242  -2.826   1.153  0.00  0.00    -0.071 S 
ATOM      8  C   UNL     1      -5.413  -1.903  -0.117  0.00  0.00    +0.115 A 
ATOM      9  N   UNL     1      -4.202  -1.404  -0.265  0.00  0.00    -0.215 NA
ATOM     10  C   UNL     1      -9.048  -3.684   0.882  0.00  0.00    +0.203 C 
ATOM     11  O   UNL     1     -10.153  -3.290   0.053  0.00  0.00    -0.368 OA
ATOM     12  C   UNL     1      -9.882  -3.398  -1.347  0.00  0.00    +0.068 C 
ATOM     13  C   UNL     1      -8.884  -2.318  -1.775  0.00  0.00    +0.071 C 
ATOM     14  C   UNL     1      -9.295  -4.779  -1.646  0.00  0.00    +0.041 C 
ATOM     15  C   UNL     1     -11.185  -3.223  -2.131  0.00  0.00    +0.041 C 
ATOM     16  N   UNL     1      -6.880  -0.845  -3.320  0.00  0.00    -0.318 N 
ATOM     17  C   UNL     1      -7.827   0.280  -3.303  0.00  0.00    +0.088 C 
ATOM     18  C   UNL     1      -7.719   1.027  -4.636  0.00  0.00    -0.060 C 
ATOM     19  N   UNL     1      -7.919   0.082  -5.743  0.00  0.00    +0.382 N 
ATOM     20  C   UNL     1      -6.836  -0.909  -5.756  0.00  0.00    -0.060 C 
ATOM     21  C   UNL     1      -6.897  -1.749  -4.480  0.00  0.00    +0.088 C 
ATOM     22  H   UNL     1      -8.803  -0.389  -5.625  0.00  0.00    -0.082 HD
ENDROOT
BRANCH   1  23
ATOM     23  S   UNL     1      -2.258  -0.078  -1.537  0.00  0.00    -0.086 S 
BRANCH  23  24
ATOM     24  C   UNL     1      -1.427  -0.551   0.004  0.00  0.00    +0.080 C 
BRANCH  24  26
ATOM     25  C   UNL     1       0.002   1.498  -0.012  0.00  0.00    +0.008 C 
ATOM     26  C   UNL     1       0.012  -0.032  -0.012  0.00  0.00    -0.007 C 
ATOM     27  C   UNL     1       0.750  -0.536   1.230  0.00  0.00    +0.008 C 
ENDBRANCH  24  26
ENDBRANCH  23  24
ENDBRANCH   1  23
BRANCH  19  28
ATOM     28  C   UNL     1      -7.924   0.816  -7.016  0.00  0.00    -0.078 C 
BRANCH  28  29
ATOM     29  C   UNL     1      -8.256  -0.147  -8.158  0.00  0.00    -0.014 C 
BRANCH  29  30
ATOM     30  C   UNL     1      -8.262   0.617  -9.483  0.00  0.00    +0.033 C 
BRANCH  30  31
ATOM     31  C   UNL     1      -8.589  -0.331 -10.608  0.00  0.00    -0.047 A 
ATOM     32  C   UNL     1      -7.574  -1.005 -11.261  0.00  0.00    +0.003 A 
ATOM     33  C   UNL     1      -7.874  -1.875 -12.292  0.00  0.00    +0.000 A 
ATOM     34  C   UNL     1      -9.189  -2.071 -12.671  0.00  0.00    +0.000 A 
ATOM     35  C   UNL     1     -10.204  -1.397 -12.018  0.00  0.00    +0.000 A 
ATOM     36  C   UNL     1      -9.905  -0.531 -10.983  0.00  0.00    +0.003 A 
ENDBRANCH  30  31
ENDBRANCH  29  30
ENDBRANCH  28  29
ENDBRANCH  19  28
TORSDOF 7
