REMARK  Name = ZINC18198463
REMARK  12 active torsions:
REMARK  status: ('A' for Active; 'I' for Inactive)
REMARK    1  A    between atoms: C_1  and  O_2
REMARK    2  A    between atoms: O_2  and  C_3
REMARK    3  A    between atoms: C_6  and  C_11
REMARK    4  A    between atoms: C_8  and  O_9
REMARK    5  A    between atoms: O_9  and  C_10
REMARK    6  A    between atoms: C_16  and  C_24
REMARK    7  A    between atoms: C_26  and  O_34
REMARK    8  A    between atoms: C_27  and  O_32
REMARK    9  A    between atoms: C_29  and  O_30
REMARK   10  A    between atoms: O_30  and  C_31
REMARK   11  A    between atoms: O_32  and  C_33
REMARK   12  A    between atoms: O_34  and  C_35
REMARK                            x       y       z     vdW  Elec       q    Type
REMARK                         _______ _______ _______ _____ _____    ______ ____
ROOT
ATOM      1  C   UNL     1       0.938   8.918   5.186  0.00  0.00    +0.032 C 
ATOM      2  C   UNL     1      -0.406   8.270   5.524  0.00  0.00    +0.060 C 
ATOM      3  C   UNL     1      -1.124   7.895   4.249  0.00  0.00    +0.020 C 
ATOM      4  C   UNL     1      -0.434   7.534   3.146  0.00  0.00    +0.041 C 
ATOM      5  C   UNL     1      -1.124   7.128   1.862  0.00  0.00    +0.179 C 
ATOM      6  N   UNL     1      -2.532   7.498   1.913  0.00  0.00    -0.221 N 
ATOM      7  C   UNL     1      -3.166   7.871   3.053  0.00  0.00    +0.218 A 
ATOM      8  N   UNL     1      -4.410   8.127   2.757  0.00  0.00    -0.201 NA
ATOM      9  C   UNL     1      -4.607   7.936   1.449  0.00  0.00    +0.247 A 
ATOM     10  N   UNL     1      -3.483   7.552   0.895  0.00  0.00    -0.156 NA
ATOM     11  N   UNL     1      -2.497   7.932   4.265  0.00  0.00    -0.287 N 
ATOM     12  C   UNL     1       0.973   7.524   3.146  0.00  0.00    +0.164 C 
ATOM     13  O   UNL     1       1.565   7.186   2.139  0.00  0.00    -0.292 OA
ATOM     14  C   UNL     1       1.761   7.921   4.363  0.00  0.00    +0.088 C 
ATOM     15  H   UNL     1      -2.985   7.998   5.101  0.00  0.00    +0.155 HD
ENDROOT
BRANCH   1  19
ATOM     16  C   UNL     1       3.024   9.868   8.796  0.00  0.00    +0.161 A 
ATOM     17  C   UNL     1       2.678   8.556   8.518  0.00  0.00    +0.049 A 
ATOM     18  C   UNL     1       1.998   8.252   7.353  0.00  0.00    +0.008 A 
ATOM     19  C   UNL     1       1.673   9.255   6.458  0.00  0.00    -0.040 A 
ATOM     20  C   UNL     1       2.016  10.566   6.729  0.00  0.00    +0.053 A 
ATOM     21  C   UNL     1       2.692  10.878   7.898  0.00  0.00    +0.162 A 
BRANCH  16  23
ATOM     22  C   UNL     1       3.995   9.082  10.820  0.00  0.00    +0.277 C 
ATOM     23  O   UNL     1       3.687  10.169   9.945  0.00  0.00    -0.491 OA
ENDBRANCH  16  23
BRANCH  21  24
ATOM     24  O   UNL     1       3.030  12.167   8.167  0.00  0.00    -0.491 OA
ATOM     25  C   UNL     1       2.656  13.151   7.199  0.00  0.00    +0.277 C 
ENDBRANCH  21  24
ENDBRANCH   1  19
BRANCH   5  26
ATOM     26  C   UNL     1      -1.006   5.636   1.682  0.00  0.00    +0.027 A 
ATOM     27  C   UNL     1      -1.534   4.782   2.632  0.00  0.00    +0.059 A 
ATOM     28  C   UNL     1      -1.427   3.411   2.469  0.00  0.00    +0.162 A 
ATOM     29  C   UNL     1      -0.787   2.893   1.346  0.00  0.00    +0.165 A 
ATOM     30  C   UNL     1      -0.254   3.750   0.398  0.00  0.00    +0.095 A 
ATOM     31  C   UNL     1      -0.368   5.122   0.563  0.00  0.00    +0.129 A 
BRANCH  31  32
ATOM     32  O   UNL     1       0.150   5.964  -0.370  0.00  0.00    -0.495 OA
ATOM     33  C   UNL     1       0.793   5.366  -1.498  0.00  0.00    +0.277 C 
ENDBRANCH  31  32
BRANCH  29  34
ATOM     34  O   UNL     1      -0.682   1.547   1.184  0.00  0.00    -0.491 OA
ATOM     35  C   UNL     1      -0.013   1.086   0.008  0.00  0.00    +0.277 C 
ENDBRANCH  29  34
BRANCH  28  36
ATOM     36  O   UNL     1      -1.947   2.571   3.404  0.00  0.00    -0.491 OA
ATOM     37  C   UNL     1      -2.589   3.172   4.530  0.00  0.00    +0.277 C 
ENDBRANCH  28  36
ENDBRANCH   5  26
TORSDOF 7
