REMARK  Name = ZINC39867629
REMARK  8 active torsions:
REMARK  status: ('A' for Active; 'I' for Inactive)
REMARK    1  A    between atoms: C_9  and  C_11
REMARK    2  A    between atoms: C_13  and  C_22
REMARK    3  A    between atoms: C_22  and  C_23
REMARK    4  A    between atoms: C_23  and  C_24
REMARK    5  A    between atoms: C_24  and  C_25
REMARK    6  A    between atoms: N_27  and  N_28
REMARK    7  A    between atoms: C_29  and  C_31
REMARK    8  A    between atoms: C_34  and  N_37
REMARK                            x       y       z     vdW  Elec       q    Type
REMARK                         _______ _______ _______ _____ _____    ______ ____
ROOT
ATOM      1  C   UNL     1       4.997  -2.557  -0.060  0.00  0.00    +0.069 A 
ATOM      2  H   UNL     1       4.602  -4.419   0.804  0.00  0.00    +0.166 HD
ATOM      3  C   UNL     1       6.142  -2.005  -0.537  0.00  0.00    -0.013 A 
ATOM      4  C   UNL     1       7.200  -2.997  -0.359  0.00  0.00    +0.006 A 
ATOM      5  C   UNL     1       8.567  -3.016  -0.650  0.00  0.00    +0.048 A 
ATOM      6  C   UNL     1       9.312  -4.135  -0.350  0.00  0.00    +0.124 A 
ATOM      7  C   UNL     1       8.711  -5.243   0.236  0.00  0.00    +0.040 A 
ATOM      8  C   UNL     1       7.364  -5.240   0.528  0.00  0.00    +0.029 A 
ATOM      9  C   UNL     1       6.593  -4.120   0.236  0.00  0.00    +0.047 A 
ATOM     10  N   UNL     1       5.259  -3.823   0.411  0.00  0.00    -0.353 N 
ATOM     11  F   UNL     1      10.634  -4.157  -0.629  0.00  0.00    -0.205 F 
ENDROOT
BRANCH   1  20
ATOM     12  C   UNL     1      -0.016   1.358   0.009  0.00  0.00    +0.001 A 
ATOM     13  C   UNL     1       1.169   2.089   0.002  0.00  0.00    +0.002 A 
ATOM     14  C   UNL     1       2.379   1.465  -0.013  0.00  0.00    +0.028 A 
ATOM     15  C   UNL     1       2.439   0.060  -0.021  0.00  0.00    +0.072 A 
ATOM     16  C   UNL     1       1.231  -0.682  -0.013  0.00  0.00    +0.000 A 
ATOM     17  C   UNL     1       0.002  -0.004   0.002  0.00  0.00    +0.010 A 
ATOM     18  C   UNL     1       1.289  -2.090  -0.021  0.00  0.00    +0.012 A 
ATOM     19  C   UNL     1       2.513  -2.687  -0.036  0.00  0.00    +0.030 A 
ATOM     20  C   UNL     1       3.676  -1.897  -0.044  0.00  0.00    +0.088 A 
ATOM     21  N   UNL     1       3.613  -0.577  -0.036  0.00  0.00    -0.245 NA
ENDBRANCH   1  20
BRANCH   3  22
ATOM     22  C   UNL     1       6.293  -0.630  -1.137  0.00  0.00    +0.038 C 
BRANCH  22  23
ATOM     23  C   UNL     1       6.630   0.373  -0.032  0.00  0.00    +0.014 C 
BRANCH  23  24
ATOM     24  C   UNL     1       6.784   1.769  -0.640  0.00  0.00    +0.097 C 
BRANCH  24  25
ATOM     25  C   UNL     1       7.115   2.757   0.448  0.00  0.00    +0.229 C 
ATOM     26  O   UNL     1       7.218   2.383   1.597  0.00  0.00    -0.274 OA
ATOM     27  N   UNL     1       7.297   4.058   0.144  0.00  0.00    -0.234 N 
ATOM     28  H   UNL     1       7.214   4.357  -0.774  0.00  0.00    +0.173 HD
BRANCH  27  29
ATOM     29  N   UNL     1       7.605   4.977   1.156  0.00  0.00    -0.230 N 
ATOM     30  C   UNL     1       7.787   6.277   0.852  0.00  0.00    +0.260 C 
ATOM     31  O   UNL     1       7.683   6.653  -0.299  0.00  0.00    -0.269 OA
ATOM     32  H   UNL     1       7.687   4.677   2.075  0.00  0.00    +0.173 HD
BRANCH  30  33
ATOM     33  C   UNL     1       8.112   7.247   1.920  0.00  0.00    +0.038 A 
ATOM     34  C   UNL     1       8.237   6.818   3.242  0.00  0.00    +0.015 A 
ATOM     35  C   UNL     1       8.541   7.728   4.233  0.00  0.00    +0.033 A 
ATOM     36  C   UNL     1       8.721   9.064   3.919  0.00  0.00    +0.126 A 
ATOM     37  C   UNL     1       8.599   9.495   2.610  0.00  0.00    +0.033 A 
ATOM     38  C   UNL     1       8.301   8.595   1.609  0.00  0.00    +0.015 A 
BRANCH  36  39
ATOM     39  N   UNL     1       9.046  10.035   4.988  0.00  0.00    +0.056 N 
ATOM     40  O   UNL     1       9.154   9.660   6.133  0.00  0.00    -0.126 OA
ATOM     41  O   UNL     1       9.204  11.202   4.716  0.00  0.00    -0.126 OA
ENDBRANCH  36  39
ENDBRANCH  30  33
ENDBRANCH  27  29
ENDBRANCH  24  25
ENDBRANCH  23  24
ENDBRANCH  22  23
ENDBRANCH   3  22
TORSDOF 8
