REMARK  Name = ZINC63361944
REMARK  7 active torsions:
REMARK  status: ('A' for Active; 'I' for Inactive)
REMARK    1  A    between atoms: C_1  and  C_2
REMARK    2  A    between atoms: C_2  and  C_3
REMARK    3  A    between atoms: C_8  and  N_9
REMARK    4  A    between atoms: C_25  and  C_30
REMARK    5  A    between atoms: C_33  and  C_36
REMARK    6  A    between atoms: C_36  and  C_37
REMARK    7  A    between atoms: C_36  and  C_38
REMARK                            x       y       z     vdW  Elec       q    Type
REMARK                         _______ _______ _______ _____ _____    ______ ____
ROOT
ATOM      1  N   UNL     1      -1.312  -0.338   2.505  0.00  0.00    -0.192 N 
ATOM      2  C   UNL     1      -2.307  -1.220   2.277  0.00  0.00    +0.248 C 
ATOM      3  O   UNL     1      -2.195  -2.382   1.949  0.00  0.00    -0.273 OA
ATOM      4  C   UNL     1      -3.592  -0.458   2.518  0.00  0.00    +0.169 C 
ATOM      5  C   UNL     1      -4.450  -0.464   1.241  0.00  0.00    +0.065 C 
ATOM      6  C   UNL     1      -5.347   0.749   1.323  0.00  0.00    -0.034 C 
ATOM      7  C   UNL     1      -6.173   1.278   0.426  0.00  0.00    -0.001 A 
ATOM      8  C   UNL     1      -6.577   0.829  -0.916  0.00  0.00    +0.010 A 
ATOM      9  C   UNL     1      -7.446   1.635  -1.581  0.00  0.00    +0.001 A 
ATOM     10  C   UNL     1      -7.948   2.828  -1.050  0.00  0.00    +0.002 A 
ATOM     11  C   UNL     1      -7.636   3.313   0.178  0.00  0.00    +0.026 A 
ATOM     12  C   UNL     1      -6.734   2.550   0.975  0.00  0.00    +0.043 A 
ATOM     13  N   UNL     1      -6.283   2.764   2.175  0.00  0.00    -0.375 N 
ATOM     14  C   UNL     1      -5.429   1.638   2.557  0.00  0.00    +0.131 C 
ATOM     15  C   UNL     1      -4.001   2.098   2.878  0.00  0.00    +0.135 C 
ATOM     16  N   UNL     1      -3.125   0.920   2.775  0.00  0.00    -0.264 N 
ATOM     17  C   UNL     1      -1.788   0.874   2.822  0.00  0.00    +0.317 C 
ATOM     18  O   UNL     1      -1.086   1.823   3.114  0.00  0.00    -0.252 OA
ATOM     19  H   UNL     1      -6.479   3.540   2.724  0.00  0.00    +0.160 HD
ENDROOT
BRANCH   1  25
ATOM     20  C   UNL     1       0.731  -0.503   1.223  0.00  0.00    -0.026 A 
ATOM     21  C   UNL     1       2.076  -0.808   1.149  0.00  0.00    +0.005 A 
ATOM     22  C   UNL     1       2.745  -1.267   2.268  0.00  0.00    +0.000 A 
ATOM     23  C   UNL     1       2.071  -1.421   3.465  0.00  0.00    +0.002 A 
ATOM     24  C   UNL     1       0.726  -1.118   3.546  0.00  0.00    +0.024 A 
ATOM     25  C   UNL     1       0.052  -0.652   2.425  0.00  0.00    +0.049 A 
BRANCH  20  27
ATOM     26  C   UNL     1      -0.019   1.526   0.010  0.00  0.00    +0.009 C 
ATOM     27  C   UNL     1       0.002  -0.004   0.002  0.00  0.00    +0.033 C 
ENDBRANCH  20  27
ENDBRANCH   1  25
BRANCH  15  28
ATOM     28  C   UNL     1      -3.574   3.164   1.902  0.00  0.00    -0.025 A 
ATOM     29  C   UNL     1      -3.140   2.811   0.638  0.00  0.00    +0.006 A 
ATOM     30  C   UNL     1      -2.749   3.789  -0.257  0.00  0.00    +0.004 A 
ATOM     31  C   UNL     1      -2.792   5.120   0.111  0.00  0.00    -0.045 A 
ATOM     32  C   UNL     1      -3.228   5.474   1.374  0.00  0.00    +0.004 A 
ATOM     33  C   UNL     1      -3.623   4.496   2.268  0.00  0.00    +0.006 A 
BRANCH  31  34
ATOM     34  C   UNL     1      -2.365   6.186  -0.865  0.00  0.00    +0.013 C 
ATOM     35  C   UNL     1      -3.537   7.135  -1.130  0.00  0.00    +0.012 C 
ATOM     36  C   UNL     1      -1.193   6.976  -0.277  0.00  0.00    +0.012 C 
ENDBRANCH  31  34
ENDBRANCH  15  28
TORSDOF 4
