REMARK  Name = ZINC09448770
REMARK  8 active torsions:
REMARK  status: ('A' for Active; 'I' for Inactive)
REMARK    1  A    between atoms: C_1  and  C_2
REMARK    2  A    between atoms: C_2  and  C_3
REMARK    3  A    between atoms: C_6  and  C_9
REMARK    4  A    between atoms: C_15  and  C_17
REMARK    5  A    between atoms: C_17  and  C_19
REMARK    6  A    between atoms: C_17  and  S_20
REMARK    7  A    between atoms: S_20  and  C_21
REMARK    8  A    between atoms: C_24  and  C_26
REMARK                            x       y       z     vdW  Elec       q    Type
REMARK                         _______ _______ _______ _____ _____    ______ ____
ROOT
ATOM      1  C   UNL     1       7.734   4.235   1.337  0.00  0.00    +0.139 C 
ATOM      2  C   UNL     1       8.327   2.825   1.295  0.00  0.00    +0.029 C 
ENDROOT
BRANCH   1   9
ATOM      3  C   UNL     1      12.408   8.091   1.292  0.00  0.00    +0.080 A 
ATOM      4  C   UNL     1      12.309   8.303   2.639  0.00  0.00    +0.076 A 
ATOM      5  S   UNL     1      10.925   7.246   3.041  0.00  0.00    -0.060 S 
ATOM      6  C   UNL     1      10.623   6.635   1.388  0.00  0.00    +0.165 A 
ATOM      7  N   UNL     1      11.564   7.257   0.703  0.00  0.00    -0.225 NA
ATOM      8  N   UNL     1       9.658   5.740   0.945  0.00  0.00    -0.264 N 
ATOM      9  C   UNL     1       8.781   5.206   1.818  0.00  0.00    +0.232 C 
ATOM     10  O   UNL     1       8.835   5.507   2.992  0.00  0.00    -0.274 OA
ATOM     11  H   UNL     1       9.615   5.499   0.006  0.00  0.00    +0.157 HD
BRANCH   3  15
ATOM     12  C   UNL     1      15.405  10.074  -0.980  0.00  0.00    -0.048 A 
ATOM     13  C   UNL     1      14.525   9.209  -1.606  0.00  0.00    +0.004 A 
ATOM     14  C   UNL     1      13.550   8.563  -0.873  0.00  0.00    +0.010 A 
ATOM     15  C   UNL     1      13.453   8.782   0.500  0.00  0.00    +0.001 A 
ATOM     16  C   UNL     1      14.339   9.659   1.124  0.00  0.00    +0.010 A 
ATOM     17  C   UNL     1      15.314  10.295   0.383  0.00  0.00    +0.004 A 
BRANCH  12  19
ATOM     18  C   UNL     1      15.919  12.111  -2.297  0.00  0.00    +0.009 C 
ATOM     19  C   UNL     1      16.467  10.777  -1.785  0.00  0.00    +0.032 C 
ENDBRANCH  12  19
ENDBRANCH   3  15
ENDBRANCH   1   9
BRANCH   1  20
ATOM     20  S   UNL     1       6.321   4.262   2.467  0.00  0.00    -0.053 S 
BRANCH  20  21
ATOM     21  C   UNL     1       5.222   3.186   1.608  0.00  0.00    +0.278 A 
ATOM     22  N   UNL     1       5.457   2.581   0.468  0.00  0.00    -0.101 NA
ATOM     23  N   UNL     1       4.434   1.872   0.144  0.00  0.00    -0.108 NA
ATOM     24  C   UNL     1       3.509   2.001   1.049  0.00  0.00    +0.262 A 
ATOM     25  O   UNL     1       3.983   2.831   1.999  0.00  0.00    -0.412 OA
BRANCH  24  26
ATOM     26  C   UNL     1       2.156   1.338   1.040  0.00  0.00    +0.297 C 
ATOM     27  C   UNL     1       1.254   2.018   0.001  0.00  0.00    +0.283 C 
ATOM     28  O   UNL     1      -0.016   1.357   0.009  0.00  0.00    -0.484 OA
ATOM     29  C   UNL     1       0.002  -0.004   0.002  0.00  0.00    +0.162 A 
ATOM     30  C   UNL     1      -1.147  -0.699  -0.346  0.00  0.00    +0.049 A 
ATOM     31  C   UNL     1      -1.144  -2.081  -0.356  0.00  0.00    +0.004 A 
ATOM     32  C   UNL     1       0.003  -2.775  -0.018  0.00  0.00    +0.004 A 
ATOM     33  C   UNL     1       1.151  -2.089   0.328  0.00  0.00    +0.049 A 
ATOM     34  C   UNL     1       1.156  -0.702   0.339  0.00  0.00    +0.163 A 
ATOM     35  O   UNL     1       2.296  -0.040   0.679  0.00  0.00    -0.472 OA
ENDBRANCH  24  26
ENDBRANCH  20  21
ENDBRANCH   1  20
TORSDOF 6
