REMARK  Name = ZINC04026863
REMARK  5 active torsions:
REMARK  status: ('A' for Active; 'I' for Inactive)
REMARK    1  A    between atoms: C_1  and  C_2
REMARK    2  A    between atoms: C_2  and  C_27
REMARK    3  A    between atoms: N_7  and  N_8
REMARK    4  A    between atoms: N_8  and  C_9
REMARK    5  A    between atoms: C_9  and  N_11
REMARK                            x       y       z     vdW  Elec       q    Type
REMARK                         _______ _______ _______ _____ _____    ______ ____
ROOT
ATOM      1  C   UNL     1      -0.019   1.526   0.010  0.00  0.00    +0.011 C 
ATOM      2  C   UNL     1       0.002  -0.004   0.002  0.00  0.00    -0.023 C 
ATOM      3  C   UNL     1      -1.435  -0.536   0.022  0.00  0.00    +0.058 C 
ATOM      4  C   UNL     1      -1.412  -2.033   0.085  0.00  0.00    +0.020 C 
ATOM      5  C   UNL     1      -0.376  -2.718   0.694  0.00  0.00    +0.057 C 
ATOM      6  C   UNL     1      -0.431  -4.192   0.743  0.00  0.00    +0.073 C 
ATOM      7  N   UNL     1       0.293  -4.836   1.607  0.00  0.00    -0.185 NA
ATOM      8  C   UNL     1      -1.323  -4.955  -0.207  0.00  0.00    +0.085 C 
ATOM      9  C   UNL     1      -1.974  -3.982  -1.192  0.00  0.00    +0.109 C 
ATOM     10  N   UNL     1      -2.408  -2.789  -0.473  0.00  0.00    -0.325 N 
ATOM     11  C   UNL     1      -3.796  -2.410  -0.305  0.00  0.00    +0.110 C 
ATOM     12  C   UNL     1      -4.645  -2.728  -1.519  0.00  0.00    +0.054 C 
ATOM     13  C   UNL     1      -4.317  -4.070  -2.107  0.00  0.00    -0.041 A 
ATOM     14  C   UNL     1      -3.086  -4.640  -1.945  0.00  0.00    -0.024 A 
ATOM     15  C   UNL     1      -2.849  -5.885  -2.515  0.00  0.00    +0.006 A 
ATOM     16  C   UNL     1      -3.844  -6.539  -3.213  0.00  0.00    +0.000 A 
ATOM     17  C   UNL     1      -5.088  -5.952  -3.348  0.00  0.00    +0.000 A 
ATOM     18  C   UNL     1      -5.305  -4.735  -2.820  0.00  0.00    +0.004 A 
ATOM     19  C   UNL     1       0.710  -2.019   1.263  0.00  0.00    +0.167 C 
ATOM     20  O   UNL     1       1.623  -2.636   1.773  0.00  0.00    -0.292 OA
ATOM     21  C   UNL     1       0.742  -0.513   1.242  0.00  0.00    +0.086 C 
ATOM     22  C   UNL     1       0.715  -0.499  -1.258  0.00  0.00    +0.011 C 
ENDROOT
BRANCH   7  23
ATOM     23  N   UNL     1       0.244  -6.235   1.656  0.00  0.00    -0.218 N 
ATOM     24  H   UNL     1      -0.330  -6.723   1.045  0.00  0.00    +0.176 HD
BRANCH  23  25
ATOM     25  C   UNL     1       0.996  -6.904   2.553  0.00  0.00    +0.147 C 
ATOM     26  S   UNL     1       0.936  -8.614   2.614  0.00  0.00    -0.017 S 
BRANCH  25  27
ATOM     27  N   UNL     1       1.794  -6.227   3.402  0.00  0.00    -0.339 N 
ATOM     28  H   UNL     1       1.827  -5.258   3.368  0.00  0.00    +0.144 HD
ATOM     29  H   UNL     1       2.334  -6.708   4.048  0.00  0.00    +0.144 HD
ENDBRANCH  25  27
ENDBRANCH  23  25
ENDBRANCH   7  23
TORSDOF 3
