REMARK  Name = ZINC26842014
REMARK  7 active torsions:
REMARK  status: ('A' for Active; 'I' for Inactive)
REMARK    1  A    between atoms: C_1  and  C_2
REMARK    2  A    between atoms: C_2  and  C_3
REMARK    3  A    between atoms: C_3  and  C_5
REMARK    4  A    between atoms: C_3  and  N_6
REMARK    5  A    between atoms: C_10  and  C_11
REMARK    6  A    between atoms: C_12  and  N_22
REMARK    7  A    between atoms: N_25  and  C_28
REMARK                            x       y       z     vdW  Elec       q    Type
REMARK                         _______ _______ _______ _____ _____    ______ ____
ROOT
ATOM      1  C   UNL     1      -0.137   4.057  -0.161  0.00  0.00    +0.081 A 
ATOM      2  C   UNL     1      -1.321   3.338   0.126  0.00  0.00    +0.136 A 
ATOM      3  N   UNL     1      -1.266   2.023   0.283  0.00  0.00    -0.214 NA
ATOM      4  C   UNL     1      -0.116   1.355   0.189  0.00  0.00    +0.142 A 
ATOM      5  C   UNL     1      -0.117  -0.039   0.371  0.00  0.00    +0.047 A 
ATOM      6  C   UNL     1       1.054  -0.732   0.272  0.00  0.00    +0.005 A 
ATOM      7  C   UNL     1       2.242  -0.044  -0.010  0.00  0.00    +0.018 A 
ATOM      8  C   UNL     1       2.224   1.297  -0.183  0.00  0.00    +0.096 A 
ATOM      9  N   UNL     1       1.059   1.998  -0.086  0.00  0.00    -0.268 N 
ATOM     10  C   UNL     1       1.077   3.337  -0.264  0.00  0.00    +0.267 A 
ATOM     11  O   UNL     1       2.122   3.915  -0.509  0.00  0.00    -0.267 OA
ENDROOT
BRANCH   1  16
ATOM     12  N   UNL     1      -1.992   7.657  -2.632  0.00  0.00    -0.252 N 
ATOM     13  C   UNL     1      -1.121   7.371  -1.680  0.00  0.00    +0.259 C 
ATOM     14  O   UNL     1      -0.456   8.247  -1.155  0.00  0.00    -0.269 OA
ATOM     15  C   UNL     1      -0.983   6.010  -1.284  0.00  0.00    +0.077 C 
ATOM     16  C   UNL     1      -0.166   5.459  -0.340  0.00  0.00    +0.037 C 
ATOM     17  S   UNL     1      -2.165   5.218  -2.366  0.00  0.00    -0.061 S 
ATOM     18  C   UNL     1      -2.731   6.686  -3.213  0.00  0.00    +0.121 C 
ATOM     19  S   UNL     1      -3.905   6.826  -4.450  0.00  0.00    -0.027 S 
BRANCH  12  20
ATOM     20  C   UNL     1      -2.160   9.048  -3.062  0.00  0.00    +0.080 C 
ATOM     21  C   UNL     1      -3.608   9.483  -2.827  0.00  0.00    +0.028 C 
BRANCH  20  23
ATOM     22  C   UNL     1      -0.347   8.848  -4.770  0.00  0.00    +0.006 C 
ATOM     23  C   UNL     1      -1.829   9.164  -4.551  0.00  0.00    +0.019 C 
ENDBRANCH  20  23
ENDBRANCH  12  20
ENDBRANCH   1  16
BRANCH   2  24
ATOM     24  N   UNL     1      -2.525   3.999   0.236  0.00  0.00    -0.312 N 
ATOM     25  C   UNL     1      -2.522   4.911   1.388  0.00  0.00    +0.125 C 
ATOM     26  C   UNL     1      -3.843   5.683   1.428  0.00  0.00    +0.124 C 
ATOM     27  N   UNL     1      -4.960   4.732   1.515  0.00  0.00    -0.327 N 
ATOM     28  C   UNL     1      -4.963   3.820   0.363  0.00  0.00    +0.124 C 
ATOM     29  C   UNL     1      -3.642   3.048   0.323  0.00  0.00    +0.125 C 
BRANCH  27  30
ATOM     30  C   UNL     1      -6.182   5.403   1.627  0.00  0.00    +0.030 A 
ATOM     31  C   UNL     1      -7.193   5.164   0.705  0.00  0.00    +0.026 A 
ATOM     32  C   UNL     1      -8.401   5.824   0.820  0.00  0.00    +0.040 A 
ATOM     33  C   UNL     1      -8.600   6.733   1.846  0.00  0.00    +0.124 A 
ATOM     34  C   UNL     1      -7.591   6.977   2.762  0.00  0.00    +0.040 A 
ATOM     35  C   UNL     1      -6.383   6.315   2.655  0.00  0.00    +0.026 A 
ATOM     36  F   UNL     1      -9.780   7.381   1.953  0.00  0.00    -0.205 F 
ENDBRANCH  27  30
ENDBRANCH   2  24
TORSDOF 5
