REMARK  Name = ZINC39499492
REMARK  7 active torsions:
REMARK  status: ('A' for Active; 'I' for Inactive)
REMARK    1  A    between atoms: C_1  and  C_2
REMARK    2  A    between atoms: C_2  and  C_3
REMARK    3  A    between atoms: C_2  and  S_4
REMARK    4  A    between atoms: S_4  and  C_7
REMARK    5  A    between atoms: C_12  and  O_13
REMARK    6  A    between atoms: O_13  and  C_14
REMARK    7  A    between atoms: C_18  and  C_19
REMARK                            x       y       z     vdW  Elec       q    Type
REMARK                         _______ _______ _______ _____ _____    ______ ____
ROOT
ATOM      1  C   UNL     1      -1.178   0.029   2.252  0.00  0.00    +0.131 A 
ATOM      2  C   UNL     1      -1.495  -0.846   3.269  0.00  0.00    +0.040 A 
ATOM      3  C   UNL     1      -1.653  -0.370   4.574  0.00  0.00    +0.004 A 
ATOM      4  C   UNL     1      -1.489   0.992   4.835  0.00  0.00    -0.017 A 
ATOM      5  C   UNL     1      -1.173   1.860   3.816  0.00  0.00    +0.053 A 
ATOM      6  C   UNL     1      -1.011   1.381   2.521  0.00  0.00    +0.145 A 
ATOM      7  C   UNL     1      -1.721   1.194   6.312  0.00  0.00    +0.154 C 
ATOM      8  N   UNL     1      -2.025  -0.128   6.872  0.00  0.00    -0.263 N 
ATOM      9  C   UNL     1      -1.985  -1.054   5.838  0.00  0.00    +0.048 C 
ATOM     10  C   UNL     1      -2.213  -2.380   5.970  0.00  0.00    +0.032 C 
ATOM     11 BR   UNL     1      -2.398  -0.496   8.646  0.00  0.00    +0.037 Br
ENDROOT
BRANCH  10  12
ATOM     12  C   UNL     1      -2.889  -2.894   7.172  0.00  0.00    -0.023 A 
ATOM     13  C   UNL     1      -4.066  -2.291   7.628  0.00  0.00    +0.008 A 
ATOM     14  C   UNL     1      -4.694  -2.779   8.755  0.00  0.00    +0.001 A 
ATOM     15  C   UNL     1      -4.162  -3.861   9.434  0.00  0.00    +0.000 A 
ATOM     16  C   UNL     1      -2.998  -4.463   8.989  0.00  0.00    +0.001 A 
ATOM     17  C   UNL     1      -2.362  -3.991   7.860  0.00  0.00    +0.008 A 
ENDBRANCH  10  12
BRANCH   1  18
ATOM     18  S   UNL     1      -0.978  -0.571   0.608  0.00  0.00    +0.003 S 
ATOM     19  O   UNL     1      -1.812   0.261  -0.186  0.00  0.00    -0.169 OA
ATOM     20  O   UNL     1      -1.224  -1.968   0.700  0.00  0.00    -0.169 OA
BRANCH  18  22
ATOM     21  C   UNL     1       1.653  -1.025   1.202  0.00  0.00    +0.032 C 
ATOM     22  C   UNL     1       0.766  -0.270   0.211  0.00  0.00    +0.130 C 
ATOM     23  C   UNL     1       1.058  -0.758  -1.209  0.00  0.00    +0.032 C 
ENDBRANCH  18  22
ENDBRANCH   1  18
BRANCH   6  24
ATOM     24  O   UNL     1      -0.694   2.238   1.515  0.00  0.00    -0.493 OA
ATOM     25  C   UNL     1      -0.536   3.615   1.862  0.00  0.00    +0.277 C 
ENDBRANCH   6  24
TORSDOF 4
