REMARK  Name = ZINC62315408
REMARK  9 active torsions:
REMARK  status: ('A' for Active; 'I' for Inactive)
REMARK    1  A    between atoms: C_1  and  C_2
REMARK    2  A    between atoms: C_5  and  O_9
REMARK    3  A    between atoms: C_7  and  C_8
REMARK    4  A    between atoms: O_9  and  C_10
REMARK    5  A    between atoms: C_10  and  C_11
REMARK    6  A    between atoms: N_13  and  C_14
REMARK    7  A    between atoms: C_14  and  C_15
REMARK    8  A    between atoms: C_19  and  C_28
REMARK    9  A    between atoms: C_20  and  C_27
REMARK                            x       y       z     vdW  Elec       q    Type
REMARK                         _______ _______ _______ _____ _____    ______ ____
ROOT
ATOM      1  C   UNL     1       0.103  -8.534  -1.998  0.00  0.00    +0.145 C 
ENDROOT
BRANCH   1   2
ATOM      2  C   UNL     1       0.105  -9.211  -3.344  0.00  0.00    +0.034 A 
ATOM      3  C   UNL     1       1.278  -9.596  -3.905  0.00  0.00    +0.020 A 
ATOM      4  C   UNL     1       1.246 -10.251  -5.214  0.00  0.00    -0.001 A 
ATOM      5  C   UNL     1       2.423 -10.671  -5.842  0.00  0.00    +0.013 A 
ATOM      6  C   UNL     1       2.359 -11.280  -7.063  0.00  0.00    -0.047 A 
ATOM      7  C   UNL     1       1.135 -11.486  -7.687  0.00  0.00    -0.046 A 
ATOM      8  C   UNL     1      -0.037 -11.080  -7.086  0.00  0.00    +0.030 A 
ATOM      9  C   UNL     1       0.004 -10.459  -5.842  0.00  0.00    +0.049 A 
ATOM     10  N   UNL     1      -1.154 -10.043  -5.218  0.00  0.00    -0.322 N 
ATOM     11  H   UNL     1      -2.009 -10.187  -5.653  0.00  0.00    +0.169 HD
ATOM     12  C   UNL     1      -1.114  -9.447  -4.014  0.00  0.00    +0.254 A 
ATOM     13  O   UNL     1      -2.158  -9.098  -3.490  0.00  0.00    -0.268 OA
ATOM     14  C   UNL     1       1.089 -12.159  -9.034  0.00  0.00    +0.044 C 
ATOM     15  C   UNL     1       3.627 -11.732  -7.740  0.00  0.00    +0.044 C 
ENDBRANCH   1   2
BRANCH   1  18
ATOM     16  C   UNL     1       0.079  -6.266  -1.108  0.00  0.00    +0.251 C 
ATOM     17  O   UNL     1       0.090  -6.735   0.010  0.00  0.00    -0.272 OA
ATOM     18  N   UNL     1       0.084  -7.081  -2.182  0.00  0.00    -0.308 N 
ATOM     19  H   UNL     1       0.074  -6.705  -3.076  0.00  0.00    +0.149 HD
BRANCH  16  20
ATOM     20  C   UNL     1       0.058  -4.771  -1.298  0.00  0.00    +0.324 C 
BRANCH  20  21
ATOM     21  O   UNL     1       0.057  -4.129  -0.021  0.00  0.00    -0.483 OA
BRANCH  21  26
ATOM     22  C   UNL     1      -0.018   1.503   0.010  0.00  0.00    +0.044 C 
ATOM     23  C   UNL     1       0.002  -0.004   0.002  0.00  0.00    -0.047 A 
ATOM     24  C   UNL     1       0.006  -0.688  -1.200  0.00  0.00    +0.007 A 
ATOM     25  C   UNL     1       0.024  -2.069  -1.210  0.00  0.00    +0.046 A 
ATOM     26  C   UNL     1       0.039  -2.770  -0.013  0.00  0.00    +0.121 A 
ATOM     27  C   UNL     1       0.036  -2.082   1.191  0.00  0.00    +0.049 A 
ATOM     28  C   UNL     1       0.023  -0.701   1.196  0.00  0.00    -0.044 A 
ATOM     29  C   UNL     1       0.025   0.048   2.504  0.00  0.00    +0.044 C 
ENDBRANCH  21  26
ENDBRANCH  20  21
ENDBRANCH  16  20
ENDBRANCH   1  18
TORSDOF 5
