REMARK  Name = ZINC58822663
REMARK  6 active torsions:
REMARK  status: ('A' for Active; 'I' for Inactive)
REMARK    1  A    between atoms: C_1  and  O_2
REMARK    2  A    between atoms: O_2  and  C_3
REMARK    3  A    between atoms: C_6  and  C_10
REMARK    4  A    between atoms: C_11  and  C_12
REMARK    5  A    between atoms: C_11  and  C_14
REMARK    6  A    between atoms: C_17  and  N_20
REMARK                            x       y       z     vdW  Elec       q    Type
REMARK                         _______ _______ _______ _____ _____    ______ ____
ROOT
ATOM      1  C   UNL     1       2.572  -2.535   4.285  0.00  0.00    +0.027 C 
ATOM      2  C   UNL     1       1.894  -2.773   5.441  0.00  0.00    +0.059 C 
ENDROOT
BRANCH   1   6
ATOM      3  C   UNL     1       0.665  -0.500   1.089  0.00  0.00    +0.157 A 
ATOM      4  C   UNL     1       1.644  -1.450   0.820  0.00  0.00    +0.085 A 
ATOM      5  C   UNL     1       2.267  -2.115   1.854  0.00  0.00    +0.031 A 
ATOM      6  C   UNL     1       1.913  -1.831   3.179  0.00  0.00    -0.021 A 
ATOM      7  C   UNL     1       0.926  -0.872   3.445  0.00  0.00    +0.031 A 
ATOM      8  C   UNL     1       0.314  -0.210   2.403  0.00  0.00    +0.085 A 
ATOM      9 CL   UNL     1      -0.904   0.982   2.731  0.00  0.00    -0.080 Cl
ATOM     10 CL   UNL     1       2.082  -1.801  -0.823  0.00  0.00    -0.080 Cl
BRANCH   3  12
ATOM     11  C   UNL     1       0.659   1.366  -0.382  0.00  0.00    +0.277 C 
ATOM     12  O   UNL     1       0.055   0.152   0.066  0.00  0.00    -0.492 OA
ENDBRANCH   3  12
ENDBRANCH   1   6
BRANCH   2  13
ATOM     13  C   UNL     1       2.602  -3.341   6.611  0.00  0.00    -0.008 A 
ATOM     14  C   UNL     1       3.138  -4.627   6.548  0.00  0.00    +0.011 A 
ATOM     15  C   UNL     1       3.797  -5.151   7.641  0.00  0.00    +0.033 A 
ATOM     16  C   UNL     1       3.926  -4.404   8.799  0.00  0.00    +0.126 A 
ATOM     17  C   UNL     1       3.396  -3.127   8.867  0.00  0.00    +0.033 A 
ATOM     18  C   UNL     1       2.740  -2.590   7.779  0.00  0.00    +0.011 A 
BRANCH  16  19
ATOM     19  N   UNL     1       4.634  -4.972   9.968  0.00  0.00    +0.056 N 
ATOM     20  O   UNL     1       5.098  -6.087   9.911  0.00  0.00    -0.126 OA
ATOM     21  O   UNL     1       4.748  -4.321  10.980  0.00  0.00    -0.126 OA
ENDBRANCH  16  19
ENDBRANCH   2  13
BRANCH   2  22
ATOM     22  C   UNL     1       0.496  -2.473   5.526  0.00  0.00    +0.100 C 
ATOM     23  N   UNL     1      -0.613  -2.236   5.593  0.00  0.00    -0.191 NA
ENDBRANCH   2  22
TORSDOF 5
