REMARK  Name = ZINC04897872
REMARK  9 active torsions:
REMARK  status: ('A' for Active; 'I' for Inactive)
REMARK    1  A    between atoms: C_1  and  C_2
REMARK    2  A    between atoms: C_2  and  O_3
REMARK    3  A    between atoms: O_3  and  C_4
REMARK    4  A    between atoms: C_7  and  C_10
REMARK    5  A    between atoms: C_17  and  N_31
REMARK    6  A    between atoms: C_18  and  C_29
REMARK    7  A    between atoms: C_19  and  C_21
REMARK    8  A    between atoms: C_21  and  C_28
REMARK    9  A    between atoms: C_22  and  C_23
REMARK                            x       y       z     vdW  Elec       q    Type
REMARK                         _______ _______ _______ _____ _____    ______ ____
ROOT
ATOM      1  C   UNL     1       0.510  -6.058  -1.655  0.00  0.00    +0.100 A 
ATOM      2  C   UNL     1       0.767  -6.646  -2.897  0.00  0.00    +0.054 A 
ATOM      3  C   UNL     1       0.983  -7.979  -2.697  0.00  0.00    +0.223 A 
ATOM      4  N   UNL     1       0.865  -8.220  -1.374  0.00  0.00    -0.246 N 
ATOM      5  H   UNL     1       0.968  -9.081  -0.940  0.00  0.00    +0.192 HD
ATOM      6  N   UNL     1       0.574  -7.004  -0.737  0.00  0.00    -0.171 NA
ATOM      7  O   UNL     1       1.264  -8.836  -3.710  0.00  0.00    -0.423 OA
ATOM      8  C   UNL     1       1.599  -8.303  -4.903  0.00  0.00    +0.200 C 
ATOM      9  C   UNL     1       1.421  -7.002  -5.223  0.00  0.00    +0.098 C 
ATOM     10  C   UNL     1       0.816  -6.009  -4.262  0.00  0.00    +0.097 C 
ENDROOT
BRANCH   1  14
ATOM     11  C   UNL     1      -0.312  -1.943  -0.956  0.00  0.00    +0.121 A 
ATOM     12  C   UNL     1      -0.934  -2.915  -0.183  0.00  0.00    +0.046 A 
ATOM     13  C   UNL     1      -0.669  -4.250  -0.407  0.00  0.00    +0.013 A 
ATOM     14  C   UNL     1       0.223  -4.623  -1.411  0.00  0.00    +0.003 A 
ATOM     15  C   UNL     1       0.845  -3.645  -2.185  0.00  0.00    +0.013 A 
ATOM     16  C   UNL     1       0.573  -2.312  -1.960  0.00  0.00    +0.046 A 
BRANCH  11  17
ATOM     17  O   UNL     1      -0.575  -0.629  -0.732  0.00  0.00    -0.492 OA
BRANCH  17  19
ATOM     18  C   UNL     1      -1.663   1.197   0.418  0.00  0.00    +0.048 C 
ATOM     19  C   UNL     1      -1.495  -0.320   0.317  0.00  0.00    +0.225 C 
ENDBRANCH  17  19
ENDBRANCH  11  17
ENDBRANCH   1  14
BRANCH  10  20
ATOM     20  C   UNL     1      -0.579  -5.654  -4.707  0.00  0.00    -0.056 C 
ATOM     21  C   UNL     1      -0.889  -4.388  -4.974  0.00  0.00    +0.046 C 
ATOM     22  C   UNL     1      -1.622  -6.732  -4.851  0.00  0.00    +0.040 C 
BRANCH  21  23
ATOM     23  C   UNL     1      -2.282  -4.019  -5.268  0.00  0.00    +0.128 A 
ATOM     24  C   UNL     1      -2.717  -2.791  -5.666  0.00  0.00    +0.049 A 
ATOM     25  C   UNL     1      -4.112  -2.889  -5.831  0.00  0.00    +0.042 A 
ATOM     26  C   UNL     1      -4.458  -4.157  -5.529  0.00  0.00    +0.195 A 
ATOM     27  O   UNL     1      -3.350  -4.838  -5.195  0.00  0.00    -0.464 OA
ENDBRANCH  21  23
ENDBRANCH  10  20
BRANCH   8  28
ATOM     28  N   UNL     1       2.153  -9.131  -5.848  0.00  0.00    -0.328 N 
ATOM     29  H   UNL     1       2.294 -10.070  -5.647  0.00  0.00    +0.145 HD
ATOM     30  H   UNL     1       2.404  -8.777  -6.715  0.00  0.00    +0.145 HD
ENDBRANCH   8  28
BRANCH   9  31
ATOM     31  C   UNL     1       1.820  -6.550  -6.521  0.00  0.00    +0.101 C 
ATOM     32  N   UNL     1       2.137  -6.191  -7.552  0.00  0.00    -0.191 NA
ENDBRANCH   9  31
TORSDOF 7
