REMARK  Name = ZINC66978290
REMARK  5 active torsions:
REMARK  status: ('A' for Active; 'I' for Inactive)
REMARK    1  A    between atoms: C_1  and  C_2
REMARK    2  A    between atoms: C_5  and  N_13
REMARK    3  A    between atoms: C_19  and  N_22
REMARK    4  A    between atoms: C_23  and  C_25
REMARK    5  A    between atoms: C_25  and  C_26
REMARK                            x       y       z     vdW  Elec       q    Type
REMARK                         _______ _______ _______ _____ _____    ______ ____
ROOT
ATOM      1  N   UNL     1      -1.038  -2.996   0.027  0.00  0.00    -0.292 N 
ATOM      2  C   UNL     1      -1.357  -4.234   0.454  0.00  0.00    +0.303 C 
ATOM      3  O   UNL     1      -1.755  -4.402   1.590  0.00  0.00    -0.253 OA
ATOM      4  N   UNL     1      -1.236  -5.286  -0.380  0.00  0.00    -0.286 N 
ATOM      5  C   UNL     1      -0.648  -5.119  -1.716  0.00  0.00    +0.111 C 
ATOM      6  C   UNL     1      -1.623  -5.678  -2.757  0.00  0.00    +0.041 C 
ATOM      7  C   UNL     1      -1.970  -7.125  -2.400  0.00  0.00    +0.076 C 
ATOM      8  C   UNL     1      -2.651  -7.164  -1.030  0.00  0.00    +0.041 C 
ATOM      9  C   UNL     1      -1.683  -6.623   0.033  0.00  0.00    +0.111 C 
ATOM     10  H   UNL     1      -0.652  -2.871  -0.854  0.00  0.00    +0.151 HD
ENDROOT
BRANCH   1  14
ATOM     11  C   UNL     1      -0.023   1.527   0.009  0.00  0.00    +0.012 C 
ATOM     12  C   UNL     1      -0.001  -0.003   0.001  0.00  0.00    +0.018 C 
ATOM     13  C   UNL     1      -1.440  -0.560   0.046  0.00  0.00    +0.035 C 
ATOM     14  C   UNL     1      -1.274  -1.839   0.894  0.00  0.00    +0.105 C 
ATOM     15  C   UNL     1      -0.066  -1.580   1.769  0.00  0.00    -0.024 A 
ATOM     16  C   UNL     1       0.667  -0.525   1.255  0.00  0.00    -0.040 A 
ATOM     17  C   UNL     1       1.824  -0.111   1.894  0.00  0.00    +0.004 A 
ATOM     18  C   UNL     1       2.249  -0.749   3.043  0.00  0.00    +0.000 A 
ATOM     19  C   UNL     1       1.518  -1.803   3.558  0.00  0.00    +0.000 A 
ATOM     20  C   UNL     1       0.359  -2.217   2.922  0.00  0.00    +0.006 A 
ENDBRANCH   1  14
BRANCH   7  21
ATOM     21  N   UNL     1      -2.877  -7.673  -3.412  0.00  0.00    -0.312 N 
ATOM     22  C   UNL     1      -2.929  -9.004  -3.619  0.00  0.00    +0.214 C 
ATOM     23  O   UNL     1      -2.227  -9.747  -2.967  0.00  0.00    -0.276 OA
ATOM     24  H   UNL     1      -3.439  -7.078  -3.933  0.00  0.00    +0.149 HD
BRANCH  22  25
ATOM     25  C   UNL     1      -3.862  -9.568  -4.660  0.00  0.00    +0.099 C 
BRANCH  25  26
ATOM     26  C   UNL     1      -3.728 -11.091  -4.693  0.00  0.00    -0.002 C 
ATOM     27  C   UNL     1      -2.337 -11.488  -5.232  0.00  0.00    +0.004 C 
ATOM     28  C   UNL     1      -2.607 -12.754  -6.083  0.00  0.00    +0.000 C 
ATOM     29  C   UNL     1      -3.964 -12.431  -6.755  0.00  0.00    +0.000 C 
ATOM     30  C   UNL     1      -4.762 -11.691  -5.661  0.00  0.00    +0.004 C 
ENDBRANCH  25  26
ENDBRANCH  22  25
ENDBRANCH   7  21
TORSDOF 4
