REMARK  Name = ZINC38663949
REMARK  7 active torsions:
REMARK  status: ('A' for Active; 'I' for Inactive)
REMARK    1  A    between atoms: C_1  and  C_2
REMARK    2  A    between atoms: C_2  and  O_3
REMARK    3  A    between atoms: O_3  and  C_4
REMARK    4  A    between atoms: C_4  and  C_6
REMARK    5  A    between atoms: C_9  and  N_13
REMARK    6  A    between atoms: C_14  and  C_16
REMARK    7  A    between atoms: C_28  and  C_31
REMARK                            x       y       z     vdW  Elec       q    Type
REMARK                         _______ _______ _______ _____ _____    ______ ____
ROOT
ATOM      1  N   UNL     1      -1.288  -6.903  -0.414  0.00  0.00    -0.284 N 
ATOM      2  C   UNL     1      -1.145  -8.169   0.025  0.00  0.00    +0.246 C 
ATOM      3  O   UNL     1      -1.735  -8.537   1.023  0.00  0.00    -0.270 OA
ATOM      4  H   UNL     1      -0.818  -6.610  -1.210  0.00  0.00    +0.152 HD
ENDROOT
BRANCH   2   5
ATOM      5  C   UNL     1      -0.273  -9.110  -0.706  0.00  0.00    +0.037 A 
ATOM      6  C   UNL     1       0.411  -8.684  -1.853  0.00  0.00    +0.015 A 
ATOM      7  C   UNL     1       1.220  -9.541  -2.538  0.00  0.00    +0.027 A 
ATOM      8  C   UNL     1       1.378 -10.856  -2.105  0.00  0.00    +0.047 A 
ATOM      9  C   UNL     1       0.696 -11.297  -0.952  0.00  0.00    +0.004 A 
ATOM     10  C   UNL     1      -0.126 -10.417  -0.252  0.00  0.00    +0.023 A 
ATOM     11  C   UNL     1       1.074 -12.697  -0.777  0.00  0.00    -0.019 A 
ATOM     12  C   UNL     1       1.918 -13.012  -1.777  0.00  0.00    +0.020 A 
ATOM     13  N   UNL     1       2.108 -11.921  -2.578  0.00  0.00    -0.358 N 
ATOM     14  H   UNL     1       2.675 -11.901  -3.365  0.00  0.00    +0.166 HD
ATOM     15  C   UNL     1       2.537 -14.380  -1.951  0.00  0.00    +0.054 C 
ATOM     16  C   UNL     1       1.742 -15.385  -1.110  0.00  0.00    +0.009 C 
ATOM     17  C   UNL     1       1.585 -14.849   0.316  0.00  0.00    -0.009 C 
ATOM     18  C   UNL     1       0.630 -13.648   0.304  0.00  0.00    +0.040 C 
ATOM     19  C   UNL     1       1.015 -15.947   1.215  0.00  0.00    +0.008 C 
ENDBRANCH   2   5
BRANCH   1  23
ATOM     20  C   UNL     1      -2.794  -2.396   0.016  0.00  0.00    +0.110 C 
ATOM     21  C   UNL     1      -2.956  -3.733  -0.092  0.00  0.00    +0.023 C 
ATOM     22  N   UNL     1      -1.901  -4.572  -0.104  0.00  0.00    -0.320 N 
ATOM     23  C   UNL     1      -2.153  -5.970   0.312  0.00  0.00    +0.219 C 
ATOM     24  S   UNL     1      -3.916  -6.156  -0.200  0.00  0.00    -0.114 S 
ATOM     25  C   UNL     1      -4.336  -4.361  -0.198  0.00  0.00    +0.123 C 
ATOM     26  H   UNL     1      -1.018  -4.274  -0.373  0.00  0.00    +0.148 HD
BRANCH  20  27
ATOM     27  C   UNL     1      -1.512  -1.857   0.257  0.00  0.00    +0.333 C 
ATOM     28  O   UNL     1      -0.572  -2.599   0.475  0.00  0.00    -0.246 OA
BRANCH  27  29
ATOM     29  O   UNL     1      -1.329  -0.520   0.247  0.00  0.00    -0.462 OA
BRANCH  29  31
ATOM     30  C   UNL     1       0.006   1.484   0.447  0.00  0.00    +0.048 C 
ATOM     31  C   UNL     1      -0.005  -0.045   0.499  0.00  0.00    +0.229 C 
ENDBRANCH  29  31
ENDBRANCH  27  29
ENDBRANCH  20  27
ENDBRANCH   1  23
TORSDOF 5
