REMARK  Name = ZINC59473156
REMARK  6 active torsions:
REMARK  status: ('A' for Active; 'I' for Inactive)
REMARK    1  A    between atoms: C_14  and  C_15
REMARK    2  A    between atoms: N_16  and  N_17
REMARK    3  A    between atoms: C_18  and  C_20
REMARK    4  A    between atoms: C_20  and  S_21
REMARK    5  A    between atoms: S_21  and  C_22
REMARK    6  A    between atoms: C_22  and  C_23
REMARK                            x       y       z     vdW  Elec       q    Type
REMARK                         _______ _______ _______ _____ _____    ______ ____
ROOT
ATOM      1  C   UNL     1       4.965   0.239  -0.045  0.00  0.00    +0.139 C 
ATOM      2  N   UNL     1       6.116  -0.364   0.038  0.00  0.00    -0.188 NA
ENDROOT
BRANCH   1  16
ATOM      3  C   UNL     1       3.826  -4.737  -0.110  0.00  0.00    +0.001 A 
ATOM      4  C   UNL     1       5.007  -3.998  -0.117  0.00  0.00    +0.001 A 
ATOM      5  C   UNL     1       4.998  -2.638  -0.094  0.00  0.00    +0.009 A 
ATOM      6  C   UNL     1       3.771  -1.952  -0.063  0.00  0.00    -0.009 A 
ATOM      7  C   UNL     1       2.528  -2.727  -0.056  0.00  0.00    -0.017 A 
ATOM      8  C   UNL     1       2.608  -4.136  -0.080  0.00  0.00    +0.008 A 
ATOM      9  C   UNL     1       1.294  -2.078  -0.024  0.00  0.00    +0.017 A 
ATOM     10  C   UNL     1       1.239  -0.684   0.001  0.00  0.00    -0.017 A 
ATOM     11  C   UNL     1       0.003  -0.004   0.033  0.00  0.00    +0.008 A 
ATOM     12  C   UNL     1      -0.016   1.353   0.057  0.00  0.00    +0.001 A 
ATOM     13  C   UNL     1       1.161   2.101   0.051  0.00  0.00    +0.001 A 
ATOM     14  C   UNL     1       2.383   1.507   0.020  0.00  0.00    +0.009 A 
ATOM     15  C   UNL     1       2.474   0.104  -0.006  0.00  0.00    -0.009 A 
ATOM     16  C   UNL     1       3.726  -0.543  -0.038  0.00  0.00    +0.010 A 
ENDBRANCH   1  16
BRANCH   2  17
ATOM     17  N   UNL     1       7.301   0.383   0.030  0.00  0.00    -0.206 N 
ATOM     18  C   UNL     1       8.492  -0.241   0.117  0.00  0.00    +0.242 C 
ATOM     19  O   UNL     1       8.538  -1.451   0.200  0.00  0.00    -0.273 OA
ATOM     20  H   UNL     1       7.264   1.350  -0.037  0.00  0.00    +0.177 HD
BRANCH  18  21
ATOM     21  C   UNL     1       9.767   0.562   0.109  0.00  0.00    +0.166 C 
BRANCH  21  22
ATOM     22  S   UNL     1      11.188  -0.557   0.237  0.00  0.00    -0.147 S 
BRANCH  22  23
ATOM     23  C   UNL     1      12.623   0.552   0.214  0.00  0.00    +0.104 C 
BRANCH  23  24
ATOM     24  C   UNL     1      13.888  -0.260   0.316  0.00  0.00    -0.036 A 
ATOM     25  C   UNL     1      14.421  -0.557   1.556  0.00  0.00    +0.004 A 
ATOM     26  C   UNL     1      15.582  -1.303   1.650  0.00  0.00    +0.002 A 
ATOM     27  C   UNL     1      16.210  -1.752   0.504  0.00  0.00    +0.020 A 
ATOM     28  C   UNL     1      15.677  -1.455  -0.738  0.00  0.00    +0.041 A 
ATOM     29  C   UNL     1      14.512  -0.714  -0.831  0.00  0.00    +0.024 A 
ATOM     30 CL   UNL     1      16.465  -2.019  -2.178  0.00  0.00    -0.084 Cl
ENDBRANCH  23  24
ENDBRANCH  22  23
ENDBRANCH  21  22
ENDBRANCH  18  21
ENDBRANCH   2  17
TORSDOF 6
