REMARK  Name = ZINC33652429
REMARK  14 active torsions:
REMARK  status: ('A' for Active; 'I' for Inactive)
REMARK    1  A    between atoms: C_1  and  C_2
REMARK    2  A    between atoms: N_8  and  C_9
REMARK    3  A    between atoms: C_9  and  C_10
REMARK    4  A    between atoms: C_10  and  C_11
REMARK    5  A    between atoms: C_11  and  N_12
REMARK    6  A    between atoms: C_13  and  C_15
REMARK    7  A    between atoms: C_15  and  C_16
REMARK    8  A    between atoms: C_22  and  C_24
REMARK    9  A    between atoms: C_24  and  N_25
REMARK   10  A    between atoms: N_25  and  C_26
REMARK   11  A    between atoms: C_26  and  C_27
REMARK   12  A    between atoms: C_27  and  C_28
REMARK   13  A    between atoms: C_27  and  C_29
REMARK   14  A    between atoms: C_30  and  C_32
REMARK                            x       y       z     vdW  Elec       q    Type
REMARK                         _______ _______ _______ _____ _____    ______ ____
ROOT
ATOM      1  C   UNL     1      -2.634  -0.734   1.883  0.00  0.00    +0.059 A 
ATOM      2  C   UNL     1      -2.826   0.574   2.181  0.00  0.00    +0.072 A 
ATOM      3  S   UNL     1      -1.231   1.252   1.744  0.00  0.00    -0.060 S 
ATOM      4  C   UNL     1      -0.491  -0.230   1.223  0.00  0.00    +0.165 A 
ATOM      5  N   UNL     1      -1.462  -1.104   1.402  0.00  0.00    -0.229 NA
ATOM      6  N   UNL     1       0.794  -0.441   0.737  0.00  0.00    -0.263 N 
ATOM      7  C   UNL     1       1.647   0.596   0.617  0.00  0.00    +0.236 C 
ATOM      8  O   UNL     1       1.296   1.711   0.938  0.00  0.00    -0.274 OA
ATOM      9  H   UNL     1       1.115  -1.453   0.450  0.00  0.00    +0.157 HD
ENDROOT
BRANCH   1  10
ATOM     10  C   UNL     1      -3.735  -1.742   2.089  0.00  0.00    +0.151 C 
BRANCH  10  12
ATOM     11  N   UNL     1      -4.941  -3.433   0.746  0.00  0.00    -0.315 N 
ATOM     12  C   UNL     1      -3.992  -2.477   0.799  0.00  0.00    +0.219 C 
ATOM     13  O   UNL     1      -3.345  -2.209  -0.191  0.00  0.00    -0.275 OA
ATOM     14  H   UNL     1      -5.528  -3.676   1.643  0.00  0.00    +0.149 HD
BRANCH  11  15
ATOM     15  C   UNL     1      -5.191  -4.147  -0.509  0.00  0.00    +0.102 C 
BRANCH  15  16
ATOM     16  C   UNL     1      -6.309  -5.170  -0.299  0.00  0.00    +0.000 C 
BRANCH  16  17
ATOM     17  C   UNL     1      -6.570  -5.917  -1.608  0.00  0.00    -0.077 C 
BRANCH  17  24
ATOM     18  C   UNL     1      -5.938  -8.488  -0.655  0.00  0.00    -0.013 C 
ATOM     19  C   UNL     1      -7.294  -7.850  -0.343  0.00  0.00    -0.072 C 
ATOM     20  C   UNL     1      -8.364  -8.940  -0.260  0.00  0.00    -0.016 C 
ATOM     21  C   UNL     1      -9.721  -8.295   0.032  0.00  0.00    -0.003 C 
ATOM     22  C   UNL     1     -10.039  -7.275  -1.064  0.00  0.00    -0.019 C 
ATOM     23  C   UNL     1      -8.921  -6.232  -1.124  0.00  0.00    -0.078 C 
ATOM     24  N   UNL     1      -7.643  -6.899  -1.407  0.00  0.00    +0.381 N 
ATOM     25  H   UNL     1      -7.762  -7.469  -2.340  0.00  0.00    -0.081 HD
ENDBRANCH  17  24
ENDBRANCH  16  17
ENDBRANCH  15  16
ENDBRANCH  11  15
ENDBRANCH  10  12
ENDBRANCH   1  10
BRANCH   7  26
ATOM     26  C   UNL     1       3.039   0.369   0.084  0.00  0.00    +0.204 C 
BRANCH  26  27
ATOM     27  N   UNL     1       3.763   1.642   0.051  0.00  0.00    -0.288 N 
ATOM     28  C   UNL     1       3.877   2.322  -1.107  0.00  0.00    +0.247 C 
ATOM     29  O   UNL     1       4.501   3.365  -1.140  0.00  0.00    -0.270 OA
BRANCH  28  30
ATOM     30  C   UNL     1       3.245   1.801  -2.336  0.00  0.00    +0.037 A 
ATOM     31  C   UNL     1       2.172   0.911  -2.249  0.00  0.00    +0.016 A 
ATOM     32  C   UNL     1       1.582   0.432  -3.398  0.00  0.00    +0.039 A 
ATOM     33  C   UNL     1       2.060   0.823  -4.640  0.00  0.00    +0.123 A 
ATOM     34  C   UNL     1       3.129   1.701  -4.733  0.00  0.00    +0.039 A 
ATOM     35  C   UNL     1       3.722   2.191  -3.589  0.00  0.00    +0.016 A 
ATOM     36  F   UNL     1       1.482   0.345  -5.764  0.00  0.00    -0.205 F 
ENDBRANCH  28  30
BRANCH  27  37
ATOM     37  C   UNL     1       4.362   2.175   1.276  0.00  0.00    +0.111 C 
BRANCH  37  38
ATOM     38  C   UNL     1       5.737   1.538   1.491  0.00  0.00    +0.000 C 
ATOM     39  C   UNL     1       6.677   1.961   0.361  0.00  0.00    +0.009 C 
ATOM     40  C   UNL     1       6.310   2.001   2.832  0.00  0.00    +0.009 C 
ENDBRANCH  37  38
ENDBRANCH  27  37
ENDBRANCH  26  27
ENDBRANCH   7  26
TORSDOF 11
