REMARK  Name = ZINC28059790
REMARK  7 active torsions:
REMARK  status: ('A' for Active; 'I' for Inactive)
REMARK    1  A    between atoms: C_1  and  C_2
REMARK    2  A    between atoms: C_10  and  C_18
REMARK    3  A    between atoms: C_21  and  O_26
REMARK    4  A    between atoms: C_22  and  O_24
REMARK    5  A    between atoms: O_24  and  C_25
REMARK    6  A    between atoms: O_26  and  C_27
REMARK    7  A    between atoms: C_28  and  C_31
REMARK                            x       y       z     vdW  Elec       q    Type
REMARK                         _______ _______ _______ _____ _____    ______ ____
ROOT
ATOM      1  C   UNL     1      -1.334   2.110   0.020  0.00  0.00    +0.044 C 
ATOM      2  C   UNL     1      -0.017   1.378   0.010  0.00  0.00    -0.050 A 
ATOM      3  C   UNL     1       1.169   2.092   0.002  0.00  0.00    +0.007 A 
ATOM      4  C   UNL     1       2.385   1.435  -0.014  0.00  0.00    +0.046 A 
ATOM      5  C   UNL     1       2.419   0.053  -0.023  0.00  0.00    +0.131 A 
ATOM      6  C   UNL     1       1.220  -0.672  -0.014  0.00  0.00    +0.038 A 
ATOM      7  C   UNL     1       0.002  -0.004   0.002  0.00  0.00    +0.016 A 
ATOM      8  C   UNL     1       1.293  -2.153  -0.020  0.00  0.00    +0.050 C 
ATOM      9  C   UNL     1       2.444  -2.731  -0.370  0.00  0.00    +0.026 C 
ATOM     10  C   UNL     1       2.619  -4.229  -0.399  0.00  0.00    +0.174 C 
ATOM     11  N   UNL     1       1.502  -4.878   0.272  0.00  0.00    -0.201 N 
ATOM     12  C   UNL     1       0.349  -4.242   0.612  0.00  0.00    +0.240 A 
ATOM     13  N   UNL     1      -0.425  -5.120   1.182  0.00  0.00    -0.092 NA
ATOM     14  N   UNL     1       0.162  -6.267   1.232  0.00  0.00    -0.021 NA
ATOM     15  N   UNL     1       1.339  -6.195   0.698  0.00  0.00    -0.042 NA
ATOM     16  N   UNL     1       0.164  -2.896   0.347  0.00  0.00    -0.282 N 
ATOM     17  C   UNL     1       3.615  -1.860  -0.764  0.00  0.00    +0.241 C 
ATOM     18  O   UNL     1       3.592  -0.630  -0.042  0.00  0.00    -0.479 OA
ATOM     19  H   UNL     1      -0.819  -2.406   0.414  0.00  0.00    +0.155 HD
ENDROOT
BRANCH  10  20
ATOM     20  C   UNL     1       2.681  -4.697  -1.831  0.00  0.00    -0.015 A 
ATOM     21  C   UNL     1       1.611  -4.471  -2.677  0.00  0.00    +0.010 A 
ATOM     22  C   UNL     1       1.666  -4.893  -3.992  0.00  0.00    +0.050 A 
ATOM     23  C   UNL     1       2.789  -5.554  -4.462  0.00  0.00    +0.162 A 
ATOM     24  C   UNL     1       3.864  -5.787  -3.608  0.00  0.00    +0.162 A 
ATOM     25  C   UNL     1       3.805  -5.356  -2.293  0.00  0.00    +0.055 A 
BRANCH  24  26
ATOM     26  O   UNL     1       4.968  -6.435  -4.064  0.00  0.00    -0.491 OA
ATOM     27  C   UNL     1       6.032  -6.639  -3.132  0.00  0.00    +0.277 C 
ENDBRANCH  24  26
BRANCH  23  28
ATOM     28  O   UNL     1       2.842  -5.975  -5.754  0.00  0.00    -0.491 OA
ATOM     29  C   UNL     1       1.703  -5.702  -6.572  0.00  0.00    +0.277 C 
ENDBRANCH  23  28
ENDBRANCH  10  20
BRANCH  17  30
ATOM     30  C   UNL     1       3.544  -1.570  -2.241  0.00  0.00    +0.034 A 
ATOM     31  C   UNL     1       4.156  -2.210  -3.268  0.00  0.00    +0.015 A 
ATOM     32  C   UNL     1       3.939  -1.766  -4.559  0.00  0.00    +0.008 A 
ATOM     33  C   UNL     1       3.130  -0.698  -4.759  0.00  0.00    +0.045 A 
ATOM     34  S   UNL     1       2.638  -0.289  -3.093  0.00  0.00    -0.098 S 
ENDBRANCH  17  30
TORSDOF 4
