REMARK  Name = ZINC63172376
REMARK  11 active torsions:
REMARK  status: ('A' for Active; 'I' for Inactive)
REMARK    1  A    between atoms: C_1  and  C_2
REMARK    2  A    between atoms: C_2  and  C_3
REMARK    3  A    between atoms: C_2  and  C_4
REMARK    4  A    between atoms: C_2  and  C_5
REMARK    5  A    between atoms: C_15  and  N_23
REMARK    6  A    between atoms: C_17  and  C_19
REMARK    7  A    between atoms: C_19  and  O_21
REMARK    8  A    between atoms: O_21  and  C_22
REMARK    9  A    between atoms: C_24  and  C_26
REMARK   10  A    between atoms: C_26  and  S_27
REMARK   11  A    between atoms: S_27  and  C_28
REMARK                            x       y       z     vdW  Elec       q    Type
REMARK                         _______ _______ _______ _____ _____    ______ ____
ROOT
ATOM      1  C   UNL     1       1.234  -0.281  -1.187  0.00  0.00    -0.004 C 
ATOM      2  C   UNL     1       0.350   0.168  -2.351  0.00  0.00    +0.004 C 
ATOM      3  C   UNL     1       0.698  -0.635  -3.612  0.00  0.00    +0.006 C 
ATOM      4  C   UNL     1       2.171  -0.993  -3.551  0.00  0.00    +0.018 C 
ATOM      5  C   UNL     1       2.948   0.191  -2.915  0.00  0.00    +0.053 C 
ATOM      6  C   UNL     1       2.682   0.167  -1.417  0.00  0.00    +0.018 C 
ATOM      7  S   UNL     1       4.665  -0.357  -3.287  0.00  0.00    -0.134 S 
ATOM      8  C   UNL     1       4.327  -1.193  -4.896  0.00  0.00    +0.145 C 
ATOM      9  C   UNL     1       2.796  -1.385  -4.873  0.00  0.00    +0.132 C 
ENDROOT
BRANCH   1  11
ATOM     10  C   UNL     1       0.758   1.862   0.005  0.00  0.00    +0.011 C 
ATOM     11  C   UNL     1       0.713   0.337   0.113  0.00  0.00    -0.035 C 
ATOM     12  C   UNL     1       1.590  -0.118   1.281  0.00  0.00    +0.011 C 
ATOM     13  C   UNL     1      -0.729  -0.116   0.350  0.00  0.00    +0.011 C 
ENDBRANCH   1  11
BRANCH   8  14
ATOM     14  N   UNL     1       4.719  -0.335  -6.017  0.00  0.00    -0.302 N 
ATOM     15  C   UNL     1       5.769  -0.674  -6.790  0.00  0.00    +0.224 C 
ATOM     16  O   UNL     1       6.337  -1.731  -6.612  0.00  0.00    -0.275 OA
ATOM     17  H   UNL     1       4.222   0.477  -6.203  0.00  0.00    +0.150 HD
BRANCH  15  18
ATOM     18  C   UNL     1       6.239   0.260  -7.875  0.00  0.00    +0.168 C 
BRANCH  18  19
ATOM     19  S   UNL     1       7.660  -0.474  -8.732  0.00  0.00    -0.106 S 
BRANCH  19  20
ATOM     20  C   UNL     1       8.098   0.757  -9.990  0.00  0.00    +0.236 C 
ATOM     21  N   UNL     1       8.374   2.051  -9.353  0.00  0.00    -0.355 N 
ATOM     22  C   UNL     1       7.518   2.910  -9.826  0.00  0.00    +0.061 A 
ATOM     23  C   UNL     1       7.296   4.341  -9.576  0.00  0.00    +0.027 A 
ATOM     24  C   UNL     1       6.308   4.985 -10.228  0.00  0.00    +0.002 A 
ATOM     25  C   UNL     1       5.465   4.342 -11.152  0.00  0.00    +0.002 A 
ATOM     26  C   UNL     1       5.582   3.033 -11.454  0.00  0.00    +0.027 A 
ATOM     27  C   UNL     1       6.625   2.229 -10.803  0.00  0.00    +0.061 A 
ATOM     28  N   UNL     1       6.965   0.976 -10.897  0.00  0.00    -0.355 N 
ATOM     29  H   UNL     1       6.546   0.309 -11.463  0.00  0.00    +0.162 HD
ATOM     30  H   UNL     1       9.068   2.233  -8.700  0.00  0.00    +0.162 HD
ENDBRANCH  19  20
ENDBRANCH  18  19
ENDBRANCH  15  18
ENDBRANCH   8  14
BRANCH   9  31
ATOM     31  C   UNL     1       2.179  -0.556  -5.969  0.00  0.00    +0.313 C 
ATOM     32  O   UNL     1       2.168   0.649  -5.881  0.00  0.00    -0.250 OA
BRANCH  31  33
ATOM     33  O   UNL     1       1.642  -1.155  -7.043  0.00  0.00    -0.468 OA
ATOM     34  C   UNL     1       1.075  -0.307  -8.044  0.00  0.00    +0.280 C 
ENDBRANCH  31  33
ENDBRANCH   9  31
TORSDOF 7
