REMARK  Name = ZINC39687190
REMARK  6 active torsions:
REMARK  status: ('A' for Active; 'I' for Inactive)
REMARK    1  A    between atoms: C_1  and  C_2
REMARK    2  A    between atoms: C_2  and  C_4
REMARK    3  A    between atoms: C_2  and  N_12
REMARK    4  A    between atoms: C_4  and  C_5
REMARK    5  A    between atoms: C_13  and  C_15
REMARK    6  A    between atoms: C_26  and  C_28
REMARK                            x       y       z     vdW  Elec       q    Type
REMARK                         _______ _______ _______ _____ _____    ______ ____
ROOT
ATOM      1  C   UNL     1       0.775  -1.133   3.579  0.00  0.00    +0.100 C 
ATOM      2  C   UNL     1       1.191  -2.609   3.393  0.00  0.00    +0.121 C 
ATOM      3  N   UNL     1       1.006  -3.222   4.729  0.00  0.00    -0.295 N 
ATOM      4  C   UNL     1      -0.242  -2.610   5.246  0.00  0.00    +0.115 C 
ATOM      5  C   UNL     1      -0.165  -1.137   4.796  0.00  0.00    -0.004 C 
ATOM      6  C   UNL     1      -1.550  -0.636   4.395  0.00  0.00    -0.010 C 
ATOM      7  C   UNL     1      -2.450  -0.595   5.633  0.00  0.00    -0.082 C 
ATOM      8  N   UNL     1      -1.859   0.293   6.641  0.00  0.00    +0.379 N 
ATOM      9  C   UNL     1      -0.570  -0.246   7.089  0.00  0.00    -0.082 C 
ATOM     10  C   UNL     1       0.411  -0.273   5.913  0.00  0.00    -0.010 C 
ATOM     11  C   UNL     1       1.794  -4.129   5.338  0.00  0.00    +0.265 C 
ATOM     12  O   UNL     1       1.463  -4.602   6.408  0.00  0.00    -0.268 OA
ATOM     13  H   UNL     1      -1.719   1.208   6.240  0.00  0.00    -0.086 HD
ATOM     14  H   UNL     1      -2.484   0.367   7.430  0.00  0.00    -0.086 HD
ENDROOT
BRANCH  11  15
ATOM     15  C   UNL     1       3.066  -4.552   4.703  0.00  0.00    +0.126 A 
ATOM     16  C   UNL     1       3.818  -5.579   5.292  0.00  0.00    +0.033 A 
ATOM     17  C   UNL     1       4.990  -5.977   4.717  0.00  0.00    +0.012 A 
ATOM     18  C   UNL     1       5.406  -5.332   3.537  0.00  0.00    +0.000 A 
ATOM     19  C   UNL     1       6.601  -5.692   2.892  0.00  0.00    +0.010 A 
ATOM     20  C   UNL     1       6.971  -5.047   1.752  0.00  0.00    +0.001 A 
ATOM     21  C   UNL     1       6.180  -4.032   1.214  0.00  0.00    +0.002 A 
ATOM     22  C   UNL     1       5.017  -3.657   1.811  0.00  0.00    +0.028 A 
ATOM     23  C   UNL     1       4.599  -4.300   2.992  0.00  0.00    +0.072 A 
ATOM     24  N   UNL     1       3.461  -3.957   3.595  0.00  0.00    -0.242 NA
ENDBRANCH  11  15
BRANCH   1  26
ATOM     25  N   UNL     1      -0.031   0.690   2.114  0.00  0.00    -0.312 N 
ATOM     26  C   UNL     1       0.050  -0.633   2.357  0.00  0.00    +0.218 C 
ATOM     27  O   UNL     1      -0.462  -1.422   1.591  0.00  0.00    -0.275 OA
ATOM     28  H   UNL     1       0.378   1.321   2.727  0.00  0.00    +0.149 HD
BRANCH  25  30
ATOM     29  C   UNL     1      -2.232   1.289   1.231  0.00  0.00    +0.028 C 
ATOM     30  C   UNL     1      -0.737   1.175   0.926  0.00  0.00    +0.074 C 
BRANCH  30  31
ATOM     31  C   UNL     1      -0.191   2.550   0.534  0.00  0.00    +0.060 C 
BRANCH  31  32
ATOM     32  C   UNL     1       1.251   2.417   0.116  0.00  0.00    -0.010 A 
ATOM     33  C   UNL     1       2.260   2.637   1.034  0.00  0.00    +0.006 A 
ATOM     34  C   UNL     1       3.583   2.515   0.650  0.00  0.00    +0.000 A 
ATOM     35  C   UNL     1       3.897   2.173  -0.652  0.00  0.00    +0.003 A 
ATOM     36  C   UNL     1       2.889   1.952  -1.572  0.00  0.00    +0.038 A 
ATOM     37  C   UNL     1       1.564   2.069  -1.187  0.00  0.00    +0.127 A 
ATOM     38  F   UNL     1       0.578   1.848  -2.084  0.00  0.00    -0.205 F 
ENDBRANCH  31  32
ENDBRANCH  30  31
ENDBRANCH  25  30
ENDBRANCH   1  26
TORSDOF 5
