REMARK  Name = ZINC08789997
REMARK  3 active torsions:
REMARK  status: ('A' for Active; 'I' for Inactive)
REMARK    1  A    between atoms: C_4  and  N_7
REMARK    2  A    between atoms: C_12  and  C_29
REMARK    3  A    between atoms: C_29  and  C_30
REMARK                            x       y       z     vdW  Elec       q    Type
REMARK                         _______ _______ _______ _____ _____    ______ ____
ROOT
ATOM      1  N   UNL     1      -1.117   1.966   0.017  0.00  0.00    -0.210 N 
ATOM      2  C   UNL     1      -0.873   3.259   0.262  0.00  0.00    +0.228 C 
ATOM      3  O   UNL     1      -1.715   4.095   0.511  0.00  0.00    -0.275 OA
ATOM      4  C   UNL     1       0.614   3.516   0.173  0.00  0.00    +0.074 C 
ATOM      5  C   UNL     1       0.907   4.376  -1.075  0.00  0.00    -0.053 C 
ATOM      6  C   UNL     1       1.803   2.274  -1.563  0.00  0.00    +0.050 C 
ATOM      7  C   UNL     1       1.199   2.116  -0.162  0.00  0.00    +0.088 C 
ATOM      8  C   UNL     1      -0.026   1.232  -0.229  0.00  0.00    +0.229 C 
ATOM      9  O   UNL     1      -0.021   0.045  -0.473  0.00  0.00    -0.275 OA
ATOM     10  C   UNL     1       3.057   1.461  -1.719  0.00  0.00    -0.026 A 
ATOM     11  C   UNL     1       4.264   1.445  -1.056  0.00  0.00    +0.024 A 
ATOM     12  C   UNL     1       5.253   0.555  -1.440  0.00  0.00    +0.041 A 
ATOM     13  C   UNL     1       5.024  -0.315  -2.492  0.00  0.00    +0.022 A 
ATOM     14  C   UNL     1       3.817  -0.301  -3.158  0.00  0.00    +0.025 A 
ATOM     15  C   UNL     1       2.816   0.590  -2.777  0.00  0.00    +0.036 A 
ATOM     16  N   UNL     1       1.530   0.791  -3.285  0.00  0.00    -0.286 N 
ATOM     17  C   UNL     1       0.870   1.762  -2.626  0.00  0.00    +0.211 C 
ATOM     18  O   UNL     1      -0.259   2.148  -2.847  0.00  0.00    -0.277 OA
ATOM     19 CL   UNL     1       6.775   0.533  -0.607  0.00  0.00    -0.084 Cl
ATOM     20  H   UNL     1       1.157   0.290  -4.028  0.00  0.00    +0.155 HD
ATOM     21  N   UNL     1       2.038   3.699  -1.713  0.00  0.00    +0.394 N 
ATOM     22  H   UNL     1       2.916   3.965  -1.252  0.00  0.00    -0.083 HD
ATOM     23  H   UNL     1       2.086   3.949  -2.708  0.00  0.00    -0.083 HD
ENDROOT
BRANCH   1  27
ATOM     24  C   UNL     1      -4.961   0.355   0.035  0.00  0.00    +0.000 A 
ATOM     25  C   UNL     1      -4.054  -0.015   1.010  0.00  0.00    +0.002 A 
ATOM     26  C   UNL     1      -2.779   0.517   1.006  0.00  0.00    +0.024 A 
ATOM     27  C   UNL     1      -2.410   1.424   0.023  0.00  0.00    +0.044 A 
ATOM     28  C   UNL     1      -3.325   1.798  -0.951  0.00  0.00    +0.024 A 
ATOM     29  C   UNL     1      -4.596   1.259  -0.946  0.00  0.00    +0.002 A 
ENDBRANCH   1  27
BRANCH   5  30
ATOM     30  C   UNL     1       1.269   5.804  -0.664  0.00  0.00    +0.022 C 
BRANCH  30  31
ATOM     31  C   UNL     1       1.430   6.656  -1.897  0.00  0.00    -0.024 A 
ATOM     32  C   UNL     1       2.579   6.927  -2.535  0.00  0.00    +0.087 A 
ATOM     33  N   UNL     1       2.335   7.733  -3.614  0.00  0.00    -0.360 N 
ATOM     34  H   UNL     1       3.010   8.062  -4.228  0.00  0.00    +0.165 HD
ATOM     35  C   UNL     1       0.988   8.007  -3.698  0.00  0.00    +0.047 A 
ATOM     36  C   UNL     1       0.361   7.339  -2.630  0.00  0.00    +0.003 A 
ATOM     37  C   UNL     1      -1.020   7.443  -2.458  0.00  0.00    +0.010 A 
ATOM     38  C   UNL     1      -1.759   8.184  -3.336  0.00  0.00    +0.001 A 
ATOM     39  C   UNL     1      -1.147   8.840  -4.395  0.00  0.00    +0.002 A 
ATOM     40  C   UNL     1       0.216   8.756  -4.580  0.00  0.00    +0.026 A 
ENDBRANCH  30  31
ENDBRANCH   5  30
TORSDOF 3
