REMARK  Name = ZINC18339339
REMARK  7 active torsions:
REMARK  status: ('A' for Active; 'I' for Inactive)
REMARK    1  A    between atoms: C_1  and  N_2
REMARK    2  A    between atoms: C_11  and  C_13
REMARK    3  A    between atoms: C_13  and  C_14
REMARK    4  A    between atoms: C_14  and  O_16
REMARK    5  A    between atoms: O_16  and  C_17
REMARK    6  A    between atoms: C_17  and  C_18
REMARK    7  A    between atoms: C_26  and  N_28
REMARK                            x       y       z     vdW  Elec       q    Type
REMARK                         _______ _______ _______ _____ _____    ______ ____
ROOT
ATOM      1  C   UNL     1       2.243  -4.393  -0.044  0.00  0.00    +0.313 C 
ATOM      2  O   UNL     1       1.101  -4.788  -0.036  0.00  0.00    -0.250 OA
ENDROOT
BRANCH   1   3
ATOM      3  C   UNL     1       2.529  -2.914  -0.038  0.00  0.00    +0.178 C 
BRANCH   3  14
ATOM      4  C   UNL     1      -2.362  -2.947   0.007  0.00  0.00    +0.176 C 
ATOM      5  N   UNL     1      -1.136  -2.145   0.000  0.00  0.00    -0.232 N 
ATOM      6  C   UNL     1      -1.232  -0.799   0.009  0.00  0.00    +0.275 A 
ATOM      7  O   UNL     1      -2.321  -0.255   0.022  0.00  0.00    -0.266 OA
ATOM      8  C   UNL     1       0.002  -0.004   0.002  0.00  0.00    +0.050 A 
ATOM      9  C   UNL     1      -0.017   1.390   0.010  0.00  0.00    +0.014 A 
ATOM     10  C   UNL     1       1.174   2.083   0.002  0.00  0.00    +0.001 A 
ATOM     11  C   UNL     1       2.387   1.406  -0.013  0.00  0.00    +0.001 A 
ATOM     12  C   UNL     1       2.430   0.040  -0.021  0.00  0.00    +0.010 A 
ATOM     13  C   UNL     1       1.239  -0.688  -0.013  0.00  0.00    +0.011 A 
ATOM     14  C   UNL     1       1.229  -2.151  -0.022  0.00  0.00    +0.080 A 
ATOM     15  N   UNL     1       0.099  -2.794  -0.015  0.00  0.00    -0.172 NA
ENDBRANCH   3  14
ENDBRANCH   1   3
BRANCH   1  16
ATOM     16  O   UNL     1       3.257  -5.273  -0.059  0.00  0.00    -0.456 OA
BRANCH  16  17
ATOM     17  C   UNL     1       2.908  -6.682  -0.063  0.00  0.00    +0.308 C 
BRANCH  17  18
ATOM     18  C   UNL     1       4.166  -7.511  -0.080  0.00  0.00    +0.169 A 
ATOM     19  N   UNL     1       4.700  -7.862   1.066  0.00  0.00    -0.228 NA
ATOM     20  C   UNL     1       5.819  -8.600   1.097  0.00  0.00    +0.076 A 
ATOM     21  C   UNL     1       6.416  -8.994   2.303  0.00  0.00    +0.028 A 
ATOM     22  C   UNL     1       7.554  -9.744   2.277  0.00  0.00    +0.002 A 
ATOM     23  C   UNL     1       8.134 -10.127   1.070  0.00  0.00    +0.001 A 
ATOM     24  C   UNL     1       7.579  -9.761  -0.121  0.00  0.00    +0.013 A 
ATOM     25  C   UNL     1       6.411  -8.991  -0.129  0.00  0.00    +0.040 A 
ATOM     26  C   UNL     1       5.788  -8.581  -1.333  0.00  0.00    +0.128 A 
ATOM     27  N   UNL     1       4.680  -7.857  -1.250  0.00  0.00    -0.214 NA
BRANCH  26  28
ATOM     28  N   UNL     1       6.316  -8.929  -2.558  0.00  0.00    -0.343 N 
ATOM     29  H   UNL     1       7.125  -9.462  -2.603  0.00  0.00    +0.144 HD
ATOM     30  H   UNL     1       5.878  -8.641  -3.374  0.00  0.00    +0.144 HD
ENDBRANCH  26  28
ENDBRANCH  17  18
ENDBRANCH  16  17
ENDBRANCH   1  16
TORSDOF 6
