REMARK  Name = ZINC16210600
REMARK  7 active torsions:
REMARK  status: ('A' for Active; 'I' for Inactive)
REMARK    1  A    between atoms: C_1  and  C_2
REMARK    2  A    between atoms: C_2  and  C_4
REMARK    3  A    between atoms: C_2  and  O_15
REMARK    4  A    between atoms: C_7  and  C_9
REMARK    5  A    between atoms: O_15  and  C_16
REMARK    6  A    between atoms: C_16  and  C_18
REMARK    7  A    between atoms: C_23  and  N_24
REMARK                            x       y       z     vdW  Elec       q    Type
REMARK                         _______ _______ _______ _____ _____    ______ ____
ROOT
ATOM      1  O   UNL     1      -0.019   1.449   0.063  0.00  0.00    -0.448 OA
ENDROOT
BRANCH   1   3
ATOM      2  C   UNL     1       0.050  -0.510   1.508  0.00  0.00    +0.062 C 
ATOM      3  C   UNL     1      -0.001  -0.003   0.065  0.00  0.00    +0.261 C 
BRANCH   3   4
ATOM      4  C   UNL     1      -1.246  -0.523  -0.607  0.00  0.00    +0.258 A 
ATOM      5  N   UNL     1      -2.462  -0.097  -0.409  0.00  0.00    -0.108 NA
ATOM      6  N   UNL     1      -3.276  -0.762  -1.150  0.00  0.00    -0.107 NA
ATOM      7  C   UNL     1      -2.603  -1.648  -1.845  0.00  0.00    +0.249 A 
ATOM      8  O   UNL     1      -1.304  -1.513  -1.514  0.00  0.00    -0.416 OA
BRANCH   7   9
ATOM      9  C   UNL     1      -3.165  -2.615  -2.812  0.00  0.00    +0.038 A 
ATOM     10  C   UNL     1      -2.324  -3.501  -3.487  0.00  0.00    +0.013 A 
ATOM     11  C   UNL     1      -2.855  -4.405  -4.384  0.00  0.00    +0.001 A 
ATOM     12  C   UNL     1      -4.218  -4.427  -4.622  0.00  0.00    +0.000 A 
ATOM     13  C   UNL     1      -5.057  -3.548  -3.961  0.00  0.00    +0.001 A 
ATOM     14  C   UNL     1      -4.539  -2.643  -3.058  0.00  0.00    +0.013 A 
ENDBRANCH   7   9
ENDBRANCH   3   4
ENDBRANCH   1   3
BRANCH   1  15
ATOM     15  C   UNL     1       1.173   2.076   0.025  0.00  0.00    +0.342 C 
ATOM     16  O   UNL     1       2.200   1.427  -0.004  0.00  0.00    -0.245 OA
BRANCH  15  17
ATOM     17  C   UNL     1       1.231   3.548   0.021  0.00  0.00    +0.082 A 
ATOM     18  C   UNL     1       0.054   4.298  -0.069  0.00  0.00    +0.037 A 
ATOM     19  C   UNL     1       0.115   5.675  -0.073  0.00  0.00    +0.043 A 
ATOM     20  C   UNL     1       1.339   6.322   0.012  0.00  0.00    +0.042 A 
ATOM     21  C   UNL     1       2.509   5.596   0.102  0.00  0.00    +0.064 A 
ATOM     22  C   UNL     1       2.467   4.206   0.113  0.00  0.00    +0.057 A 
ATOM     23 CL   UNL     1       4.034   6.418   0.209  0.00  0.00    -0.082 Cl
ATOM     24 CL   UNL     1      -1.347   6.603  -0.185  0.00  0.00    -0.083 Cl
BRANCH  22  25
ATOM     25  N   UNL     1       3.643   3.472   0.208  0.00  0.00    -0.356 N 
ATOM     26  H   UNL     1       3.620   2.506   0.131  0.00  0.00    +0.142 HD
ATOM     27  H   UNL     1       4.488   3.927   0.352  0.00  0.00    +0.142 HD
ENDBRANCH  22  25
ENDBRANCH  15  17
ENDBRANCH   1  15
TORSDOF 6
