REMARK  Name = ZINC24831652
REMARK  4 active torsions:
REMARK  status: ('A' for Active; 'I' for Inactive)
REMARK    1  A    between atoms: C_15  and  C_17
REMARK    2  A    between atoms: C_22  and  S_23
REMARK    3  A    between atoms: S_23  and  C_24
REMARK    4  A    between atoms: C_24  and  C_25
REMARK                            x       y       z     vdW  Elec       q    Type
REMARK                         _______ _______ _______ _____ _____    ______ ____
ROOT
ATOM      1  C   UNL     1       0.246  -5.050  12.367  0.00  0.00    +0.001 A 
ATOM      2  C   UNL     1       0.239  -5.841  11.221  0.00  0.00    +0.001 A 
ATOM      3  C   UNL     1       0.213  -5.273   9.981  0.00  0.00    +0.010 A 
ATOM      4  C   UNL     1       0.192  -3.879   9.861  0.00  0.00    +0.009 A 
ATOM      5  C   UNL     1       0.200  -3.072  11.019  0.00  0.00    -0.016 A 
ATOM      6  C   UNL     1       0.229  -3.691  12.282  0.00  0.00    +0.008 A 
ATOM      7  C   UNL     1       0.179  -1.668  10.909  0.00  0.00    +0.010 A 
ATOM      8  C   UNL     1       0.151  -1.082   9.682  0.00  0.00    +0.018 A 
ATOM      9  C   UNL     1       0.144  -1.838   8.525  0.00  0.00    +0.041 A 
ATOM     10  C   UNL     1       0.164  -3.245   8.527  0.00  0.00    +0.088 A 
ATOM     11  N   UNL     1       0.154  -3.836   7.324  0.00  0.00    -0.224 NA
ATOM     12  C   UNL     1       0.128  -3.155   6.200  0.00  0.00    +0.166 A 
ATOM     13  S   UNL     1       0.121  -1.466   6.787  0.00  0.00    -0.052 S 
ATOM     14  N   UNL     1       0.116  -3.625   4.897  0.00  0.00    -0.261 N 
ATOM     15  C   UNL     1       0.089  -2.755   3.868  0.00  0.00    +0.251 C 
ATOM     16  O   UNL     1       0.075  -1.558   4.083  0.00  0.00    -0.270 OA
ATOM     17  H   UNL     1       0.128  -4.707   4.703  0.00  0.00    +0.157 HD
ENDROOT
BRANCH  15  18
ATOM     18  C   UNL     1       0.076  -3.255   2.482  0.00  0.00    +0.050 A 
ATOM     19  C   UNL     1       0.086  -4.630   2.229  0.00  0.00    +0.014 A 
ATOM     20  C   UNL     1       0.080  -5.090   0.931  0.00  0.00    +0.001 A 
ATOM     21  C   UNL     1       0.058  -4.197  -0.129  0.00  0.00    +0.001 A 
ATOM     22  C   UNL     1       0.042  -2.837   0.102  0.00  0.00    +0.015 A 
ATOM     23  C   UNL     1       0.047  -2.353   1.406  0.00  0.00    +0.020 A 
BRANCH  23  24
ATOM     24  S   UNL     1       0.026  -0.617   1.705  0.00  0.00    -0.117 S 
BRANCH  24  25
ATOM     25  C   UNL     1       0.002  -0.004   0.002  0.00  0.00    +0.148 C 
BRANCH  25  26
ATOM     26  C   UNL     1      -0.018   1.503   0.010  0.00  0.00    +0.115 A 
ATOM     27  C   UNL     1       1.062   2.304   0.004  0.00  0.00    +0.045 A 
ATOM     28  C   UNL     1       0.585   3.635   0.016  0.00  0.00    +0.041 A 
ATOM     29  C   UNL     1      -0.759   3.567   0.029  0.00  0.00    +0.195 A 
ATOM     30  O   UNL     1      -1.118   2.273   0.019  0.00  0.00    -0.467 OA
ENDBRANCH  25  26
ENDBRANCH  24  25
ENDBRANCH  23  24
ENDBRANCH  15  18
TORSDOF 4
