REMARK  Name = ZINC45037008
REMARK  6 active torsions:
REMARK  status: ('A' for Active; 'I' for Inactive)
REMARK    1  A    between atoms: C_1  and  C_2
REMARK    2  A    between atoms: C_9  and  C_11
REMARK    3  A    between atoms: C_11  and  N_12
REMARK    4  A    between atoms: N_20  and  C_21
REMARK    5  A    between atoms: C_21  and  C_22
REMARK    6  A    between atoms: C_22  and  C_25
REMARK                            x       y       z     vdW  Elec       q    Type
REMARK                         _______ _______ _______ _____ _____    ______ ____
ROOT
ATOM      1  N   UNL     1       2.614   0.989   3.978  0.00  0.00    +0.387 N 
ATOM      2  C   UNL     1       3.396   1.960   3.203  0.00  0.00    -0.059 C 
ATOM      3  C   UNL     1       3.699   3.183   4.076  0.00  0.00    +0.091 C 
ATOM      4  N   UNL     1       4.353   2.724   5.311  0.00  0.00    -0.289 N 
ATOM      5  C   UNL     1       3.718   1.633   6.068  0.00  0.00    +0.091 C 
ATOM      6  C   UNL     1       3.414   0.484   5.101  0.00  0.00    -0.059 C 
ATOM      7  C   UNL     1       5.501   3.286   5.737  0.00  0.00    +0.302 C 
ATOM      8  O   UNL     1       6.077   2.831   6.707  0.00  0.00    -0.253 OA
ATOM      9  N   UNL     1       6.011   4.352   5.090  0.00  0.00    -0.298 N 
ATOM     10  H   UNL     1       5.591   4.671   4.275  0.00  0.00    +0.150 HD
ATOM     11  H   UNL     1       1.783   1.437   4.333  0.00  0.00    -0.081 HD
ENDROOT
BRANCH   1  12
ATOM     12  C   UNL     1       2.231  -0.132   3.109  0.00  0.00    +0.019 C 
BRANCH  12  20
ATOM     13  C   UNL     1       0.025   1.524  -0.032  0.00  0.00    +0.028 C 
ATOM     14  C   UNL     1       0.028  -0.006  -0.028  0.00  0.00    +0.073 C 
ATOM     15  C   UNL     1       0.650  -0.522  -1.329  0.00  0.00    +0.022 C 
ATOM     16  C   UNL     1       0.778  -2.045  -1.261  0.00  0.00    +0.003 C 
ATOM     17  C   UNL     1       1.699  -2.430  -0.100  0.00  0.00    +0.019 C 
ATOM     18  C   UNL     1       1.089  -1.936   1.215  0.00  0.00    +0.108 C 
ATOM     19  N   UNL     1       0.825  -0.494   1.106  0.00  0.00    -0.300 N 
ATOM     20  C   UNL     1       1.308   0.364   2.026  0.00  0.00    +0.199 C 
ATOM     21  O   UNL     1       1.001   1.537   1.982  0.00  0.00    -0.278 OA
ENDBRANCH  12  20
ENDBRANCH   1  12
BRANCH   9  22
ATOM     22  C   UNL     1       7.198   5.030   5.615  0.00  0.00    +0.117 C 
BRANCH  22  23
ATOM     23  C   UNL     1       7.492   6.271   4.771  0.00  0.00    +0.011 C 
ATOM     24  C   UNL     1       7.803   7.573   5.512  0.00  0.00    +0.014 C 
ATOM     25  C   UNL     1       6.463   7.402   4.794  0.00  0.00    +0.014 C 
BRANCH  23  26
ATOM     26  C   UNL     1       8.219   6.018   3.475  0.00  0.00    -0.040 A 
ATOM     27  C   UNL     1       8.021   6.859   2.396  0.00  0.00    +0.004 A 
ATOM     28  C   UNL     1       8.687   6.627   1.207  0.00  0.00    +0.000 A 
ATOM     29  C   UNL     1       9.551   5.554   1.097  0.00  0.00    +0.000 A 
ATOM     30  C   UNL     1       9.749   4.713   2.176  0.00  0.00    +0.000 A 
ATOM     31  C   UNL     1       9.087   4.948   3.366  0.00  0.00    +0.004 A 
ENDBRANCH  23  26
ENDBRANCH  22  23
ENDBRANCH   9  22
TORSDOF 5
