REMARK  Name = ZINC09151127
REMARK  6 active torsions:
REMARK  status: ('A' for Active; 'I' for Inactive)
REMARK    1  A    between atoms: C_1  and  C_2
REMARK    2  A    between atoms: C_2  and  N_57
REMARK    3  A    between atoms: C_8  and  N_25
REMARK    4  A    between atoms: C_9  and  C_10
REMARK    5  A    between atoms: C_10  and  N_11
REMARK    6  A    between atoms: N_14  and  C_15
REMARK                            x       y       z     vdW  Elec       q    Type
REMARK                         _______ _______ _______ _____ _____    ______ ____
ROOT
ATOM      1  C   UNL     1       6.920  -5.614   3.932  0.00  0.00    -0.074 C 
ATOM      2  C   UNL     1       6.064  -4.914   2.873  0.00  0.00    +0.018 C 
ATOM      3  C   UNL     1       6.820  -4.954   1.547  0.00  0.00    -0.034 A 
ATOM      4  C   UNL     1       8.158  -5.208   1.547  0.00  0.00    -0.021 A 
ATOM      5  S   UNL     1       8.598  -5.164  -0.168  0.00  0.00    -0.077 S 
ATOM      6  C   UNL     1       6.974  -4.809  -0.824  0.00  0.00    +0.089 A 
ATOM      7  C   UNL     1       6.223  -4.745   0.307  0.00  0.00    +0.004 A 
ATOM      8  C   UNL     1       9.022  -5.461   2.739  0.00  0.00    -0.035 C 
ATOM      9  N   UNL     1       8.274  -5.023   3.942  0.00  0.00    +0.383 N 
ATOM     10  H   UNL     1       8.192  -3.999   3.931  0.00  0.00    -0.081 HD
ENDROOT
BRANCH   6  11
ATOM     11  N   UNL     1       6.580  -4.640  -2.156  0.00  0.00    -0.317 N 
ATOM     12  C   UNL     1       6.904  -5.466  -3.194  0.00  0.00    +0.092 A 
ATOM     13  C   UNL     1       6.338  -4.975  -4.316  0.00  0.00    +0.019 A 
ATOM     14  C   UNL     1       5.647  -3.799  -3.962  0.00  0.00    +0.019 A 
ATOM     15  C   UNL     1       5.812  -3.618  -2.635  0.00  0.00    +0.092 A 
ENDBRANCH   6  11
BRANCH   9  17
ATOM     16  C   UNL     1      10.298  -4.635   5.264  0.00  0.00    -0.017 C 
ATOM     17  C   UNL     1       8.997  -5.434   5.165  0.00  0.00    -0.082 C 
ENDBRANCH   9  17
BRANCH   7  18
ATOM     18  C   UNL     1       4.746  -4.455   0.218  0.00  0.00    +0.144 C 
BRANCH  18  19
ATOM     19  N   UNL     1       4.523  -3.014   0.356  0.00  0.00    -0.295 N 
ATOM     20  C   UNL     1       3.271  -2.518   0.308  0.00  0.00    +0.304 C 
ATOM     21  O   UNL     1       2.326  -3.267   0.149  0.00  0.00    -0.252 OA
ATOM     22  N   UNL     1       3.065  -1.192   0.435  0.00  0.00    -0.269 N 
ATOM     23  H   UNL     1       5.276  -2.416   0.483  0.00  0.00    +0.151 HD
ATOM     24  H   UNL     1       3.821  -0.587   0.487  0.00  0.00    +0.156 HD
BRANCH  22  25
ATOM     25  C   UNL     1       1.759  -0.688   0.494  0.00  0.00    +0.038 A 
ATOM     26  C   UNL     1       0.748  -1.444   1.072  0.00  0.00    +0.027 A 
ATOM     27  C   UNL     1      -0.540  -0.948   1.129  0.00  0.00    +0.051 A 
ATOM     28  C   UNL     1      -0.828   0.306   0.610  0.00  0.00    +0.162 A 
ATOM     29  C   UNL     1       0.183   1.066   0.033  0.00  0.00    +0.164 A 
ATOM     30  C   UNL     1       1.475   0.567  -0.026  0.00  0.00    +0.072 A 
ATOM     31  O   UNL     1      -0.079   2.301  -0.475  0.00  0.00    -0.485 OA
ATOM     32  C   UNL     1      -1.451   2.613  -0.736  0.00  0.00    +0.270 C 
ATOM     33  C   UNL     1      -2.282   2.184   0.481  0.00  0.00    +0.270 C 
ATOM     34  O   UNL     1      -2.105   0.775   0.668  0.00  0.00    -0.485 OA
ENDBRANCH  22  25
ENDBRANCH  18  19
ENDBRANCH   7  18
TORSDOF 5
