REMARK  Name = ZINC19913323
REMARK  5 active torsions:
REMARK  status: ('A' for Active; 'I' for Inactive)
REMARK    1  A    between atoms: C_1  and  C_2
REMARK    2  A    between atoms: C_2  and  C_4
REMARK    3  A    between atoms: C_2  and  N_11
REMARK    4  A    between atoms: C_9  and  O_10
REMARK    5  A    between atoms: N_11  and  C_12
REMARK                            x       y       z     vdW  Elec       q    Type
REMARK                         _______ _______ _______ _____ _____    ______ ____
ROOT
ATOM      1  N   UNL     1      -2.436   3.712  -0.219  0.00  0.00    -0.337 N 
ATOM      2  H   UNL     1      -2.377   4.808  -0.299  0.00  0.00    +0.147 HD
ENDROOT
BRANCH   1   3
ATOM      3  C   UNL     1      -1.283   2.936  -0.382  0.00  0.00    +0.031 A 
ATOM      4  C   UNL     1      -1.358   1.552  -0.290  0.00  0.00    +0.027 A 
ATOM      5  C   UNL     1      -0.219   0.785  -0.444  0.00  0.00    +0.051 A 
ATOM      6  C   UNL     1       0.998   1.392  -0.705  0.00  0.00    +0.173 A 
ATOM      7  C   UNL     1       1.076   2.779  -0.806  0.00  0.00    +0.174 A 
ATOM      8  C   UNL     1      -0.065   3.548  -0.644  0.00  0.00    +0.072 A 
ATOM      9  O   UNL     1       2.370   3.126  -1.065  0.00  0.00    -0.395 OA
ATOM     10  C   UNL     1       3.007   1.920  -1.527  0.00  0.00    +0.589 C 
ATOM     11  O   UNL     1       2.245   0.870  -0.902  0.00  0.00    -0.395 OA
ATOM     12  F   UNL     1       2.925   1.824  -2.921  0.00  0.00    -0.125 F 
ATOM     13  F   UNL     1       4.342   1.878  -1.111  0.00  0.00    -0.125 F 
ENDBRANCH   1   3
BRANCH   1  15
ATOM     14  C   UNL     1      -3.857   2.825   1.562  0.00  0.00    +0.033 C 
ATOM     15  C   UNL     1      -3.721   3.066   0.058  0.00  0.00    +0.101 C 
BRANCH  15  16
ATOM     16  C   UNL     1      -4.842   3.956  -0.413  0.00  0.00    +0.014 A 
ATOM     17  C   UNL     1      -4.661   5.324  -0.471  0.00  0.00    +0.009 A 
ATOM     18  C   UNL     1      -5.689   6.141  -0.903  0.00  0.00    +0.001 A 
ATOM     19  C   UNL     1      -6.902   5.591  -1.277  0.00  0.00    +0.004 A 
ATOM     20  C   UNL     1      -7.088   4.224  -1.220  0.00  0.00    +0.046 A 
ATOM     21  C   UNL     1      -6.056   3.401  -0.792  0.00  0.00    +0.122 A 
BRANCH  21  22
ATOM     22  O   UNL     1      -6.235   2.055  -0.741  0.00  0.00    -0.506 OA
ATOM     23  H   UNL     1      -7.198   1.617  -1.042  0.00  0.00    +0.292 HD
ENDBRANCH  21  22
ENDBRANCH  15  16
ENDBRANCH   1  15
TORSDOF 4
