REMARK  Name = ZINC12549941
REMARK  7 active torsions:
REMARK  status: ('A' for Active; 'I' for Inactive)
REMARK    1  A    between atoms: C_1  and  C_2
REMARK    2  A    between atoms: C_2  and  C_4
REMARK    3  A    between atoms: C_2  and  N_17
REMARK    4  A    between atoms: N_6  and  C_7
REMARK    5  A    between atoms: C_10  and  N_14
REMARK    6  A    between atoms: N_17  and  C_18
REMARK    7  A    between atoms: C_21  and  N_24
REMARK                            x       y       z     vdW  Elec       q    Type
REMARK                         _______ _______ _______ _____ _____    ______ ____
ROOT
ATOM      1  C   UNL     1      -0.021   1.540  -0.009  0.00  0.00    +0.038 C 
ATOM      2  C   UNL     1      -0.004   0.010  -0.008  0.00  0.00    +0.154 C 
ENDROOT
BRANCH   2   3
ATOM      3  C   UNL     1       0.706  -0.485  -1.241  0.00  0.00    +0.237 C 
ATOM      4  O   UNL     1       0.120  -1.189  -2.036  0.00  0.00    -0.273 OA
ATOM      5  N   UNL     1       1.991  -0.146  -1.462  0.00  0.00    -0.283 N 
ATOM      6  H   UNL     1       2.440   0.469  -0.861  0.00  0.00    +0.155 HD
BRANCH   5   7
ATOM      7  C   UNL     1       2.679  -0.681  -2.557  0.00  0.00    +0.052 A 
ATOM      8  C   UNL     1       2.007  -0.926  -3.748  0.00  0.00    +0.027 A 
ATOM      9  C   UNL     1       2.688  -1.454  -4.827  0.00  0.00    +0.034 A 
ATOM     10  C   UNL     1       4.038  -1.738  -4.724  0.00  0.00    +0.128 A 
ATOM     11  C   UNL     1       4.710  -1.496  -3.541  0.00  0.00    +0.054 A 
ATOM     12  C   UNL     1       4.036  -0.963  -2.458  0.00  0.00    +0.064 A 
ATOM     13 CL   UNL     1       4.882  -0.651  -0.974  0.00  0.00    -0.082 Cl
BRANCH  10  14
ATOM     14  N   UNL     1       4.764  -2.304  -5.883  0.00  0.00    +0.056 N 
ATOM     15  O   UNL     1       4.177  -2.517  -6.919  0.00  0.00    -0.126 OA
ATOM     16  O   UNL     1       5.944  -2.553  -5.794  0.00  0.00    -0.126 OA
ENDBRANCH  10  14
ENDBRANCH   5   7
ENDBRANCH   2   3
BRANCH   2  17
ATOM     17  N   UNL     1      -1.380  -0.493  -0.000  0.00  0.00    -0.333 N 
ATOM     18  H   UNL     1      -1.814  -0.729  -0.835  0.00  0.00    +0.147 HD
BRANCH  17  19
ATOM     19  C   UNL     1      -2.066  -0.633   1.208  0.00  0.00    +0.028 A 
ATOM     20  C   UNL     1      -1.447  -0.290   2.404  0.00  0.00    +0.025 A 
ATOM     21  C   UNL     1      -2.128  -0.429   3.597  0.00  0.00    +0.023 A 
ATOM     22  C   UNL     1      -3.425  -0.910   3.603  0.00  0.00    +0.014 A 
ATOM     23  C   UNL     1      -4.044  -1.252   2.415  0.00  0.00    +0.023 A 
ATOM     24  C   UNL     1      -3.370  -1.110   1.217  0.00  0.00    +0.025 A 
BRANCH  22  25
ATOM     25  N   UNL     1      -4.111  -1.051   4.813  0.00  0.00    -0.393 NA
ATOM     26  C   UNL     1      -4.480  -2.458   5.003  0.00  0.00    +0.085 C 
ATOM     27  C   UNL     1      -5.160  -2.632   6.363  0.00  0.00    +0.017 C 
ATOM     28  C   UNL     1      -6.419  -1.761   6.413  0.00  0.00    +0.003 C 
ATOM     29  C   UNL     1      -6.031  -0.305   6.139  0.00  0.00    +0.017 C 
ATOM     30  C   UNL     1      -5.319  -0.218   4.788  0.00  0.00    +0.085 C 
ATOM     31  H   UNL     1      -3.516  -0.756   5.572  0.00  0.00    +0.126 HD
ENDBRANCH  22  25
ENDBRANCH  17  19
ENDBRANCH   2  17
TORSDOF 6
