REMARK  Name = ZINC59502553
REMARK  10 active torsions:
REMARK  status: ('A' for Active; 'I' for Inactive)
REMARK    1  A    between atoms: C_1  and  O_2
REMARK    2  A    between atoms: O_2  and  C_3
REMARK    3  A    between atoms: C_7  and  C_10
REMARK    4  A    between atoms: C_8  and  O_9
REMARK    5  A    between atoms: N_11  and  C_12
REMARK    6  A    between atoms: C_19  and  S_21
REMARK    7  A    between atoms: S_21  and  C_22
REMARK    8  A    between atoms: C_22  and  C_23
REMARK    9  A    between atoms: N_25  and  C_26
REMARK   10  A    between atoms: C_30  and  N_32
REMARK                            x       y       z     vdW  Elec       q    Type
REMARK                         _______ _______ _______ _____ _____    ______ ____
ROOT
ATOM      1  C   UNL     1       0.823  -6.175  -1.447  0.00  0.00    +0.065 A 
ATOM      2  C   UNL     1       0.532  -6.826  -2.653  0.00  0.00    +0.030 A 
ATOM      3  C   UNL     1       0.587  -8.178  -2.759  0.00  0.00    +0.031 A 
ATOM      4  C   UNL     1       0.943  -8.984  -1.651  0.00  0.00    +0.080 A 
ATOM      5  C   UNL     1       1.232  -8.304  -0.444  0.00  0.00    +0.042 A 
ATOM      6  C   UNL     1       1.183  -6.940  -0.333  0.00  0.00    +0.045 A 
ATOM      7  S   UNL     1       1.621  -9.640   0.661  0.00  0.00    -0.061 S 
ATOM      8  C   UNL     1       1.383 -10.973  -0.506  0.00  0.00    +0.136 A 
ATOM      9  N   UNL     1       1.042 -10.330  -1.600  0.00  0.00    -0.233 NA
ENDROOT
BRANCH   1  11
ATOM     10  C   UNL     1       1.282  -4.075  -2.304  0.00  0.00    +0.123 C 
ATOM     11  N   UNL     1       0.761  -4.811  -1.362  0.00  0.00    -0.255 NA
BRANCH  10  16
ATOM     12  C   UNL     1       0.536  -0.612  -1.039  0.00  0.00    +0.162 A 
ATOM     13  C   UNL     1       1.093   0.160  -2.046  0.00  0.00    +0.049 A 
ATOM     14  C   UNL     1       1.708  -0.442  -3.131  0.00  0.00    +0.004 A 
ATOM     15  C   UNL     1       1.773  -1.815  -3.220  0.00  0.00    +0.013 A 
ATOM     16  C   UNL     1       1.216  -2.609  -2.212  0.00  0.00    +0.038 A 
ATOM     17  C   UNL     1       0.598  -1.999  -1.111  0.00  0.00    +0.167 A 
BRANCH  12  19
ATOM     18  C   UNL     1      -0.092   1.416   0.033  0.00  0.00    +0.277 C 
ATOM     19  O   UNL     1      -0.066  -0.013   0.023  0.00  0.00    -0.491 OA
ENDBRANCH  12  19
BRANCH  17  20
ATOM     20  O   UNL     1       0.058  -2.758  -0.124  0.00  0.00    -0.503 OA
ATOM     21  H   UNL     1      -0.870  -2.990  -0.269  0.00  0.00    +0.292 HD
ENDBRANCH  17  20
ENDBRANCH  10  16
ENDBRANCH   1  11
BRANCH   8  22
ATOM     22  S   UNL     1       1.562 -12.707  -0.253  0.00  0.00    -0.089 S 
BRANCH  22  23
ATOM     23  C   UNL     1       1.163 -13.430  -1.868  0.00  0.00    +0.172 C 
BRANCH  23  24
ATOM     24  C   UNL     1       1.279 -14.930  -1.790  0.00  0.00    +0.227 C 
ATOM     25  O   UNL     1       1.599 -15.460  -0.747  0.00  0.00    -0.275 OA
ATOM     26  N   UNL     1       1.026 -15.683  -2.879  0.00  0.00    -0.285 N 
ATOM     27  H   UNL     1       0.706 -15.265  -3.694  0.00  0.00    +0.155 HD
BRANCH  26  28
ATOM     28  C   UNL     1       1.227 -17.067  -2.834  0.00  0.00    +0.036 A 
ATOM     29  C   UNL     1       1.690 -17.740  -3.958  0.00  0.00    +0.023 A 
ATOM     30  C   UNL     1       1.887 -19.106  -3.911  0.00  0.00    +0.004 A 
ATOM     31  C   UNL     1       1.624 -19.804  -2.746  0.00  0.00    +0.033 A 
ATOM     32  C   UNL     1       1.162 -19.137  -1.626  0.00  0.00    +0.128 A 
ATOM     33  C   UNL     1       0.969 -17.770  -1.665  0.00  0.00    +0.056 A 
BRANCH  32  34
ATOM     34  N   UNL     1       0.881 -19.889  -0.383  0.00  0.00    +0.056 N 
ATOM     35  O   UNL     1       1.054 -21.084  -0.346  0.00  0.00    -0.126 OA
ATOM     36  O   UNL     1       0.477 -19.306   0.597  0.00  0.00    -0.126 OA
ENDBRANCH  32  34
ENDBRANCH  26  28
ENDBRANCH  23  24
ENDBRANCH  22  23
ENDBRANCH   8  22
TORSDOF 9
