REMARK  Name = ZINC34933642
REMARK  8 active torsions:
REMARK  status: ('A' for Active; 'I' for Inactive)
REMARK    1  A    between atoms: C_1  and  C_2
REMARK    2  A    between atoms: C_6  and  C_30
REMARK    3  A    between atoms: C_7  and  N_8
REMARK    4  A    between atoms: N_11  and  C_12
REMARK    5  A    between atoms: C_12  and  C_14
REMARK    6  A    between atoms: C_12  and  C_21
REMARK    7  A    between atoms: C_14  and  C_15
REMARK    8  A    between atoms: C_26  and  C_29
REMARK                            x       y       z     vdW  Elec       q    Type
REMARK                         _______ _______ _______ _____ _____    ______ ____
ROOT
ATOM      1  C   UNL     1      -0.241  -0.610   5.697  0.00  0.00    +0.165 C 
ENDROOT
BRANCH   1   2
ATOM      2  C   UNL     1      -1.009   0.373   6.542  0.00  0.00    +0.236 C 
ATOM      3  O   UNL     1      -1.345   1.442   6.075  0.00  0.00    -0.274 OA
ATOM      4  N   UNL     1      -1.324   0.066   7.816  0.00  0.00    -0.300 N 
ATOM      5  C   UNL     1      -0.809  -1.161   8.439  0.00  0.00    +0.108 C 
ATOM      6  C   UNL     1      -1.987  -1.959   9.005  0.00  0.00    +0.022 C 
ATOM      7  C   UNL     1      -2.796  -1.067   9.949  0.00  0.00    -0.011 C 
ATOM      8  C   UNL     1      -3.352   0.130   9.172  0.00  0.00    +0.022 C 
ATOM      9  C   UNL     1      -2.184   0.954   8.610  0.00  0.00    +0.108 C 
ATOM     10  C   UNL     1      -3.955  -1.871  10.542  0.00  0.00    +0.007 C 
ENDBRANCH   1   2
BRANCH   1  14
ATOM     11  N   UNL     1      -0.486  -0.703   2.031  0.00  0.00    -0.269 N 
ATOM     12  C   UNL     1      -0.359  -1.099   3.313  0.00  0.00    +0.304 C 
ATOM     13  O   UNL     1      -0.320  -2.284   3.582  0.00  0.00    -0.252 OA
ATOM     14  N   UNL     1      -0.274  -0.181   4.296  0.00  0.00    -0.288 N 
ATOM     15  H   UNL     1      -0.460   0.241   1.810  0.00  0.00    +0.156 HD
ATOM     16  H   UNL     1      -0.236   0.762   4.077  0.00  0.00    +0.151 HD
BRANCH  11  23
ATOM     17  C   UNL     1       1.085  -0.449  -0.328  0.00  0.00    +0.045 C 
ATOM     18  C   UNL     1       0.091  -1.568  -0.149  0.00  0.00    -0.029 A 
ATOM     19  C   UNL     1      -0.074  -2.511  -1.144  0.00  0.00    +0.005 A 
ATOM     20  C   UNL     1      -0.985  -3.538  -0.981  0.00  0.00    +0.001 A 
ATOM     21  C   UNL     1      -1.735  -3.624   0.178  0.00  0.00    +0.005 A 
ATOM     22  C   UNL     1      -1.575  -2.683   1.177  0.00  0.00    -0.029 A 
ATOM     23  C   UNL     1      -0.655  -1.654   1.018  0.00  0.00    +0.041 A 
ATOM     24  C   UNL     1      -2.392  -2.776   2.439  0.00  0.00    +0.045 C 
ENDBRANCH  11  23
ENDBRANCH   1  14
BRANCH   1  25
ATOM     25  C   UNL     1       1.211  -0.669   6.177  0.00  0.00    +0.067 C 
BRANCH  25  26
ATOM     26  C   UNL     1       1.948  -1.741   5.417  0.00  0.00    -0.045 A 
ATOM     27  C   UNL     1       1.871  -3.058   5.829  0.00  0.00    +0.004 A 
ATOM     28  C   UNL     1       2.547  -4.042   5.131  0.00  0.00    +0.000 A 
ATOM     29  C   UNL     1       3.300  -3.708   4.020  0.00  0.00    +0.000 A 
ATOM     30  C   UNL     1       3.376  -2.390   3.608  0.00  0.00    +0.000 A 
ATOM     31  C   UNL     1       2.696  -1.408   4.303  0.00  0.00    +0.004 A 
ENDBRANCH  25  26
ENDBRANCH   1  25
TORSDOF 5
