REMARK  Name = ZINC28161536
REMARK  9 active torsions:
REMARK  status: ('A' for Active; 'I' for Inactive)
REMARK    1  A    between atoms: C_1  and  C_2
REMARK    2  A    between atoms: C_2  and  C_3
REMARK    3  A    between atoms: C_6  and  C_9
REMARK    4  A    between atoms: C_12  and  C_34
REMARK    5  A    between atoms: C_19  and  C_22
REMARK    6  A    between atoms: C_22  and  C_23
REMARK    7  A    between atoms: N_25  and  C_26
REMARK    8  A    between atoms: C_28  and  C_33
REMARK    9  A    between atoms: C_30  and  C_32
REMARK                            x       y       z     vdW  Elec       q    Type
REMARK                         _______ _______ _______ _____ _____    ______ ____
ROOT
ATOM      1  C   UNL     1      -3.114   3.471  -5.167  0.00  0.00    +0.136 C 
ATOM      2  C   UNL     1      -4.449   4.214  -4.962  0.00  0.00    +0.087 C 
ATOM      3  C   UNL     1      -5.448   3.391  -5.744  0.00  0.00    +0.075 C 
ATOM      4  N   UNL     1      -4.846   2.388  -6.290  0.00  0.00    -0.181 NA
ATOM      5  N   UNL     1      -3.480   2.331  -6.022  0.00  0.00    -0.195 N 
ATOM      6  C   UNL     1      -2.621   1.375  -6.479  0.00  0.00    +0.170 C 
ATOM      7  N   UNL     1      -1.317   1.271  -6.258  0.00  0.00    -0.157 NA
ATOM      8  C   UNL     1      -0.563   0.319  -6.735  0.00  0.00    +0.252 C 
ATOM      9  O   UNL     1       0.630   0.259  -6.508  0.00  0.00    -0.272 OA
ATOM     10  C   UNL     1      -1.282  -0.713  -7.595  0.00  0.00    +0.150 C 
ATOM     11  S   UNL     1      -2.989  -0.038  -7.511  0.00  0.00    -0.078 S 
ENDROOT
BRANCH   1  15
ATOM     12  C   UNL     1      -1.565   2.108  -1.426  0.00  0.00    -0.048 A 
ATOM     13  C   UNL     1      -2.561   1.392  -2.064  0.00  0.00    +0.004 A 
ATOM     14  C   UNL     1      -3.065   1.835  -3.272  0.00  0.00    +0.006 A 
ATOM     15  C   UNL     1      -2.567   2.990  -3.848  0.00  0.00    -0.025 A 
ATOM     16  C   UNL     1      -1.567   3.703  -3.212  0.00  0.00    +0.006 A 
ATOM     17  C   UNL     1      -1.066   3.261  -2.002  0.00  0.00    +0.004 A 
BRANCH  12  19
ATOM     18  C   UNL     1      -1.830   2.242   1.036  0.00  0.00    +0.009 C 
ATOM     19  C   UNL     1      -1.019   1.627  -0.106  0.00  0.00    +0.032 C 
ENDBRANCH  12  19
ENDBRANCH   1  15
BRANCH   3  20
ATOM     20  C   UNL     1      -6.879   3.687  -5.863  0.00  0.00    +0.035 A 
ATOM     21  C   UNL     1      -7.858   2.997  -6.557  0.00  0.00    +0.017 A 
ATOM     22  C   UNL     1      -9.148   3.473  -6.515  0.00  0.00    +0.008 A 
ATOM     23  C   UNL     1      -9.417   4.602  -5.809  0.00  0.00    +0.046 A 
ATOM     24  S   UNL     1      -7.813   5.035  -5.157  0.00  0.00    -0.095 S 
ENDBRANCH   3  20
BRANCH  10  25
ATOM     25  C   UNL     1      -0.746  -0.715  -9.029  0.00  0.00    +0.120 C 
BRANCH  25  26
ATOM     26  C   UNL     1      -1.398  -1.829  -9.806  0.00  0.00    +0.219 C 
ATOM     27  O   UNL     1      -2.210  -2.551  -9.267  0.00  0.00    -0.275 OA
ATOM     28  N   UNL     1      -1.077  -2.024 -11.101  0.00  0.00    -0.285 N 
ATOM     29  H   UNL     1      -0.408  -1.318 -11.614  0.00  0.00    +0.155 HD
BRANCH  28  30
ATOM     30  C   UNL     1      -1.597  -3.124 -11.793  0.00  0.00    +0.034 A 
ATOM     31  C   UNL     1      -1.891  -3.020 -13.146  0.00  0.00    +0.026 A 
ATOM     32  C   UNL     1      -2.398  -4.109 -13.826  0.00  0.00    -0.048 A 
ATOM     33  C   UNL     1      -2.625  -5.299 -13.159  0.00  0.00    +0.006 A 
ATOM     34  C   UNL     1      -2.339  -5.404 -11.811  0.00  0.00    -0.048 A 
ATOM     35  C   UNL     1      -1.825  -4.321 -11.126  0.00  0.00    +0.026 A 
ATOM     36  C   UNL     1      -2.587  -6.703 -11.088  0.00  0.00    +0.044 C 
ATOM     37  C   UNL     1      -2.712  -3.999 -15.296  0.00  0.00    +0.044 C 
ENDBRANCH  28  30
ENDBRANCH  25  26
ENDBRANCH  10  25
TORSDOF 6
