REMARK  Name = ZINC36024790
REMARK  8 active torsions:
REMARK  status: ('A' for Active; 'I' for Inactive)
REMARK    1  A    between atoms: C_1  and  C_2
REMARK    2  A    between atoms: C_2  and  C_3
REMARK    3  A    between atoms: C_2  and  C_4
REMARK    4  A    between atoms: C_2  and  N_5
REMARK    5  A    between atoms: C_15  and  C_30
REMARK    6  A    between atoms: N_19  and  C_20
REMARK    7  A    between atoms: C_20  and  C_21
REMARK    8  A    between atoms: C_30  and  C_31
REMARK                            x       y       z     vdW  Elec       q    Type
REMARK                         _______ _______ _______ _____ _____    ______ ____
ROOT
ATOM      1  N   UNL     1       0.866   1.588  -3.426  0.00  0.00    -0.294 N 
ATOM      2  C   UNL     1       0.836   0.530  -4.261  0.00  0.00    +0.303 C 
ATOM      3  O   UNL     1      -0.224   0.141  -4.711  0.00  0.00    -0.253 OA
ATOM      4  N   UNL     1       1.981  -0.096  -4.596  0.00  0.00    -0.286 N 
ATOM      5  C   UNL     1       1.991  -1.127  -5.643  0.00  0.00    +0.109 C 
ATOM      6  C   UNL     1       3.047  -0.756  -6.690  0.00  0.00    +0.025 C 
ATOM      7  C   UNL     1       4.391  -0.537  -5.999  0.00  0.00    +0.006 C 
ATOM      8  C   UNL     1       4.288   0.599  -4.984  0.00  0.00    +0.025 C 
ATOM      9  C   UNL     1       3.244   0.244  -3.926  0.00  0.00    +0.109 C 
ATOM     10  N   UNL     1       5.423  -0.213  -7.007  0.00  0.00    +0.401 N 
ATOM     11  C   UNL     1       6.647  -0.836  -6.446  0.00  0.00    +0.023 C 
ATOM     12  C   UNL     1       6.141  -1.968  -5.578  0.00  0.00    +0.201 C 
ATOM     13  O   UNL     1       6.805  -2.897  -5.168  0.00  0.00    -0.277 OA
ATOM     14  N   UNL     1       4.829  -1.770  -5.338  0.00  0.00    -0.309 N 
ATOM     15  H   UNL     1       1.699   1.847  -3.002  0.00  0.00    +0.151 HD
ATOM     16  H   UNL     1       5.191  -0.623  -7.899  0.00  0.00    -0.082 HD
ATOM     17  H   UNL     1       5.538   0.786  -7.091  0.00  0.00    -0.082 HD
ENDROOT
BRANCH   1  19
ATOM     18  C   UNL     1      -1.409   1.417  -2.543  0.00  0.00    +0.031 C 
ATOM     19  C   UNL     1      -0.359   2.345  -3.159  0.00  0.00    +0.028 C 
ATOM     20  C   UNL     1      -0.897   2.924  -4.469  0.00  0.00    +0.031 C 
ATOM     21  C   UNL     1      -0.052   3.485  -2.186  0.00  0.00    +0.031 C 
ENDBRANCH   1  19
BRANCH  14  22
ATOM     22  C   UNL     1       3.973  -2.650  -4.540  0.00  0.00    +0.141 C 
BRANCH  22  23
ATOM     23  C   UNL     1       3.602  -3.863  -5.353  0.00  0.00    -0.026 A 
ATOM     24  C   UNL     1       2.273  -4.222  -5.491  0.00  0.00    +0.009 A 
ATOM     25  C   UNL     1       1.928  -5.333  -6.236  0.00  0.00    +0.050 A 
ATOM     26  C   UNL     1       2.913  -6.091  -6.848  0.00  0.00    +0.166 A 
ATOM     27  C   UNL     1       4.251  -5.730  -6.709  0.00  0.00    +0.167 A 
ATOM     28  C   UNL     1       4.590  -4.612  -5.965  0.00  0.00    +0.054 A 
ATOM     29  O   UNL     1       5.018  -6.625  -7.398  0.00  0.00    -0.453 OA
ATOM     30  C   UNL     1       4.171  -7.768  -7.619  0.00  0.00    +0.466 C 
ATOM     31  O   UNL     1       2.842  -7.213  -7.623  0.00  0.00    -0.453 OA
ENDBRANCH  22  23
ENDBRANCH  14  22
BRANCH  11  32
ATOM     32  C   UNL     1       7.532  -1.378  -7.571  0.00  0.00    +0.028 C 
BRANCH  32  33
ATOM     33  C   UNL     1       8.030  -0.233  -8.414  0.00  0.00    -0.048 A 
ATOM     34  C   UNL     1       7.295   0.194  -9.504  0.00  0.00    +0.003 A 
ATOM     35  C   UNL     1       7.753   1.245 -10.277  0.00  0.00    +0.000 A 
ATOM     36  C   UNL     1       8.945   1.869  -9.960  0.00  0.00    +0.000 A 
ATOM     37  C   UNL     1       9.680   1.442  -8.870  0.00  0.00    +0.000 A 
ATOM     38  C   UNL     1       9.220   0.395  -8.094  0.00  0.00    +0.003 A 
ENDBRANCH  32  33
ENDBRANCH  11  32
TORSDOF 5
