REMARK  Name = ZINC39469770
REMARK  8 active torsions:
REMARK  status: ('A' for Active; 'I' for Inactive)
REMARK    1  A    between atoms: C_1  and  C_2
REMARK    2  A    between atoms: C_2  and  O_3
REMARK    3  A    between atoms: O_3  and  C_4
REMARK    4  A    between atoms: P_13  and  S_29
REMARK    5  A    between atoms: C_21  and  C_22
REMARK    6  A    between atoms: C_22  and  C_23
REMARK    7  A    between atoms: S_29  and  O_32
REMARK    8  A    between atoms: O_32  and  C_33
REMARK                            x       y       z     vdW  Elec       q    Type
REMARK                         _______ _______ _______ _____ _____    ______ ____
ROOT
ATOM      1  C   UNL     1       0.777  -1.810  -1.336  0.00  0.00    +0.120 C 
ATOM      2  C   UNL     1       0.264  -2.642  -0.424  0.00  0.00    +0.023 C 
ATOM      3  C   UNL     1       0.403  -4.128  -0.619  0.00  0.00    +0.019 C 
ATOM      4  C   UNL     1       0.290  -4.857   0.714  0.00  0.00    -0.002 C 
ATOM      5  C   UNL     1       1.458  -4.488   1.637  0.00  0.00    -0.020 C 
ATOM      6  C   UNL     1       1.276  -5.288   2.933  0.00  0.00    +0.158 C 
ATOM      7  O   UNL     1       2.321  -4.945   3.861  0.00  0.00    -0.301 OA
ATOM      8  P   UNL     1       3.855  -4.992   3.321  0.00  0.00    +0.431 P 
ATOM      9  O   UNL     1       4.357  -6.384   3.321  0.00  0.00    -0.246 OA
ATOM     10  N   UNL     1       3.789  -4.407   1.779  0.00  0.00    -0.271 NA
ATOM     11  N   UNL     1       2.732  -4.804   0.988  0.00  0.00    +0.398 N 
ATOM     12  C   UNL     1       2.866  -4.054  -0.271  0.00  0.00    -0.046 C 
ATOM     13  C   UNL     1       1.769  -4.437  -1.238  0.00  0.00    +0.005 C 
ATOM     14  C   UNL     1       1.937  -3.604  -2.487  0.00  0.00    -0.017 C 
ATOM     15  C   UNL     1       1.454  -2.366  -2.524  0.00  0.00    -0.005 C 
ATOM     16  H   UNL     1       4.472  -3.806   1.442  0.00  0.00    +0.113 HD
ATOM     17  H   UNL     1       2.788  -5.797   0.814  0.00  0.00    -0.055 HD
ENDROOT
BRANCH   8  18
ATOM     18  S   UNL     1       5.097  -3.765   4.525  0.00  0.00    +0.209 S 
ATOM     19  O   UNL     1       6.429  -3.975   4.079  0.00  0.00    -0.126 OA
ATOM     20  O   UNL     1       4.495  -2.478   4.548  0.00  0.00    -0.126 OA
BRANCH  18  21
ATOM     21  O   UNL     1       5.022  -4.306   5.945  0.00  0.00    -0.339 OA
BRANCH  21  22
ATOM     22  C   UNL     1       5.725  -5.453   6.137  0.00  0.00    +0.157 A 
ATOM     23  C   UNL     1       5.116  -6.683   5.934  0.00  0.00    +0.048 A 
ATOM     24  C   UNL     1       5.833  -7.848   6.129  0.00  0.00    +0.004 A 
ATOM     25  C   UNL     1       7.156  -7.789   6.527  0.00  0.00    +0.000 A 
ATOM     26  C   UNL     1       7.765  -6.564   6.731  0.00  0.00    +0.004 A 
ATOM     27  C   UNL     1       7.054  -5.396   6.531  0.00  0.00    +0.048 A 
ENDBRANCH  21  22
ENDBRANCH  18  21
ENDBRANCH   8  18
BRANCH   1  28
ATOM     28  O   UNL     1       0.671  -0.465  -1.174  0.00  0.00    -0.492 OA
BRANCH  28  30
ATOM     29  C   UNL     1      -0.019   1.526   0.010  0.00  0.00    +0.048 C 
ATOM     30  C   UNL     1       0.002  -0.004   0.002  0.00  0.00    +0.225 C 
ENDBRANCH  28  30
ENDBRANCH   1  28
BRANCH  15  31
ATOM     31  C   UNL     1       1.600  -1.531  -3.770  0.00  0.00    +0.073 C 
BRANCH  31  32
ATOM     32  C   UNL     1       0.351  -1.652  -4.605  0.00  0.00    -0.043 A 
ATOM     33  C   UNL     1       0.249  -2.649  -5.557  0.00  0.00    +0.004 A 
ATOM     34  C   UNL     1      -0.896  -2.760  -6.323  0.00  0.00    +0.000 A 
ATOM     35  C   UNL     1      -1.940  -1.874  -6.136  0.00  0.00    +0.000 A 
ATOM     36  C   UNL     1      -1.839  -0.877  -5.184  0.00  0.00    +0.000 A 
ATOM     37  C   UNL     1      -0.696  -0.769  -4.415  0.00  0.00    +0.004 A 
ENDBRANCH  31  32
ENDBRANCH  15  31
TORSDOF 7
