REMARK  Name = ZINC66633860
REMARK  10 active torsions:
REMARK  status: ('A' for Active; 'I' for Inactive)
REMARK    1  A    between atoms: C_1  and  C_2
REMARK    2  A    between atoms: N_5  and  C_8
REMARK    3  A    between atoms: C_8  and  C_10
REMARK    4  A    between atoms: C_8  and  C_11
REMARK    5  A    between atoms: C_11  and  N_12
REMARK    6  A    between atoms: C_13  and  C_15
REMARK    7  A    between atoms: C_15  and  C_16
REMARK    8  A    between atoms: C_16  and  C_18
REMARK    9  A    between atoms: C_16  and  N_19
REMARK   10  A    between atoms: C_20  and  C_22
REMARK                            x       y       z     vdW  Elec       q    Type
REMARK                         _______ _______ _______ _____ _____    ______ ____
ROOT
ATOM      1  N   UNL     1      -2.996  -3.977   0.450  0.00  0.00    -0.317 N 
ATOM      2  C   UNL     1      -4.328  -4.179   0.438  0.00  0.00    +0.215 C 
ATOM      3  O   UNL     1      -4.868  -4.719   1.381  0.00  0.00    -0.276 OA
ATOM      4  H   UNL     1      -2.564  -3.545  -0.304  0.00  0.00    +0.149 HD
ENDROOT
BRANCH   1   5
ATOM      5  C   UNL     1      -2.199  -4.408   1.601  0.00  0.00    +0.088 C 
BRANCH   5   6
ATOM      6  C   UNL     1      -0.753  -3.942   1.424  0.00  0.00    -0.054 C 
ATOM      7  C   UNL     1       0.052  -4.288   2.679  0.00  0.00    -0.012 C 
BRANCH   6  12
ATOM      8  C   UNL     1       0.082   1.699   1.509  0.00  0.00    +0.007 C 
ATOM      9  C   UNL     1       0.143   0.204   1.830  0.00  0.00    -0.018 C 
ATOM     10  C   UNL     1       0.659  -0.561   0.608  0.00  0.00    -0.016 C 
ATOM     11  C   UNL     1       0.642  -2.062   0.909  0.00  0.00    -0.078 C 
ATOM     12  N   UNL     1      -0.729  -2.488   1.213  0.00  0.00    +0.382 N 
ATOM     13  C   UNL     1      -1.204  -1.811   2.425  0.00  0.00    -0.078 C 
ATOM     14  C   UNL     1      -1.259  -0.301   2.183  0.00  0.00    -0.016 C 
ATOM     15  H   UNL     1      -1.333  -2.253   0.439  0.00  0.00    -0.081 HD
ENDBRANCH   6  12
ENDBRANCH   5   6
ENDBRANCH   1   5
BRANCH   2  16
ATOM     16  C   UNL     1      -5.147  -3.736  -0.746  0.00  0.00    +0.117 C 
BRANCH  16  17
ATOM     17  C   UNL     1      -6.619  -4.082  -0.507  0.00  0.00    +0.079 C 
ATOM     18  C   UNL     1      -7.467  -3.521  -1.650  0.00  0.00    +0.028 C 
BRANCH  17  19
ATOM     19  N   UNL     1      -6.775  -5.537  -0.451  0.00  0.00    -0.312 N 
ATOM     20  C   UNL     1      -7.809  -6.078   0.223  0.00  0.00    +0.216 C 
ATOM     21  O   UNL     1      -8.610  -5.360   0.783  0.00  0.00    -0.276 OA
ATOM     22  H   UNL     1      -6.135  -6.112  -0.899  0.00  0.00    +0.149 HD
BRANCH  20  23
ATOM     23  C   UNL     1      -7.970  -7.576   0.281  0.00  0.00    +0.075 C 
ATOM     24  C   UNL     1      -8.125  -8.127  -1.138  0.00  0.00    +0.013 C 
ATOM     25  C   UNL     1      -8.288  -9.647  -1.079  0.00  0.00    +0.001 C 
ATOM     26  C   UNL     1      -9.532  -9.995  -0.259  0.00  0.00    +0.000 C 
ATOM     27  C   UNL     1      -9.377  -9.444   1.160  0.00  0.00    +0.001 C 
ATOM     28  C   UNL     1      -9.214  -7.923   1.102  0.00  0.00    +0.013 C 
ENDBRANCH  20  23
ENDBRANCH  17  19
ENDBRANCH  16  17
ENDBRANCH   2  16
TORSDOF 7
