REMARK  Name = ZINC02435630
REMARK  4 active torsions:
REMARK  status: ('A' for Active; 'I' for Inactive)
REMARK    1  A    between atoms: C_1  and  N_2
REMARK    2  A    between atoms: C_6  and  C_7
REMARK    3  A    between atoms: C_12  and  N_14
REMARK    4  A    between atoms: N_14  and  C_15
REMARK                            x       y       z     vdW  Elec       q    Type
REMARK                         _______ _______ _______ _____ _____    ______ ____
ROOT
ATOM      1  C   UNL     1      -0.498  -0.551   2.623  0.00  0.00    +0.046 C 
ATOM      2  C   UNL     1      -0.438   0.768   2.963  0.00  0.00    +0.081 C 
ATOM      3  C   UNL     1      -0.724   1.969   2.152  0.00  0.00    +0.276 C 
ATOM      4  O   UNL     1      -1.076   1.888   0.985  0.00  0.00    -0.267 OA
ATOM      5  N   UNL     1      -0.580   3.130   2.753  0.00  0.00    -0.152 NA
ATOM      6  C   UNL     1      -0.200   3.232   4.016  0.00  0.00    +0.175 C 
ATOM      7  S   UNL     1       0.002   1.530   4.520  0.00  0.00    -0.050 S 
ENDROOT
BRANCH   1  13
ATOM      8  C   UNL     1       1.105   0.402   0.185  0.00  0.00    +0.149 C 
ATOM      9  N   UNL     1      -0.043  -0.509   0.175  0.00  0.00    -0.350 N 
ATOM     10  C   UNL     1      -0.584  -1.090  -0.927  0.00  0.00    +0.086 A 
ATOM     11  C   UNL     1      -1.628  -1.865  -0.547  0.00  0.00    +0.020 A 
ATOM     12  C   UNL     1      -1.751  -1.771   0.842  0.00  0.00    +0.027 A 
ATOM     13  C   UNL     1      -0.749  -0.924   1.282  0.00  0.00    +0.043 A 
ENDBRANCH   1  13
BRANCH   6  14
ATOM     14  N   UNL     1      -0.012   4.369   4.761  0.00  0.00    -0.192 NA
BRANCH  14  15
ATOM     15  C   UNL     1      -0.184   5.626   4.173  0.00  0.00    +0.057 A 
ATOM     16  C   UNL     1      -1.028   5.773   3.079  0.00  0.00    +0.025 A 
ATOM     17  C   UNL     1      -1.196   7.015   2.500  0.00  0.00    +0.003 A 
ATOM     18  C   UNL     1      -0.527   8.113   3.009  0.00  0.00    +0.015 A 
ATOM     19  C   UNL     1       0.314   7.971   4.098  0.00  0.00    +0.020 A 
ATOM     20  C   UNL     1       0.483   6.731   4.685  0.00  0.00    +0.040 A 
ATOM     21 BR   UNL     1       1.228   9.475   4.789  0.00  0.00    -0.050 Br
ENDBRANCH  14  15
ENDBRANCH   6  14
TORSDOF 3
