REMARK  Name = ZINC09703985
REMARK  12 active torsions:
REMARK  status: ('A' for Active; 'I' for Inactive)
REMARK    1  A    between atoms: C_1  and  C_2
REMARK    2  A    between atoms: C_2  and  C_4
REMARK    3  A    between atoms: C_2  and  N_57
REMARK    4  A    between atoms: C_11  and  C_12
REMARK    5  A    between atoms: C_11  and  N_57
REMARK    6  A    between atoms: C_12  and  C_14
REMARK    7  A    between atoms: C_12  and  O_33
REMARK    8  A    between atoms: C_14  and  O_15
REMARK    9  A    between atoms: O_15  and  C_16
REMARK   10  A    between atoms: C_19  and  S_25
REMARK   11  A    between atoms: C_21  and  N_22
REMARK   12  A    between atoms: S_25  and  N_28
REMARK                            x       y       z     vdW  Elec       q    Type
REMARK                         _______ _______ _______ _____ _____    ______ ____
ROOT
ATOM      1  O   UNL     1       2.632   5.530  -0.236  0.00  0.00    -0.487 OA
ENDROOT
BRANCH   1   2
ATOM      2  C   UNL     1       3.810   6.195  -0.365  0.00  0.00    +0.151 A 
ATOM      3  C   UNL     1       5.006   5.492  -0.386  0.00  0.00    +0.050 A 
ATOM      4  C   UNL     1       6.202   6.170  -0.517  0.00  0.00    +0.032 A 
ATOM      5  C   UNL     1       6.208   7.549  -0.628  0.00  0.00    +0.108 A 
ATOM      6  C   UNL     1       5.018   8.251  -0.608  0.00  0.00    +0.065 A 
ATOM      7  C   UNL     1       3.818   7.577  -0.481  0.00  0.00    +0.169 A 
BRANCH   7   8
ATOM      8  N   UNL     1       2.544   8.330  -0.465  0.00  0.00    +0.060 N 
ATOM      9  O   UNL     1       2.552   9.543  -0.567  0.00  0.00    -0.126 OA
ATOM     10  O   UNL     1       1.487   7.735  -0.349  0.00  0.00    -0.126 OA
ENDBRANCH   7   8
BRANCH   5  11
ATOM     11  S   UNL     1       7.736   8.411  -0.797  0.00  0.00    +0.061 S 
ATOM     12  O   UNL     1       7.508   9.735  -0.335  0.00  0.00    -0.153 OA
ATOM     13  O   UNL     1       8.739   7.572  -0.241  0.00  0.00    -0.153 OA
BRANCH  11  14
ATOM     14  N   UNL     1       8.058   8.524  -2.417  0.00  0.00    -0.177 NA
ATOM     15  C   UNL     1       8.820   7.548  -3.210  0.00  0.00    +0.109 C 
ATOM     16  C   UNL     1       8.883   8.082  -4.656  0.00  0.00    +0.018 C 
ATOM     17  C   UNL     1       8.647   9.604  -4.474  0.00  0.00    +0.018 C 
ATOM     18  C   UNL     1       7.632   9.623  -3.303  0.00  0.00    +0.109 C 
ENDBRANCH  11  14
ENDBRANCH   5  11
ENDBRANCH   1   2
BRANCH   1  19
ATOM     19  C   UNL     1       2.699   4.107  -0.127  0.00  0.00    +0.258 C 
BRANCH  19  20
ATOM     20  C   UNL     1       1.285   3.539   0.009  0.00  0.00    +0.135 C 
BRANCH  20  21
ATOM     21  O   UNL     1       0.708   3.985   1.238  0.00  0.00    -0.390 OA
ATOM     22  H   UNL     1       1.201   3.715   2.025  0.00  0.00    +0.210 HD
ENDBRANCH  20  21
BRANCH  20  23
ATOM     23  C   UNL     1       1.346   2.010   0.000  0.00  0.00    -0.047 C 
BRANCH  23  24
ATOM     24  N   UNL     1      -0.027   1.471   0.010  0.00  0.00    +0.385 N 
ATOM     25  H   UNL     1      -0.512   1.795   0.855  0.00  0.00    -0.085 HD
ATOM     26  H   UNL     1      -0.528   1.804  -0.822  0.00  0.00    -0.085 HD
BRANCH  24  28
ATOM     27  C   UNL     1       0.121  -0.505  -1.439  0.00  0.00    -0.009 C 
ATOM     28  C   UNL     1       0.002  -0.004   0.002  0.00  0.00    -0.044 C 
BRANCH  28  29
ATOM     29  C   UNL     1      -1.273  -0.527   0.612  0.00  0.00    -0.061 A 
ATOM     30  C   UNL     1      -2.476   0.096   0.338  0.00  0.00    +0.005 A 
ATOM     31  C   UNL     1      -3.647  -0.385   0.893  0.00  0.00    +0.038 A 
ATOM     32  C   UNL     1      -3.612  -1.486   1.732  0.00  0.00    +0.123 A 
ATOM     33  C   UNL     1      -2.406  -2.107   2.010  0.00  0.00    +0.038 A 
ATOM     34  C   UNL     1      -1.238  -1.627   1.449  0.00  0.00    +0.005 A 
ATOM     35  F   UNL     1      -4.755  -1.955   2.279  0.00  0.00    -0.205 F 
ENDBRANCH  28  29
ENDBRANCH  24  28
ENDBRANCH  23  24
ENDBRANCH  20  23
ENDBRANCH  19  20
ENDBRANCH   1  19
TORSDOF 11
