REMARK  Name = ZINC12655600
REMARK  10 active torsions:
REMARK  status: ('A' for Active; 'I' for Inactive)
REMARK    1  A    between atoms: C_1  and  C_2
REMARK    2  A    between atoms: C_2  and  C_8
REMARK    3  A    between atoms: N_3  and  O_4
REMARK    4  A    between atoms: O_4  and  C_5
REMARK    5  A    between atoms: C_5  and  C_7
REMARK    6  A    between atoms: C_15  and  C_41
REMARK    7  A    between atoms: C_25  and  C_40
REMARK    8  A    between atoms: C_28  and  O_31
REMARK    9  A    between atoms: O_31  and  C_32
REMARK   10  A    between atoms: C_32  and  C_34
REMARK                            x       y       z     vdW  Elec       q    Type
REMARK                         _______ _______ _______ _____ _____    ______ ____
ROOT
ATOM      1  C   UNL     1      -1.636   2.841  -0.683  0.00  0.00    +0.142 C 
ATOM      2  C   UNL     1      -0.812   1.604  -1.112  0.00  0.00    +0.158 C 
ATOM      3  O   UNL     1      -2.241   1.593  -1.012  0.00  0.00    -0.358 OA
ATOM      4  C   UNL     1      -0.018   1.143   0.144  0.00  0.00    +0.039 C 
ATOM      5  C   UNL     1      -0.890   1.702   1.281  0.00  0.00    +0.004 C 
ATOM      6  C   UNL     1      -1.203   3.120   0.770  0.00  0.00    +0.008 C 
ATOM      7  C   UNL     1      -2.265   3.774   1.622  0.00  0.00    +0.010 C 
ATOM      8  C   UNL     1      -2.221   3.191   3.049  0.00  0.00    +0.005 C 
ATOM      9  C   UNL     1      -0.777   2.899   3.433  0.00  0.00    +0.003 C 
ATOM     10  C   UNL     1      -0.243   1.704   2.655  0.00  0.00    +0.000 C 
ATOM     11  C   UNL     1      -0.645   0.388   3.328  0.00  0.00    +0.031 C 
ATOM     12  C   UNL     1      -0.458   0.418   4.808  0.00  0.00    -0.027 C 
ATOM     13  C   UNL     1      -0.418   1.506   5.514  0.00  0.00    -0.064 C 
ATOM     14  C   UNL     1      -0.519   2.874   4.917  0.00  0.00    -0.008 C 
ATOM     15  C   UNL     1      -1.560   3.704   5.670  0.00  0.00    +0.015 C 
ATOM     16  C   UNL     1      -1.302   3.663   7.176  0.00  0.00    +0.046 C 
ATOM     17  C   UNL     1      -1.373   2.224   7.683  0.00  0.00    +0.181 C 
ATOM     18  C   UNL     1      -0.274   1.387   7.022  0.00  0.00    +0.075 C 
ATOM     19  C   UNL     1       0.847   3.557   5.120  0.00  0.00    +0.016 C 
ATOM     20  C   UNL     1       0.047   4.004   0.689  0.00  0.00    +0.015 C 
ENDROOT
BRANCH   1  22
ATOM     21  C   UNL     1      -2.731   5.154  -1.176  0.00  0.00    +0.067 C 
ATOM     22  C   UNL     1      -1.815   4.029  -1.585  0.00  0.00    +0.090 C 
ATOM     23  N   UNL     1      -1.191   4.086  -2.701  0.00  0.00    -0.081 NA
BRANCH  23  24
ATOM     24  O   UNL     1      -0.531   3.134  -3.078  0.00  0.00    -0.318 OA
BRANCH  24  25
ATOM     25  C   UNL     1       0.015   3.218  -4.301  0.00  0.00    +0.333 C 
ATOM     26  O   UNL     1      -0.160   4.206  -4.974  0.00  0.00    -0.249 OA
ATOM     27  C   UNL     1       0.845   2.080  -4.835  0.00  0.00    +0.138 C 
ENDBRANCH  24  25
ENDBRANCH  23  24
ENDBRANCH   1  22
BRANCH  17  28
ATOM     28  O   UNL     1      -1.190   2.207   9.124  0.00  0.00    -0.458 OA
BRANCH  28  29
ATOM     29  C   UNL     1      -1.803   1.220   9.807  0.00  0.00    +0.339 C 
ATOM     30  O   UNL     1      -2.472   0.397   9.215  0.00  0.00    -0.245 OA
BRANCH  29  31
ATOM     31  C   UNL     1      -1.661   1.140  11.275  0.00  0.00    +0.059 A 
ATOM     32  C   UNL     1      -0.888   2.082  11.957  0.00  0.00    +0.015 A 
ATOM     33  C   UNL     1      -0.764   2.004  13.329  0.00  0.00    +0.001 A 
ATOM     34  C   UNL     1      -1.396   0.990  14.028  0.00  0.00    +0.000 A 
ATOM     35  C   UNL     1      -2.159   0.051  13.357  0.00  0.00    +0.001 A 
ATOM     36  C   UNL     1      -2.295   0.119  11.986  0.00  0.00    +0.015 A 
ENDBRANCH  29  31
ENDBRANCH  28  29
ENDBRANCH  17  28
TORSDOF 6
