REMARK  Name = ZINC20929706
REMARK  8 active torsions:
REMARK  status: ('A' for Active; 'I' for Inactive)
REMARK    1  A    between atoms: C_1  and  C_2
REMARK    2  A    between atoms: C_2  and  S_3
REMARK    3  A    between atoms: S_3  and  N_6
REMARK    4  A    between atoms: N_10  and  C_24
REMARK    5  A    between atoms: C_11  and  C_13
REMARK    6  A    between atoms: C_11  and  C_14
REMARK    7  A    between atoms: N_16  and  C_17
REMARK    8  A    between atoms: C_17  and  C_18
REMARK                            x       y       z     vdW  Elec       q    Type
REMARK                         _______ _______ _______ _____ _____    ______ ____
ROOT
ATOM      1  N   UNL     1       0.950  -1.913  -1.370  0.00  0.00    -0.170 NA
ATOM      2  C   UNL     1       2.198  -2.077  -0.610  0.00  0.00    +0.205 C 
ATOM      3  C   UNL     1       2.019  -1.474   0.757  0.00  0.00    +0.236 C 
ATOM      4  O   UNL     1       2.849  -1.714   1.609  0.00  0.00    -0.274 OA
ATOM      5  N   UNL     1       0.990  -0.688   1.075  0.00  0.00    -0.255 N 
ATOM      6  C   UNL     1      -0.126  -0.386   0.188  0.00  0.00    +0.129 C 
ATOM      7  C   UNL     1       0.267  -0.612  -1.273  0.00  0.00    +0.145 C 
ATOM      8  C   UNL     1      -0.539   1.074   0.378  0.00  0.00    +0.043 C 
ENDROOT
BRANCH   5   9
ATOM      9  C   UNL     1       0.981  -0.112   2.351  0.00  0.00    +0.038 A 
ATOM     10  C   UNL     1       1.169   1.256   2.497  0.00  0.00    +0.025 A 
ATOM     11  C   UNL     1       1.154   1.823   3.756  0.00  0.00    +0.022 A 
ATOM     12  C   UNL     1       0.964   1.028   4.872  0.00  0.00    +0.041 A 
ATOM     13  C   UNL     1       0.782  -0.337   4.730  0.00  0.00    +0.022 A 
ATOM     14  C   UNL     1       0.790  -0.908   3.472  0.00  0.00    +0.025 A 
ATOM     15 CL   UNL     1       0.955   1.742   6.455  0.00  0.00    -0.084 Cl
ENDBRANCH   5   9
BRANCH   6  16
ATOM     16  C   UNL     1      -1.289  -1.280   0.532  0.00  0.00    +0.238 C 
ATOM     17  O   UNL     1      -1.954  -1.777  -0.352  0.00  0.00    -0.273 OA
ATOM     18  N   UNL     1      -1.590  -1.527   1.822  0.00  0.00    -0.309 N 
ATOM     19  H   UNL     1      -0.987  -1.077   2.624  0.00  0.00    +0.149 HD
BRANCH  18  20
ATOM     20  C   UNL     1      -2.721  -2.397   2.157  0.00  0.00    +0.139 C 
BRANCH  20  21
ATOM     21  C   UNL     1      -2.843  -2.509   3.655  0.00  0.00    -0.030 A 
ATOM     22  C   UNL     1      -2.176  -3.515   4.329  0.00  0.00    +0.005 A 
ATOM     23  C   UNL     1      -2.284  -3.615   5.703  0.00  0.00    +0.000 A 
ATOM     24  C   UNL     1      -3.066  -2.715   6.403  0.00  0.00    +0.000 A 
ATOM     25  C   UNL     1      -3.737  -1.712   5.728  0.00  0.00    +0.000 A 
ATOM     26  C   UNL     1      -3.626  -1.609   4.354  0.00  0.00    +0.005 A 
ENDBRANCH  20  21
ENDBRANCH  18  20
ENDBRANCH   6  16
BRANCH   1  27
ATOM     27  S   UNL     1       0.339  -3.140  -2.298  0.00  0.00    +0.032 S 
ATOM     28  O   UNL     1       0.804  -4.331  -1.677  0.00  0.00    -0.158 OA
ATOM     29  O   UNL     1      -1.053  -2.868  -2.389  0.00  0.00    -0.158 OA
BRANCH  27  31
ATOM     30  C   UNL     1       0.540  -3.951  -4.903  0.00  0.00    +0.029 C 
ATOM     31  C   UNL     1       1.124  -2.934  -3.921  0.00  0.00    +0.182 C 
ENDBRANCH  27  31
ENDBRANCH   1  27
TORSDOF 6
