REMARK  Name = ZINC36571146
REMARK  19 active torsions:
REMARK  status: ('A' for Active; 'I' for Inactive)
REMARK    1  A    between atoms: C_1  and  C_2
REMARK    2  A    between atoms: C_2  and  C_3
REMARK    3  A    between atoms: C_3  and  N_4
REMARK    4  A    between atoms: N_4  and  C_5
REMARK    5  A    between atoms: C_5  and  C_7
REMARK    6  A    between atoms: C_5  and  C_15
REMARK    7  A    between atoms: C_10  and  O_13
REMARK    8  A    between atoms: O_13  and  C_14
REMARK    9  A    between atoms: N_17  and  C_18
REMARK   10  A    between atoms: C_18  and  C_19
REMARK   11  A    between atoms: C_18  and  C_20
REMARK   12  A    between atoms: C_18  and  C_21
REMARK   13  A    between atoms: C_21  and  C_22
REMARK   14  A    between atoms: C_22  and  C_23
REMARK   15  A    between atoms: C_22  and  C_24
REMARK   16  A    between atoms: C_22  and  C_25
REMARK   17  A    between atoms: C_26  and  C_28
REMARK   18  A    between atoms: C_29  and  O_35
REMARK   19  A    between atoms: C_33  and  O_34
REMARK                            x       y       z     vdW  Elec       q    Type
REMARK                         _______ _______ _______ _____ _____    ______ ____
ROOT
ATOM      1  C   UNL     1       3.322  -3.815   0.949  0.00  0.00    +0.192 C 
ENDROOT
BRANCH   1   2
ATOM      2  C   UNL     1       3.387  -2.931  -0.269  0.00  0.00    -0.018 A 
ATOM      3  C   UNL     1       3.562  -1.567  -0.123  0.00  0.00    +0.009 A 
ATOM      4  C   UNL     1       3.622  -0.754  -1.239  0.00  0.00    +0.046 A 
ATOM      5  C   UNL     1       3.506  -1.307  -2.506  0.00  0.00    +0.120 A 
ATOM      6  C   UNL     1       3.330  -2.676  -2.649  0.00  0.00    +0.046 A 
ATOM      7  C   UNL     1       3.277  -3.485  -1.531  0.00  0.00    +0.009 A 
BRANCH   5   8
ATOM      8  O   UNL     1       3.563  -0.509  -3.604  0.00  0.00    -0.495 OA
ATOM      9  C   UNL     1       3.436  -1.147  -4.877  0.00  0.00    +0.277 C 
ENDBRANCH   5   8
ENDBRANCH   1   2
BRANCH   1  10
ATOM     10  C   UNL     1       4.681  -3.876   1.599  0.00  0.00    +0.239 C 
ATOM     11  O   UNL     1       5.015  -3.016   2.386  0.00  0.00    -0.273 OA
ATOM     12  N   UNL     1       5.524  -4.885   1.305  0.00  0.00    -0.308 N 
ATOM     13  H   UNL     1       5.257  -5.573   0.676  0.00  0.00    +0.149 HD
BRANCH  12  14
ATOM     14  C   UNL     1       6.845  -4.944   1.937  0.00  0.00    +0.030 C 
ATOM     15  C   UNL     1       7.707  -3.789   1.423  0.00  0.00    +0.031 C 
ATOM     16  C   UNL     1       6.689  -4.828   3.455  0.00  0.00    +0.031 C 
BRANCH  14  17
ATOM     17  C   UNL     1       7.516  -6.274   1.593  0.00  0.00    +0.031 C 
BRANCH  17  18
ATOM     18  C   UNL     1       6.505  -7.412   1.752  0.00  0.00    -0.036 C 
ATOM     19  C   UNL     1       5.579  -7.445   0.534  0.00  0.00    +0.010 C 
ATOM     20  C   UNL     1       7.249  -8.744   1.863  0.00  0.00    +0.010 C 
ATOM     21  C   UNL     1       5.675  -7.184   3.017  0.00  0.00    +0.010 C 
ENDBRANCH  17  18
ENDBRANCH  14  17
ENDBRANCH  12  14
ENDBRANCH   1  10
BRANCH   1  22
ATOM     22  N   UNL     1       2.350  -3.268   1.899  0.00  0.00    -0.282 N 
ATOM     23  C   UNL     1       1.045  -3.212   1.570  0.00  0.00    +0.255 C 
ATOM     24  O   UNL     1       0.242  -2.729   2.346  0.00  0.00    -0.270 OA
BRANCH  23  25
ATOM     25  C   UNL     1       0.590  -3.734   0.270  0.00  0.00    +0.119 A 
ATOM     26  C   UNL     1       0.577  -5.116   0.030  0.00  0.00    +0.133 A 
ATOM     27  C   UNL     1       0.147  -5.597  -1.196  0.00  0.00    +0.046 A 
ATOM     28  C   UNL     1      -0.269  -4.720  -2.180  0.00  0.00    +0.007 A 
ATOM     29  C   UNL     1      -0.260  -3.356  -1.954  0.00  0.00    +0.046 A 
ATOM     30  C   UNL     1       0.161  -2.854  -0.734  0.00  0.00    +0.133 A 
BRANCH  30  31
ATOM     31  O   UNL     1       0.163  -1.516  -0.512  0.00  0.00    -0.506 OA
ATOM     32  H   UNL     1       1.010  -1.088  -0.697  0.00  0.00    +0.292 HD
ENDBRANCH  30  31
BRANCH  26  33
ATOM     33  O   UNL     1       0.985  -5.978   0.995  0.00  0.00    -0.506 OA
ATOM     34  H   UNL     1       0.277  -6.274   1.583  0.00  0.00    +0.292 HD
ENDBRANCH  26  33
ENDBRANCH  23  25
BRANCH  22  35
ATOM     35  C   UNL     1       2.798  -2.782   3.207  0.00  0.00    +0.109 C 
BRANCH  35  37
ATOM     36  C   UNL     1       3.666  -0.798   4.452  0.00  0.00    +0.005 C 
ATOM     37  C   UNL     1       3.316  -1.349   3.068  0.00  0.00    +0.016 C 
ENDBRANCH  35  37
ENDBRANCH  22  35
ENDBRANCH   1  22
TORSDOF 12
