REMARK  Name = ZINC09520512
REMARK  7 active torsions:
REMARK  status: ('A' for Active; 'I' for Inactive)
REMARK    1  A    between atoms: C_1  and  O_2
REMARK    2  A    between atoms: O_2  and  C_3
REMARK    3  A    between atoms: C_6  and  C_9
REMARK    4  A    between atoms: C_12  and  C_34
REMARK    5  A    between atoms: C_15  and  C_17
REMARK    6  A    between atoms: C_17  and  S_18
REMARK    7  A    between atoms: S_18  and  C_19
REMARK                            x       y       z     vdW  Elec       q    Type
REMARK                         _______ _______ _______ _____ _____    ______ ____
ROOT
ATOM      1  C   UNL     1      -2.553   3.867   0.048  0.00  0.00    +0.137 C 
ATOM      2  C   UNL     1      -3.187   3.811   1.452  0.00  0.00    +0.087 C 
ATOM      3  C   UNL     1      -4.494   3.083   1.234  0.00  0.00    +0.075 C 
ATOM      4  N   UNL     1      -4.612   2.775  -0.015  0.00  0.00    -0.180 NA
ATOM      5  N   UNL     1      -3.539   3.183  -0.804  0.00  0.00    -0.184 N 
ATOM      6  C   UNL     1      -3.422   2.983  -2.132  0.00  0.00    +0.246 C 
ATOM      7  O   UNL     1      -2.439   3.382  -2.721  0.00  0.00    -0.273 OA
ENDROOT
BRANCH   1  11
ATOM      8  C   UNL     1       1.179   1.786   0.000  0.00  0.00    +0.120 A 
ATOM      9  C   UNL     1      -0.013   1.076   0.008  0.00  0.00    +0.046 A 
ATOM     10  C   UNL     1      -1.218   1.751   0.017  0.00  0.00    +0.009 A 
ATOM     11  C   UNL     1      -1.237   3.133   0.031  0.00  0.00    -0.024 A 
ATOM     12  C   UNL     1      -0.051   3.844   0.023  0.00  0.00    +0.009 A 
ATOM     13  C   UNL     1       1.157   3.174   0.008  0.00  0.00    +0.046 A 
BRANCH   8  15
ATOM     14  C   UNL     1       3.553   1.921  -0.022  0.00  0.00    +0.277 C 
ATOM     15  O   UNL     1       2.366   1.125  -0.015  0.00  0.00    -0.495 OA
ENDBRANCH   8  15
ENDBRANCH   1  11
BRANCH   3  16
ATOM     16  C   UNL     1      -5.476   2.774   2.278  0.00  0.00    +0.035 A 
ATOM     17  C   UNL     1      -6.691   2.120   2.168  0.00  0.00    +0.017 A 
ATOM     18  C   UNL     1      -7.444   1.943   3.305  0.00  0.00    +0.008 A 
ATOM     19  C   UNL     1      -6.981   2.421   4.490  0.00  0.00    +0.046 A 
ATOM     20  S   UNL     1      -5.419   3.148   4.023  0.00  0.00    -0.095 S 
ENDBRANCH   3  16
BRANCH   6  21
ATOM     21  C   UNL     1      -4.511   2.264  -2.884  0.00  0.00    +0.175 C 
BRANCH  21  22
ATOM     22  S   UNL     1      -4.063   2.154  -4.639  0.00  0.00    -0.076 S 
BRANCH  22  23
ATOM     23  C   UNL     1      -5.418   1.299  -5.372  0.00  0.00    +0.198 A 
ATOM     24  N   UNL     1      -6.485   0.863  -4.746  0.00  0.00    -0.120 NA
ATOM     25  N   UNL     1      -7.318   0.243  -5.686  0.00  0.00    -0.109 NA
ATOM     26  C   UNL     1      -6.735   0.319  -6.858  0.00  0.00    +0.237 A 
ATOM     27  N   UNL     1      -5.546   0.978  -6.697  0.00  0.00    -0.260 N 
ATOM     28  C   UNL     1      -4.712   1.209  -7.777  0.00  0.00    +0.037 A 
ATOM     29  C   UNL     1      -5.069   0.785  -8.995  0.00  0.00    +0.037 A 
ATOM     30  C   UNL     1      -6.310   0.106  -9.168  0.00  0.00    +0.256 A 
ATOM     31  O   UNL     1      -6.642  -0.276 -10.276  0.00  0.00    -0.267 OA
ATOM     32  N   UNL     1      -7.114  -0.123  -8.114  0.00  0.00    -0.291 N 
ATOM     33  H   UNL     1      -7.958  -0.585  -8.235  0.00  0.00    +0.172 HD
ATOM     34  C   UNL     1      -4.214   0.988 -10.218  0.00  0.00    +0.042 C 
ATOM     35  C   UNL     1      -3.171   2.076  -9.973  0.00  0.00    +0.005 C 
ATOM     36  C   UNL     1      -2.443   1.755  -8.662  0.00  0.00    +0.006 C 
ATOM     37  C   UNL     1      -3.427   1.950  -7.511  0.00  0.00    +0.054 C 
ENDBRANCH  22  23
ENDBRANCH  21  22
ENDBRANCH   6  21
TORSDOF 6
