REMARK  Name = ZINC18061339
REMARK  8 active torsions:
REMARK  status: ('A' for Active; 'I' for Inactive)
REMARK    1  A    between atoms: C_1  and  C_2
REMARK    2  A    between atoms: C_2  and  O_3
REMARK    3  A    between atoms: O_3  and  C_4
REMARK    4  A    between atoms: C_6  and  C_11
REMARK    5  A    between atoms: C_9  and  O_10
REMARK    6  A    between atoms: N_19  and  C_22
REMARK    7  A    between atoms: C_26  and  C_28
REMARK    8  A    between atoms: N_30  and  C_31
REMARK                            x       y       z     vdW  Elec       q    Type
REMARK                         _______ _______ _______ _____ _____    ______ ____
ROOT
ATOM      1  C   UNL     1      -0.219  -4.992  -0.483  0.00  0.00    +0.157 C 
ATOM      2  C   UNL     1       0.879  -5.516  -1.437  0.00  0.00    +0.145 C 
ATOM      3  C   UNL     1       1.227  -6.913  -0.855  0.00  0.00    +0.249 C 
ATOM      4  C   UNL     1       2.667  -6.758  -0.418  0.00  0.00    +0.259 C 
ATOM      5  O   UNL     1       3.348  -7.631   0.075  0.00  0.00    -0.272 OA
ATOM      6  N   UNL     1       3.073  -5.506  -0.663  0.00  0.00    -0.208 N 
ATOM      7  C   UNL     1       2.141  -4.709  -1.239  0.00  0.00    +0.235 C 
ATOM      8  O   UNL     1       2.284  -3.545  -1.546  0.00  0.00    -0.274 OA
ATOM      9  O   UNL     1       0.388  -7.070   0.305  0.00  0.00    -0.257 OA
ATOM     10  N   UNL     1      -0.756  -6.237   0.119  0.00  0.00    -0.244 N 
ENDROOT
BRANCH   6  11
ATOM     11  C   UNL     1       4.364  -5.054  -0.354  0.00  0.00    +0.044 A 
ATOM     12  C   UNL     1       5.241  -4.707  -1.372  0.00  0.00    +0.024 A 
ATOM     13  C   UNL     1       6.512  -4.261  -1.064  0.00  0.00    +0.002 A 
ATOM     14  C   UNL     1       6.910  -4.160   0.256  0.00  0.00    +0.003 A 
ATOM     15  C   UNL     1       6.038  -4.505   1.272  0.00  0.00    -0.049 A 
ATOM     16  C   UNL     1       4.764  -4.946   0.971  0.00  0.00    +0.027 A 
ATOM     17  C   UNL     1       6.476  -4.394   2.710  0.00  0.00    +0.044 C 
ENDBRANCH   6  11
BRANCH   1  20
ATOM     18  C   UNL     1       0.797  -1.905   1.444  0.00  0.00    +0.162 A 
ATOM     19  C   UNL     1       0.251  -2.727   0.471  0.00  0.00    +0.055 A 
ATOM     20  C   UNL     1       0.375  -4.100   0.577  0.00  0.00    -0.018 A 
ATOM     21  C   UNL     1       1.042  -4.656   1.652  0.00  0.00    +0.009 A 
ATOM     22  C   UNL     1       1.588  -3.842   2.627  0.00  0.00    +0.049 A 
ATOM     23  C   UNL     1       1.474  -2.465   2.523  0.00  0.00    +0.158 A 
BRANCH  23  24
ATOM     24  O   UNL     1       2.016  -1.663   3.478  0.00  0.00    -0.503 OA
ATOM     25  H   UNL     1       1.417  -1.463   4.211  0.00  0.00    +0.292 HD
ENDBRANCH  23  24
BRANCH  18  26
ATOM     26  O   UNL     1       0.677  -0.555   1.341  0.00  0.00    -0.489 OA
BRANCH  26  28
ATOM     27  C   UNL     1      -0.062   1.478   0.262  0.00  0.00    +0.048 C 
ATOM     28  C   UNL     1      -0.030  -0.051   0.206  0.00  0.00    +0.226 C 
ENDBRANCH  26  28
ENDBRANCH  18  26
ENDBRANCH   1  20
BRANCH  10  29
ATOM     29  C   UNL     1      -2.087  -6.534   0.424  0.00  0.00    +0.065 A 
ATOM     30  C   UNL     1      -3.086  -5.606   0.157  0.00  0.00    +0.028 A 
ATOM     31  C   UNL     1      -4.400  -5.903   0.459  0.00  0.00    +0.002 A 
ATOM     32  C   UNL     1      -4.722  -7.122   1.027  0.00  0.00    +0.000 A 
ATOM     33  C   UNL     1      -3.730  -8.048   1.294  0.00  0.00    +0.002 A 
ATOM     34  C   UNL     1      -2.414  -7.760   0.989  0.00  0.00    +0.028 A 
ENDBRANCH  10  29
TORSDOF 6
