REMARK  Name = ZINC01516880
REMARK  12 active torsions:
REMARK  status: ('A' for Active; 'I' for Inactive)
REMARK    1  A    between atoms: C_1  and  C_2
REMARK    2  A    between atoms: C_3  and  C_24
REMARK    3  A    between atoms: C_14  and  C_18
REMARK    4  A    between atoms: C_15  and  N_17
REMARK    5  A    between atoms: C_18  and  O_20
REMARK    6  A    between atoms: O_20  and  C_21
REMARK    7  A    between atoms: C_21  and  C_22
REMARK    8  A    between atoms: C_21  and  C_23
REMARK    9  A    between atoms: C_24  and  O_26
REMARK   10  A    between atoms: O_26  and  C_27
REMARK   11  A    between atoms: C_27  and  C_28
REMARK   12  A    between atoms: C_27  and  C_29
REMARK                            x       y       z     vdW  Elec       q    Type
REMARK                         _______ _______ _______ _____ _____    ______ ____
ROOT
ATOM      1  C   UNL     1      -2.102  -1.824  -2.533  0.00  0.00    +0.087 C 
ATOM      2  C   UNL     1      -1.474  -1.465  -1.210  0.00  0.00    +0.116 C 
ATOM      3  C   UNL     1      -0.598  -0.452  -1.164  0.00  0.00    +0.098 C 
ATOM      4  C   UNL     1       0.051  -0.055   0.131  0.00  0.00    +0.145 C 
ATOM      5  C   UNL     1       1.497  -0.483   0.151  0.00  0.00    -0.002 A 
ATOM      6  C   UNL     1       2.116  -1.710   0.073  0.00  0.00    +0.007 A 
ATOM      7  C   UNL     1       3.497  -1.792   0.120  0.00  0.00    +0.000 A 
ATOM      8  C   UNL     1       4.251  -0.640   0.246  0.00  0.00    +0.002 A 
ATOM      9  C   UNL     1       3.634   0.592   0.325  0.00  0.00    +0.023 A 
ATOM     10  C   UNL     1       2.244   0.682   0.277  0.00  0.00    +0.038 A 
ATOM     11  N   UNL     1       1.400   1.793   0.335  0.00  0.00    -0.284 N 
ATOM     12  C   UNL     1       0.102   1.449   0.255  0.00  0.00    +0.237 C 
ATOM     13  O   UNL     1      -0.847   2.204   0.273  0.00  0.00    -0.274 OA
ATOM     14  C   UNL     1      -0.690  -0.650   1.294  0.00  0.00    +0.117 C 
ATOM     15  C   UNL     1      -1.573  -1.665   1.100  0.00  0.00    +0.195 C 
ATOM     16  O   UNL     1      -1.811  -2.171  -0.121  0.00  0.00    -0.446 OA
ATOM     17  H   UNL     1       1.713   2.706   0.424  0.00  0.00    +0.155 HD
ENDROOT
BRANCH  15  18
ATOM     18  N   UNL     1      -2.238  -2.185   2.178  0.00  0.00    -0.329 N 
ATOM     19  H   UNL     1      -2.393  -3.141   2.237  0.00  0.00    +0.145 HD
ATOM     20  H   UNL     1      -2.554  -1.598   2.883  0.00  0.00    +0.145 HD
ENDBRANCH  15  18
BRANCH  14  21
ATOM     21  C   UNL     1      -0.468  -0.155   2.588  0.00  0.00    +0.342 C 
ATOM     22  O   UNL     1      -1.122  -0.581   3.523  0.00  0.00    -0.245 OA
BRANCH  21  23
ATOM     23  O   UNL     1       0.470   0.794   2.797  0.00  0.00    -0.458 OA
BRANCH  23  24
ATOM     24  C   UNL     1       0.641   1.252   4.140  0.00  0.00    +0.171 C 
ATOM     25  C   UNL     1       1.691   0.389   4.843  0.00  0.00    +0.052 C 
ATOM     26  C   UNL     1       1.106   2.709   4.126  0.00  0.00    +0.052 C 
ENDBRANCH  23  24
ENDBRANCH  21  23
ENDBRANCH  14  21
BRANCH   3  27
ATOM     27  C   UNL     1      -0.280   0.253  -2.351  0.00  0.00    +0.340 C 
ATOM     28  O   UNL     1       0.767   0.030  -2.929  0.00  0.00    -0.245 OA
BRANCH  27  29
ATOM     29  O   UNL     1      -1.138   1.172  -2.840  0.00  0.00    -0.459 OA
BRANCH  29  30
ATOM     30  C   UNL     1      -0.753   1.845  -4.040  0.00  0.00    +0.171 C 
ATOM     31  C   UNL     1      -1.265   1.062  -5.251  0.00  0.00    +0.052 C 
ATOM     32  C   UNL     1      -1.354   3.252  -4.051  0.00  0.00    +0.052 C 
ENDBRANCH  29  30
ENDBRANCH  27  29
ENDBRANCH   3  27
TORSDOF 7
