REMARK  Name = ZINC09379910
REMARK  11 active torsions:
REMARK  status: ('A' for Active; 'I' for Inactive)
REMARK    1  A    between atoms: C_1  and  C_2
REMARK    2  A    between atoms: C_4  and  C_12
REMARK    3  A    between atoms: C_7  and  O_8
REMARK    4  A    between atoms: O_8  and  C_9
REMARK    5  A    between atoms: C_9  and  C_10
REMARK    6  A    between atoms: C_13  and  C_23
REMARK    7  A    between atoms: N_15  and  C_17
REMARK    8  A    between atoms: C_25  and  C_32
REMARK    9  A    between atoms: C_26  and  C_31
REMARK   10  A    between atoms: C_32  and  O_34
REMARK   11  A    between atoms: O_34  and  C_35
REMARK                            x       y       z     vdW  Elec       q    Type
REMARK                         _______ _______ _______ _____ _____    ______ ____
ROOT
ATOM      1  C   UNL     1       0.274  -2.629  -1.856  0.00  0.00    +0.098 A 
ATOM      2  C   UNL     1       0.776  -3.874  -2.284  0.00  0.00    +0.023 A 
ATOM      3  C   UNL     1       0.146  -4.203  -3.433  0.00  0.00    +0.121 A 
ATOM      4  N   UNL     1      -0.727  -3.206  -3.729  0.00  0.00    -0.239 N 
ATOM      5  N   UNL     1      -0.633  -2.234  -2.724  0.00  0.00    -0.166 NA
ENDROOT
BRANCH   2   6
ATOM      6  C   UNL     1       1.831  -4.693  -1.585  0.00  0.00    +0.147 C 
ATOM      7  C   UNL     1       3.154  -4.442  -2.279  0.00  0.00    +0.078 C 
ATOM      8  C   UNL     1       3.805  -5.507  -2.795  0.00  0.00    +0.021 C 
ATOM      9  N   UNL     1       3.287  -6.766  -2.695  0.00  0.00    -0.273 N 
ATOM     10  C   UNL     1       2.123  -7.045  -2.093  0.00  0.00    +0.304 C 
ATOM     11  O   UNL     1       1.744  -8.199  -2.053  0.00  0.00    -0.252 OA
ATOM     12  N   UNL     1       1.360  -6.088  -1.531  0.00  0.00    -0.288 N 
ATOM     13  C   UNL     1       5.124  -5.302  -3.494  0.00  0.00    +0.061 C 
ATOM     14  H   UNL     1       3.789  -7.500  -3.081  0.00  0.00    +0.156 HD
ATOM     15  H   UNL     1       0.520  -6.312  -1.100  0.00  0.00    +0.151 HD
BRANCH   7  16
ATOM     16  C   UNL     1       3.689  -3.137  -2.383  0.00  0.00    +0.338 C 
ATOM     17  O   UNL     1       4.803  -2.971  -2.844  0.00  0.00    -0.245 OA
BRANCH  16  18
ATOM     18  O   UNL     1       2.965  -2.076  -1.970  0.00  0.00    -0.465 OA
ATOM     19  C   UNL     1       3.521  -0.780  -2.203  0.00  0.00    +0.280 C 
ENDBRANCH  16  18
ENDBRANCH   7  16
ENDBRANCH   2   6
BRANCH   1  23
ATOM     20  C   UNL     1       1.449   1.661   0.410  0.00  0.00    +0.047 C 
ATOM     21  C   UNL     1       1.256   0.167   0.457  0.00  0.00    -0.008 A 
ATOM     22  C   UNL     1       0.869  -0.513  -0.679  0.00  0.00    +0.017 A 
ATOM     23  C   UNL     1       0.691  -1.895  -0.636  0.00  0.00    +0.003 A 
ATOM     24  C   UNL     1       0.904  -2.585   0.556  0.00  0.00    +0.013 A 
ATOM     25  C   UNL     1       1.291  -1.900   1.688  0.00  0.00    +0.046 A 
ATOM     26  C   UNL     1       1.473  -0.524   1.641  0.00  0.00    +0.124 A 
BRANCH  26  27
ATOM     27  O   UNL     1       1.859   0.148   2.757  0.00  0.00    -0.488 OA
BRANCH  27  28
ATOM     28  C   UNL     1       2.065  -0.625   3.941  0.00  0.00    +0.256 C 
BRANCH  28  29
ATOM     29  C   UNL     1       2.486   0.283   5.067  0.00  0.00    +0.006 C 
ATOM     30  C   UNL     1       1.944   0.153   6.252  0.00  0.00    +0.007 C 
ENDBRANCH  28  29
ENDBRANCH  27  28
ENDBRANCH  26  27
ENDBRANCH   1  23
BRANCH   4  31
ATOM     31  C   UNL     1      -1.577  -3.159  -4.842  0.00  0.00    +0.065 A 
ATOM     32  C   UNL     1      -1.577  -4.200  -5.761  0.00  0.00    +0.028 A 
ATOM     33  C   UNL     1      -2.416  -4.151  -6.857  0.00  0.00    +0.002 A 
ATOM     34  C   UNL     1      -3.255  -3.067  -7.040  0.00  0.00    +0.000 A 
ATOM     35  C   UNL     1      -3.256  -2.029  -6.127  0.00  0.00    +0.002 A 
ATOM     36  C   UNL     1      -2.425  -2.075  -5.025  0.00  0.00    +0.028 A 
ENDBRANCH   4  31
TORSDOF 8
