REMARK  Name = ZINC01592820
REMARK  6 active torsions:
REMARK  status: ('A' for Active; 'I' for Inactive)
REMARK    1  A    between atoms: C_1  and  C_2
REMARK    2  A    between atoms: C_2  and  O_25
REMARK    3  A    between atoms: C_4  and  C_16
REMARK    4  A    between atoms: C_19  and  N_22
REMARK    5  A    between atoms: N_22  and  C_23
REMARK    6  A    between atoms: N_22  and  C_24
REMARK                            x       y       z     vdW  Elec       q    Type
REMARK                         _______ _______ _______ _____ _____    ______ ____
ROOT
ATOM      1  C   UNL     1       0.349  -6.407  -0.061  0.00  0.00    +0.089 C 
ATOM      2  C   UNL     1       0.013  -4.982   0.385  0.00  0.00    +0.208 C 
ATOM      3  C   UNL     1      -1.443  -4.658   0.025  0.00  0.00    +0.091 C 
ATOM      4  C   UNL     1      -1.779  -3.273   0.583  0.00  0.00    +0.059 C 
ATOM      5  C   UNL     1      -0.691  -2.297   0.212  0.00  0.00    +0.006 A 
ATOM      6  C   UNL     1      -0.961  -0.939   0.287  0.00  0.00    +0.057 A 
ATOM      7  C   UNL     1       0.014  -0.013  -0.039  0.00  0.00    +0.167 A 
ATOM      8  C   UNL     1       1.273  -0.447  -0.446  0.00  0.00    +0.170 A 
ATOM      9  C   UNL     1       1.540  -1.802  -0.523  0.00  0.00    +0.095 A 
ATOM     10  C   UNL     1       0.558  -2.731  -0.195  0.00  0.00    +0.132 A 
ATOM     11  O   UNL     1       0.861  -4.053  -0.291  0.00  0.00    -0.461 OA
ATOM     12  O   UNL     1       2.048   0.646  -0.708  0.00  0.00    -0.452 OA
ATOM     13  C   UNL     1       1.384   1.751  -0.067  0.00  0.00    +0.466 C 
ATOM     14  O   UNL     1       0.000   1.353  -0.046  0.00  0.00    -0.453 OA
ENDROOT
BRANCH   4  15
ATOM     15  C   UNL     1      -3.090  -2.804   0.007  0.00  0.00    -0.040 A 
ATOM     16  C   UNL     1      -3.226  -2.647  -1.360  0.00  0.00    +0.006 A 
ATOM     17  C   UNL     1      -4.428  -2.224  -1.892  0.00  0.00    +0.023 A 
ATOM     18  C   UNL     1      -5.498  -1.945  -1.051  0.00  0.00    +0.029 A 
ATOM     19  C   UNL     1      -5.356  -2.098   0.322  0.00  0.00    +0.023 A 
ATOM     20  C   UNL     1      -4.153  -2.527   0.847  0.00  0.00    +0.006 A 
BRANCH  18  21
ATOM     21  N   UNL     1      -6.713  -1.510  -1.585  0.00  0.00    -0.336 N 
ATOM     22  C   UNL     1      -7.876  -1.336  -0.712  0.00  0.00    +0.129 C 
ATOM     23  C   UNL     1      -6.824  -1.229  -3.018  0.00  0.00    +0.129 C 
ENDBRANCH  18  21
ENDBRANCH   4  15
BRANCH   2  24
ATOM     24  O   UNL     1       0.197  -4.864   1.797  0.00  0.00    -0.356 OA
ATOM     25  H   UNL     1       1.097  -5.056   2.094  0.00  0.00    +0.214 HD
ENDBRANCH   2  24
TORSDOF 3
