REMARK  Name = ZINC17863185
REMARK  5 active torsions:
REMARK  status: ('A' for Active; 'I' for Inactive)
REMARK    1  A    between atoms: C_3  and  O_9
REMARK    2  A    between atoms: O_9  and  C_10
REMARK    3  A    between atoms: C_10  and  C_11
REMARK    4  A    between atoms: N_13  and  N_14
REMARK    5  A    between atoms: C_15  and  C_17
REMARK                            x       y       z     vdW  Elec       q    Type
REMARK                         _______ _______ _______ _____ _____    ______ ____
ROOT
ATOM      1  C   UNL     1       0.056   5.575   0.030  0.00  0.00    +0.267 C 
ATOM      2  O   UNL     1       1.171   6.053   0.022  0.00  0.00    -0.271 OA
ATOM      3  N   UNL     1      -1.022   6.383   0.044  0.00  0.00    -0.232 N 
ATOM      4  H   UNL     1      -1.914   6.001   0.051  0.00  0.00    +0.173 HD
ENDROOT
BRANCH   3   5
ATOM      5  N   UNL     1      -0.856   7.774   0.050  0.00  0.00    -0.234 N 
ATOM      6  C   UNL     1      -1.935   8.582   0.064  0.00  0.00    +0.233 C 
ATOM      7  O   UNL     1      -3.050   8.105   0.072  0.00  0.00    -0.274 OA
ATOM      8  H   UNL     1       0.036   8.156   0.043  0.00  0.00    +0.173 HD
BRANCH   6   9
ATOM      9  C   UNL     1      -1.755  10.078   0.070  0.00  0.00    +0.083 C 
ATOM     10  C   UNL     1      -2.153  10.836   1.346  0.00  0.00    +0.005 C 
ATOM     11  C   UNL     1      -3.013  10.938   0.092  0.00  0.00    +0.005 C 
ATOM     12  C   UNL     1      -3.055  12.237  -0.698  0.00  0.00    +0.004 C 
ATOM     13  C   UNL     1      -1.817  13.084  -0.403  0.00  0.00    +0.000 C 
ATOM     14  C   UNL     1      -1.718  13.293   1.113  0.00  0.00    +0.000 C 
ATOM     15  C   UNL     1      -1.242  11.989   1.754  0.00  0.00    +0.004 C 
ENDBRANCH   6   9
ENDBRANCH   3   5
BRANCH   1  16
ATOM     16  C   UNL     1      -0.123   4.079   0.024  0.00  0.00    +0.326 C 
BRANCH  16  17
ATOM     17  O   UNL     1       1.158   3.446   0.009  0.00  0.00    -0.481 OA
BRANCH  17  20
ATOM     18  C   UNL     1       0.002  -0.004   0.002  0.00  0.00    +0.023 A 
ATOM     19  C   UNL     1      -0.017   1.378   0.010  0.00  0.00    +0.048 A 
ATOM     20  C   UNL     1       1.175   2.087   0.002  0.00  0.00    +0.140 A 
ATOM     21  C   UNL     1       2.385   1.406  -0.013  0.00  0.00    +0.084 A 
ATOM     22  C   UNL     1       2.399   0.024  -0.020  0.00  0.00    +0.043 A 
ATOM     23  C   UNL     1       1.209  -0.681  -0.013  0.00  0.00    +0.043 A 
ATOM     24 CL   UNL     1       1.229  -2.417  -0.022  0.00  0.00    -0.083 Cl
ATOM     25 CL   UNL     1       3.879   2.291  -0.023  0.00  0.00    -0.080 Cl
ENDBRANCH  17  20
ENDBRANCH  16  17
ENDBRANCH   1  16
TORSDOF 5
