REMARK  Name = ZINC16685298
REMARK  11 active torsions:
REMARK  status: ('A' for Active; 'I' for Inactive)
REMARK    1  A    between atoms: C_1  and  C_2
REMARK    2  A    between atoms: C_2  and  C_3
REMARK    3  A    between atoms: C_2  and  C_4
REMARK    4  A    between atoms: C_2  and  C_5
REMARK    5  A    between atoms: N_7  and  C_8
REMARK    6  A    between atoms: C_8  and  C_9
REMARK    7  A    between atoms: C_12  and  C_14
REMARK    8  A    between atoms: C_14  and  C_16
REMARK    9  A    between atoms: C_16  and  S_17
REMARK   10  A    between atoms: S_17  and  C_18
REMARK   11  A    between atoms: C_24  and  N_26
REMARK                            x       y       z     vdW  Elec       q    Type
REMARK                         _______ _______ _______ _____ _____    ______ ____
ROOT
ATOM      1  C   UNL     1       2.475  -7.684  -2.199  0.00  0.00    +0.180 C 
ATOM      2  O   UNL     1       1.841  -8.650  -2.573  0.00  0.00    -0.291 OA
ENDROOT
BRANCH   1   6
ATOM      3  C   UNL     1       1.553  -3.792  -2.673  0.00  0.00    +0.008 A 
ATOM      4  C   UNL     1       0.633  -4.635  -3.210  0.00  0.00    +0.013 A 
ATOM      5  C   UNL     1       0.833  -5.989  -3.114  0.00  0.00    +0.019 A 
ATOM      6  C   UNL     1       1.995  -6.381  -2.456  0.00  0.00    +0.056 A 
ATOM      7  S   UNL     1       2.721  -4.811  -2.027  0.00  0.00    -0.089 S 
BRANCH   3   8
ATOM      8  C   UNL     1       1.532  -2.285  -2.665  0.00  0.00    +0.146 C 
BRANCH   8  11
ATOM      9  C   UNL     1       0.707  -0.490  -1.238  0.00  0.00    +0.219 C 
ATOM     10  O   UNL     1       1.150   0.308  -2.036  0.00  0.00    -0.275 OA
ATOM     11  N   UNL     1       0.847  -1.812  -1.460  0.00  0.00    -0.310 N 
ATOM     12  H   UNL     1       0.493  -2.451  -0.821  0.00  0.00    +0.149 HD
BRANCH   9  14
ATOM     13  C   UNL     1      -0.019   1.526   0.010  0.00  0.00    +0.020 C 
ATOM     14  C   UNL     1       0.002  -0.004   0.002  0.00  0.00    +0.039 C 
ATOM     15  C   UNL     1       0.742  -0.511   1.242  0.00  0.00    +0.020 C 
ATOM     16  C   UNL     1      -1.433  -0.534   0.013  0.00  0.00    +0.020 C 
ENDBRANCH   9  14
ENDBRANCH   8  11
ENDBRANCH   3   8
ENDBRANCH   1   6
BRANCH   1  17
ATOM     17  C   UNL     1       3.774  -7.876  -1.459  0.00  0.00    +0.157 C 
BRANCH  17  18
ATOM     18  S   UNL     1       4.116  -9.650  -1.288  0.00  0.00    -0.080 S 
BRANCH  18  19
ATOM     19  C   UNL     1       5.646  -9.706  -0.415  0.00  0.00    +0.171 A 
ATOM     20  N   UNL     1       6.201 -10.915  -0.120  0.00  0.00    -0.302 N 
ATOM     21  H   UNL     1       5.755 -11.732  -0.391  0.00  0.00    +0.171 HD
ATOM     22  C   UNL     1       7.372 -10.977   0.548  0.00  0.00    +0.254 A 
ATOM     23  O   UNL     1       7.878 -12.056   0.816  0.00  0.00    -0.268 OA
ATOM     24  C   UNL     1       7.998  -9.785   0.927  0.00  0.00    +0.113 A 
ATOM     25  C   UNL     1       7.390  -8.580   0.603  0.00  0.00    +0.124 A 
ATOM     26  N   UNL     1       6.232  -8.579  -0.065  0.00  0.00    -0.209 NA
BRANCH  25  27
ATOM     27  N   UNL     1       7.983  -7.387   0.964  0.00  0.00    -0.343 N 
ATOM     28  H   UNL     1       8.825  -7.389   1.445  0.00  0.00    +0.144 HD
ATOM     29  H   UNL     1       7.557  -6.545   0.736  0.00  0.00    +0.144 HD
ENDBRANCH  25  27
ENDBRANCH  18  19
ENDBRANCH  17  18
ENDBRANCH   1  17
TORSDOF 8
