REMARK  Name = ZINC33320664
REMARK  7 active torsions:
REMARK  status: ('A' for Active; 'I' for Inactive)
REMARK    1  A    between atoms: C_1  and  C_2
REMARK    2  A    between atoms: C_2  and  C_3
REMARK    3  A    between atoms: C_2  and  C_4
REMARK    4  A    between atoms: N_6  and  C_7
REMARK    5  A    between atoms: C_10  and  N_15
REMARK    6  A    between atoms: C_12  and  O_13
REMARK    7  A    between atoms: O_13  and  C_14
REMARK                            x       y       z     vdW  Elec       q    Type
REMARK                         _______ _______ _______ _____ _____    ______ ____
ROOT
ATOM      1  C   UNL     1       0.517  -2.076   1.000  0.00  0.00    +0.076 A 
ATOM      2  C   UNL     1      -0.094  -2.730  -0.059  0.00  0.00    +0.029 A 
ATOM      3  C   UNL     1      -0.175  -4.109  -0.067  0.00  0.00    +0.025 A 
ATOM      4  C   UNL     1       0.346  -4.843   0.991  0.00  0.00    +0.034 A 
ATOM      5  C   UNL     1       0.954  -4.192   2.056  0.00  0.00    +0.070 A 
ATOM      6  C   UNL     1       1.040  -2.810   2.062  0.00  0.00    +0.143 A 
ENDROOT
BRANCH   4   7
ATOM      7  N   UNL     1       0.257  -6.239   0.985  0.00  0.00    -0.321 N 
ATOM      8  C   UNL     1      -0.420  -6.718  -0.229  0.00  0.00    +0.127 C 
ATOM      9  C   UNL     1      -0.169  -8.221  -0.399  0.00  0.00    +0.142 C 
ATOM     10  N   UNL     1      -0.479  -8.888   0.870  0.00  0.00    -0.325 N 
ATOM     11  C   UNL     1      -0.697 -10.211   1.114  0.00  0.00    +0.069 A 
ATOM     12  C   UNL     1      -0.702 -11.338   0.298  0.00  0.00    +0.029 A 
ATOM     13  C   UNL     1      -0.970 -12.553   0.904  0.00  0.00    +0.022 A 
ATOM     14  C   UNL     1      -1.225 -12.657   2.263  0.00  0.00    +0.043 A 
ATOM     15  C   UNL     1      -1.226 -11.552   3.095  0.00  0.00    +0.050 A 
ATOM     16  C   UNL     1      -0.957 -10.312   2.504  0.00  0.00    +0.091 A 
ATOM     17  N   UNL     1      -0.882  -9.068   3.014  0.00  0.00    -0.231 NA
ATOM     18  C   UNL     1      -0.600  -8.225   2.063  0.00  0.00    +0.128 A 
ATOM     19  C   UNL     1      -0.418  -6.731   2.198  0.00  0.00    +0.179 C 
ATOM     20 CL   UNL     1      -1.552 -14.222   2.940  0.00  0.00    -0.083 Cl
ENDBRANCH   4   7
BRANCH   1  23
ATOM     21  C   UNL     1       0.575   0.005  -0.160  0.00  0.00    +0.220 C 
ATOM     22  O   UNL     1       0.574  -0.596  -1.214  0.00  0.00    -0.275 OA
ATOM     23  N   UNL     1       0.604  -0.675   1.004  0.00  0.00    -0.282 N 
ATOM     24  H   UNL     1       0.697  -0.133   1.956  0.00  0.00    +0.155 HD
BRANCH  21  26
ATOM     25  C   UNL     1       0.512   2.029  -1.590  0.00  0.00    +0.017 C 
ATOM     26  C   UNL     1       0.542   1.512  -0.151  0.00  0.00    +0.069 C 
ATOM     27  C   UNL     1      -0.708   1.990   0.589  0.00  0.00    +0.017 C 
ENDBRANCH  21  26
ENDBRANCH   1  23
BRANCH   6  28
ATOM     28  O   UNL     1       1.636  -2.170   3.103  0.00  0.00    -0.493 OA
ATOM     29  C   UNL     1       2.150  -2.985   4.158  0.00  0.00    +0.277 C 
ENDBRANCH   6  28
TORSDOF 4
