REMARK  Name = ZINC39336735
REMARK  6 active torsions:
REMARK  status: ('A' for Active; 'I' for Inactive)
REMARK    1  A    between atoms: C_4  and  N_7
REMARK    2  A    between atoms: C_9  and  C_22
REMARK    3  A    between atoms: C_10  and  C_13
REMARK    4  A    between atoms: C_16  and  N_19
REMARK    5  A    between atoms: N_23  and  N_24
REMARK    6  A    between atoms: C_25  and  C_31
REMARK                            x       y       z     vdW  Elec       q    Type
REMARK                         _______ _______ _______ _____ _____    ______ ____
ROOT
ATOM      1  N   UNL     1       3.635  -0.696  -0.131  0.00  0.00    -0.242 N 
ATOM      2  C   UNL     1       4.854  -0.072  -0.061  0.00  0.00    +0.100 C 
ATOM      3  C   UNL     1       5.859  -0.938  -0.274  0.00  0.00    +0.010 C 
ATOM      4  C   UNL     1       5.218  -2.289  -0.511  0.00  0.00    +0.136 C 
ATOM      5  N   UNL     1       3.770  -2.028  -0.392  0.00  0.00    -0.224 NA
ATOM      6  H   UNL     1       3.359  -2.584   0.344  0.00  0.00    +0.146 HD
ENDROOT
BRANCH   1  10
ATOM      7  C   UNL     1      -0.018   1.232   0.401  0.00  0.00    +0.000 A 
ATOM      8  C   UNL     1       1.161   1.951   0.486  0.00  0.00    +0.002 A 
ATOM      9  C   UNL     1       2.374   1.315   0.310  0.00  0.00    +0.025 A 
ATOM     10  C   UNL     1       2.410  -0.049   0.048  0.00  0.00    +0.049 A 
ATOM     11  C   UNL     1       1.224  -0.768  -0.037  0.00  0.00    +0.025 A 
ATOM     12  C   UNL     1       0.015  -0.126   0.140  0.00  0.00    +0.002 A 
ENDBRANCH   1  10
BRANCH   4  13
ATOM     13  C   UNL     1       5.558  -2.800  -1.887  0.00  0.00    -0.024 A 
ATOM     14  C   UNL     1       4.872  -2.327  -2.990  0.00  0.00    +0.008 A 
ATOM     15  C   UNL     1       5.184  -2.796  -4.252  0.00  0.00    +0.033 A 
ATOM     16  C   UNL     1       6.183  -3.737  -4.412  0.00  0.00    +0.126 A 
ATOM     17  C   UNL     1       6.871  -4.210  -3.309  0.00  0.00    +0.033 A 
ATOM     18  C   UNL     1       6.561  -3.738  -2.047  0.00  0.00    +0.008 A 
BRANCH  16  19
ATOM     19  N   UNL     1       6.517  -4.240  -5.763  0.00  0.00    +0.056 N 
ATOM     20  O   UNL     1       5.916  -3.827  -6.727  0.00  0.00    -0.126 OA
ATOM     21  O   UNL     1       7.391  -5.064  -5.903  0.00  0.00    -0.126 OA
ENDBRANCH  16  19
ENDBRANCH   4  13
BRANCH   3  22
ATOM     22  C   UNL     1       7.247  -0.644  -0.276  0.00  0.00    +0.137 C 
ATOM     23  N   UNL     1       7.655   0.573  -0.054  0.00  0.00    -0.184 NA
BRANCH  23  24
ATOM     24  N   UNL     1       9.026   0.845   0.044  0.00  0.00    -0.173 N 
ATOM     25  C   UNL     1       9.678   2.161   0.177  0.00  0.00    +0.264 C 
ATOM     26  N   UNL     1      11.112   1.839   0.236  0.00  0.00    -0.189 NA
ATOM     27  N   UNL     1      11.234   0.614   0.153  0.00  0.00    -0.219 N 
ATOM     28  C   UNL     1      10.047  -0.040   0.043  0.00  0.00    +0.174 C 
ATOM     29  S   UNL     1       9.872  -1.738  -0.082  0.00  0.00    -0.015 S 
ATOM     30  H   UNL     1      12.092   0.162   0.169  0.00  0.00    +0.176 HD
BRANCH  25  31
ATOM     31  C   UNL     1       9.235   2.845   1.444  0.00  0.00    +0.001 A 
ATOM     32  C   UNL     1       7.975   2.609   1.975  0.00  0.00    +0.025 A 
ATOM     33  C   UNL     1       7.603   3.255   3.139  0.00  0.00    +0.083 A 
ATOM     34  N   UNL     1       8.429   4.087   3.742  0.00  0.00    -0.367 N 
ATOM     35  C   UNL     1       9.634   4.335   3.266  0.00  0.00    +0.083 A 
ATOM     36  C   UNL     1      10.078   3.722   2.110  0.00  0.00    +0.025 A 
ATOM     37  H   UNL     1       8.143   4.528   4.558  0.00  0.00    +0.165 HD
ENDBRANCH  25  31
ENDBRANCH  23  24
ENDBRANCH   3  22
TORSDOF 6
