REMARK  Name = ZINC15830804
REMARK  4 active torsions:
REMARK  status: ('A' for Active; 'I' for Inactive)
REMARK    1  A    between atoms: C_1  and  O_2
REMARK    2  A    between atoms: O_2  and  C_3
REMARK    3  A    between atoms: C_10  and  S_14
REMARK    4  A    between atoms: S_14  and  C_17
REMARK                            x       y       z     vdW  Elec       q    Type
REMARK                         _______ _______ _______ _____ _____    ______ ____
ROOT
ATOM      1  C   UNL     1      -1.627   4.554  -5.380  0.00  0.00    +0.121 A 
ATOM      2  C   UNL     1      -2.860   3.935  -5.567  0.00  0.00    +0.049 A 
ATOM      3  C   UNL     1      -3.307   2.979  -4.682  0.00  0.00    +0.050 A 
ATOM      4  C   UNL     1      -2.527   2.623  -3.589  0.00  0.00    +0.139 A 
ATOM      5  C   UNL     1      -1.281   3.245  -3.396  0.00  0.00    +0.023 A 
ATOM      6  C   UNL     1      -0.836   4.215  -4.300  0.00  0.00    +0.057 A 
ATOM      7  C   UNL     1      -0.469   2.866  -2.236  0.00  0.00    +0.046 A 
ATOM      8  C   UNL     1      -0.954   1.915  -1.397  0.00  0.00    +0.178 A 
ATOM      9  C   UNL     1      -2.214   1.332  -1.651  0.00  0.00    +0.363 A 
ATOM     10  O   UNL     1      -2.640   0.484  -0.889  0.00  0.00    -0.243 OA
ATOM     11  O   UNL     1      -2.954   1.688  -2.713  0.00  0.00    -0.421 OA
ENDROOT
BRANCH   8  12
ATOM     12  S   UNL     1      -0.017   1.417   0.010  0.00  0.00    +0.032 S 
ATOM     13  O   UNL     1       0.002  -0.004   0.002  0.00  0.00    -0.164 OA
ATOM     14  O   UNL     1       1.172   2.195   0.003  0.00  0.00    -0.164 OA
BRANCH  12  15
ATOM     15  C   UNL     1      -0.927   1.900   1.439  0.00  0.00    +0.095 A 
ATOM     16  C   UNL     1      -0.717   3.145   2.004  0.00  0.00    +0.029 A 
ATOM     17  C   UNL     1      -1.434   3.528   3.122  0.00  0.00    +0.023 A 
ATOM     18  C   UNL     1      -2.354   2.660   3.683  0.00  0.00    +0.059 A 
ATOM     19  C   UNL     1      -2.560   1.412   3.122  0.00  0.00    +0.061 A 
ATOM     20  C   UNL     1      -1.845   1.033   1.999  0.00  0.00    +0.048 A 
ATOM     21 CL   UNL     1      -3.714   0.323   3.825  0.00  0.00    -0.082 Cl
ATOM     22 CL   UNL     1      -3.250   3.138   5.092  0.00  0.00    -0.082 Cl
ENDBRANCH  12  15
ENDBRANCH   8  12
BRANCH   1  24
ATOM     23  C   UNL     1      -2.067   5.798  -7.358  0.00  0.00    +0.277 C 
ATOM     24  O   UNL     1      -1.200   5.495  -6.263  0.00  0.00    -0.495 OA
ENDBRANCH   1  24
TORSDOF 3
