REMARK  Name = ZINC01120938
REMARK  7 active torsions:
REMARK  status: ('A' for Active; 'I' for Inactive)
REMARK    1  A    between atoms: C_1  and  C_2
REMARK    2  A    between atoms: C_3  and  C_12
REMARK    3  A    between atoms: C_12  and  O_31
REMARK    4  A    between atoms: N_19  and  C_22
REMARK    5  A    between atoms: C_22  and  C_23
REMARK    6  A    between atoms: C_23  and  C_24
REMARK    7  A    between atoms: C_24  and  C_25
REMARK                            x       y       z     vdW  Elec       q    Type
REMARK                         _______ _______ _______ _____ _____    ______ ____
ROOT
ATOM      1  C   UNL     1      -2.530   2.168   0.495  0.00  0.00    +0.197 C 
ATOM      2  C   UNL     1      -3.151   3.367   1.175  0.00  0.00    +0.019 A 
ATOM      3  C   UNL     1      -2.905   3.994   2.376  0.00  0.00    +0.009 A 
ATOM      4  C   UNL     1      -3.653   5.099   2.743  0.00  0.00    +0.000 A 
ATOM      5  C   UNL     1      -4.645   5.569   1.902  0.00  0.00    +0.002 A 
ATOM      6  C   UNL     1      -4.893   4.942   0.699  0.00  0.00    +0.024 A 
ATOM      7  C   UNL     1      -4.144   3.829   0.322  0.00  0.00    +0.043 A 
ATOM      8  N   UNL     1      -4.204   3.035  -0.824  0.00  0.00    -0.268 N 
ATOM      9  C   UNL     1      -3.297   2.044  -0.804  0.00  0.00    +0.261 C 
ATOM     10  O   UNL     1      -3.125   1.207  -1.665  0.00  0.00    -0.271 OA
ENDROOT
BRANCH   1  13
ATOM     11  C   UNL     1      -0.305   0.007   0.379  0.00  0.00    +0.064 C 
ATOM     12  C   UNL     1      -0.099   1.486   0.173  0.00  0.00    +0.021 A 
ATOM     13  C   UNL     1      -1.068   2.413   0.225  0.00  0.00    +0.025 A 
ATOM     14  C   UNL     1      -0.435   3.709  -0.034  0.00  0.00    +0.007 A 
ATOM     15  C   UNL     1      -0.906   5.021  -0.111  0.00  0.00    +0.010 A 
ATOM     16  C   UNL     1      -0.034   6.041  -0.369  0.00  0.00    +0.001 A 
ATOM     17  C   UNL     1       1.317   5.783  -0.555  0.00  0.00    +0.002 A 
ATOM     18  C   UNL     1       1.804   4.496  -0.483  0.00  0.00    +0.026 A 
ATOM     19  C   UNL     1       0.934   3.442  -0.221  0.00  0.00    +0.047 A 
ATOM     20  N   UNL     1       1.104   2.083  -0.089  0.00  0.00    -0.358 N 
ATOM     21  H   UNL     1       1.951   1.617  -0.171  0.00  0.00    +0.166 HD
ENDBRANCH   1  13
BRANCH   1  22
ATOM     22  O   UNL     1      -2.700   0.994   1.291  0.00  0.00    -0.371 OA
ATOM     23  H   UNL     1      -3.623   0.788   1.496  0.00  0.00    +0.212 HD
ENDBRANCH   1  22
BRANCH   8  24
ATOM     24  C   UNL     1      -5.146   3.257  -1.924  0.00  0.00    +0.114 C 
BRANCH  24  25
ATOM     25  C   UNL     1      -6.432   2.472  -1.659  0.00  0.00    +0.024 C 
BRANCH  25  26
ATOM     26  C   UNL     1      -7.417   2.704  -2.807  0.00  0.00    +0.036 C 
BRANCH  26  27
ATOM     27  C   UNL     1      -8.684   1.930  -2.547  0.00  0.00    -0.047 A 
ATOM     28  C   UNL     1      -8.811   0.635  -3.014  0.00  0.00    +0.003 A 
ATOM     29  C   UNL     1      -9.971  -0.076  -2.771  0.00  0.00    +0.000 A 
ATOM     30  C   UNL     1     -11.008   0.511  -2.070  0.00  0.00    +0.000 A 
ATOM     31  C   UNL     1     -10.882   1.807  -1.607  0.00  0.00    +0.000 A 
ATOM     32  C   UNL     1      -9.720   2.517  -1.846  0.00  0.00    +0.003 A 
ENDBRANCH  26  27
ENDBRANCH  25  26
ENDBRANCH  24  25
ENDBRANCH   8  24
TORSDOF 6
