REMARK  Name = ZINC00628582
REMARK  11 active torsions:
REMARK  status: ('A' for Active; 'I' for Inactive)
REMARK    1  A    between atoms: C_1  and  C_2
REMARK    2  A    between atoms: C_2  and  O_3
REMARK    3  A    between atoms: O_3  and  C_4
REMARK    4  A    between atoms: C_4  and  C_6
REMARK    5  A    between atoms: C_7  and  C_29
REMARK    6  A    between atoms: C_11  and  C_13
REMARK    7  A    between atoms: C_16  and  O_20
REMARK    8  A    between atoms: C_17  and  O_19
REMARK    9  A    between atoms: O_20  and  C_21
REMARK   10  A    between atoms: C_25  and  C_27
REMARK   11  A    between atoms: C_25  and  C_28
REMARK                            x       y       z     vdW  Elec       q    Type
REMARK                         _______ _______ _______ _____ _____    ______ ____
ROOT
ATOM      1  C   UNL     1       1.235  -2.363  -2.589  0.00  0.00    +0.065 C 
ATOM      2  C   UNL     1       1.608  -3.654  -2.578  0.00  0.00    +0.016 C 
ATOM      3  N   UNL     1       2.420  -4.149  -3.560  0.00  0.00    -0.321 N 
ATOM      4  C   UNL     1       2.547  -3.494  -4.755  0.00  0.00    +0.016 C 
ATOM      5  C   UNL     1       2.216  -2.190  -4.860  0.00  0.00    +0.024 C 
ATOM      6  C   UNL     1       1.696  -1.429  -3.669  0.00  0.00    +0.092 C 
ATOM      7  C   UNL     1       2.345  -1.504  -6.081  0.00  0.00    +0.162 C 
ATOM      8  O   UNL     1       2.023  -0.335  -6.146  0.00  0.00    -0.292 OA
ATOM      9  C   UNL     1       2.876  -2.193  -7.309  0.00  0.00    +0.086 C 
ATOM     10  C   UNL     1       3.823  -3.319  -6.879  0.00  0.00    -0.023 C 
ATOM     11  C   UNL     1       3.061  -4.264  -5.947  0.00  0.00    +0.058 C 
ATOM     12  C   UNL     1       5.024  -2.725  -6.140  0.00  0.00    +0.011 C 
ATOM     13  C   UNL     1       4.301  -4.088  -8.112  0.00  0.00    +0.011 C 
ATOM     14  C   UNL     1       1.128  -4.562  -1.475  0.00  0.00    +0.061 C 
ATOM     15  H   UNL     1       2.911  -4.972  -3.408  0.00  0.00    +0.152 HD
ENDROOT
BRANCH   6  16
ATOM     16  C   UNL     1       2.797  -0.553  -3.129  0.00  0.00    -0.032 A 
ATOM     17  C   UNL     1       3.966  -1.124  -2.660  0.00  0.00    +0.008 A 
ATOM     18  C   UNL     1       4.979  -0.325  -2.164  0.00  0.00    +0.050 A 
ATOM     19  C   UNL     1       4.825   1.052  -2.136  0.00  0.00    +0.161 A 
ATOM     20  C   UNL     1       3.649   1.627  -2.609  0.00  0.00    +0.159 A 
ATOM     21  C   UNL     1       2.639   0.820  -3.109  0.00  0.00    +0.053 A 
BRANCH  20  22
ATOM     22  O   UNL     1       3.493   2.978  -2.584  0.00  0.00    -0.503 OA
ATOM     23  H   UNL     1       3.800   3.424  -3.385  0.00  0.00    +0.292 HD
ENDBRANCH  20  22
BRANCH  19  24
ATOM     24  O   UNL     1       5.820   1.839  -1.648  0.00  0.00    -0.491 OA
ATOM     25  C   UNL     1       6.998   1.179  -1.179  0.00  0.00    +0.277 C 
ENDBRANCH  19  24
ENDBRANCH   6  16
BRANCH   1  26
ATOM     26  C   UNL     1       0.388  -1.876  -1.566  0.00  0.00    +0.338 C 
ATOM     27  O   UNL     1      -0.095  -2.647  -0.758  0.00  0.00    -0.245 OA
BRANCH  26  28
ATOM     28  O   UNL     1       0.115  -0.557  -1.487  0.00  0.00    -0.462 OA
BRANCH  28  30
ATOM     29  C   UNL     1      -0.940   1.380  -0.500  0.00  0.00    +0.048 C 
ATOM     30  C   UNL     1      -0.749  -0.136  -0.429  0.00  0.00    +0.229 C 
ENDBRANCH  28  30
ENDBRANCH  26  28
ENDBRANCH   1  26
TORSDOF 6
