REMARK  Name = ZINC39711139
REMARK  10 active torsions:
REMARK  status: ('A' for Active; 'I' for Inactive)
REMARK    1  A    between atoms: C_1  and  C_2
REMARK    2  A    between atoms: C_4  and  C_42
REMARK    3  A    between atoms: C_7  and  C_14
REMARK    4  A    between atoms: C_14  and  C_16
REMARK    5  A    between atoms: C_14  and  N_28
REMARK    6  A    between atoms: N_21  and  C_22
REMARK    7  A    between atoms: N_28  and  C_29
REMARK    8  A    between atoms: N_28  and  C_36
REMARK    9  A    between atoms: C_29  and  C_30
REMARK   10  A    between atoms: C_36  and  C_37
REMARK                            x       y       z     vdW  Elec       q    Type
REMARK                         _______ _______ _______ _____ _____    ______ ____
ROOT
ATOM      1  C   UNL     1      -1.361  -6.459   0.989  0.00  0.00    -0.010 C 
ENDROOT
BRANCH   1   8
ATOM      2  C   UNL     1       5.491  -7.175   3.947  0.00  0.00    +0.044 C 
ATOM      3  C   UNL     1       4.256  -6.722   3.212  0.00  0.00    -0.048 A 
ATOM      4  C   UNL     1       3.901  -5.374   3.266  0.00  0.00    +0.007 A 
ATOM      5  C   UNL     1       2.800  -4.905   2.624  0.00  0.00    -0.042 A 
ATOM      6  C   UNL     1       1.975  -5.844   1.862  0.00  0.00    -0.004 A 
ATOM      7  C   UNL     1       0.861  -5.419   1.202  0.00  0.00    -0.006 C 
ATOM      8  C   UNL     1       0.066  -6.460   0.438  0.00  0.00    +0.088 C 
ATOM      9  C   UNL     1       0.574  -7.884   0.470  0.00  0.00    +0.223 C 
ATOM     10  O   UNL     1      -0.024  -8.760  -0.125  0.00  0.00    -0.275 OA
ATOM     11  N   UNL     1       1.672  -8.174   1.149  0.00  0.00    -0.285 N 
ATOM     12  C   UNL     1       2.373  -7.262   1.822  0.00  0.00    +0.041 A 
ATOM     13  C   UNL     1       3.535  -7.642   2.518  0.00  0.00    +0.027 A 
ATOM     14  C   UNL     1       2.433  -3.446   2.695  0.00  0.00    +0.044 C 
ATOM     15  H   UNL     1       1.981  -9.093   1.157  0.00  0.00    +0.155 HD
ENDBRANCH   1   8
BRANCH   1  16
ATOM     16  C   UNL     1      -1.942  -5.047   0.898  0.00  0.00    +0.183 C 
ATOM     17  N   UNL     1      -3.384  -5.054   1.206  0.00  0.00    -0.229 N 
ATOM     18  N   UNL     1      -4.026  -4.598   0.049  0.00  0.00    -0.064 NA
ATOM     19  N   UNL     1      -3.239  -4.333  -0.856  0.00  0.00    -0.061 NA
ATOM     20  N   UNL     1      -1.901  -4.554  -0.492  0.00  0.00    -0.213 N 
ATOM     21  H   UNL     1      -3.803  -5.321   2.040  0.00  0.00    +0.172 HD
BRANCH  20  22
ATOM     22  C   UNL     1      -0.710  -4.341  -1.319  0.00  0.00    +0.096 C 
ATOM     23  C   UNL     1      -0.676  -2.889  -1.800  0.00  0.00    +0.024 C 
ATOM     24  C   UNL     1       0.567  -2.667  -2.663  0.00  0.00    +0.002 C 
ATOM     25  C   UNL     1       0.523  -3.603  -3.872  0.00  0.00    +0.000 C 
ATOM     26  C   UNL     1       0.489  -5.055  -3.391  0.00  0.00    +0.002 C 
ATOM     27  C   UNL     1      -0.755  -5.278  -2.528  0.00  0.00    +0.024 C 
ENDBRANCH  20  22
ENDBRANCH   1  16
BRANCH   1  28
ATOM     28  N   UNL     1      -1.345  -6.892   2.392  0.00  0.00    +0.392 N 
ATOM     29  H   UNL     1      -0.559  -7.507   2.545  0.00  0.00    -0.080 HD
BRANCH  28  30
ATOM     30  C   UNL     1      -1.225  -5.717   3.266  0.00  0.00    -0.042 C 
BRANCH  30  31
ATOM     31  C   UNL     1      -1.072  -6.168   4.696  0.00  0.00    -0.064 A 
ATOM     32  C   UNL     1      -2.191  -6.359   5.484  0.00  0.00    +0.002 A 
ATOM     33  C   UNL     1      -2.051  -6.772   6.796  0.00  0.00    +0.000 A 
ATOM     34  C   UNL     1      -0.791  -6.995   7.319  0.00  0.00    +0.000 A 
ATOM     35  C   UNL     1       0.329  -6.805   6.530  0.00  0.00    +0.000 A 
ATOM     36  C   UNL     1       0.188  -6.396   5.217  0.00  0.00    +0.002 A 
ENDBRANCH  30  31
ENDBRANCH  28  30
BRANCH  28  37
ATOM     37  C   UNL     1      -2.591  -7.606   2.699  0.00  0.00    -0.002 C 
BRANCH  37  38
ATOM     38  C   UNL     1      -2.678  -8.851   1.856  0.00  0.00    +0.089 A 
ATOM     39  C   UNL     1      -2.265 -10.079   2.220  0.00  0.00    +0.042 A 
ATOM     40  C   UNL     1      -2.535 -10.941   1.133  0.00  0.00    +0.041 A 
ATOM     41  C   UNL     1      -3.097 -10.190   0.170  0.00  0.00    +0.195 A 
ATOM     42  O   UNL     1      -3.186  -8.926   0.615  0.00  0.00    -0.470 OA
ENDBRANCH  37  38
ENDBRANCH  28  37
ENDBRANCH   1  28
TORSDOF 8
