REMARK  Name = ZINC43527763
REMARK  10 active torsions:
REMARK  status: ('A' for Active; 'I' for Inactive)
REMARK    1  A    between atoms: C_1  and  C_2
REMARK    2  A    between atoms: C_4  and  C_32
REMARK    3  A    between atoms: C_6  and  C_8
REMARK    4  A    between atoms: C_17  and  C_19
REMARK    5  A    between atoms: C_19  and  O_20
REMARK    6  A    between atoms: O_20  and  C_21
REMARK    7  A    between atoms: N_23  and  C_24
REMARK    8  A    between atoms: C_35  and  N_38
REMARK    9  A    between atoms: N_38  and  C_39
REMARK   10  A    between atoms: N_38  and  C_40
REMARK                            x       y       z     vdW  Elec       q    Type
REMARK                         _______ _______ _______ _____ _____    ______ ____
ROOT
ATOM      1  C   UNL     1      -0.057  -2.789   2.464  0.00  0.00    +0.024 C 
ATOM      2  C   UNL     1      -0.888  -4.074   2.506  0.00  0.00    -0.068 C 
ATOM      3  N   UNL     1      -0.025  -5.220   2.802  0.00  0.00    +0.384 N 
ATOM      4  C   UNL     1       0.988  -5.386   1.757  0.00  0.00    -0.078 C 
ATOM      5  C   UNL     1       1.881  -4.145   1.690  0.00  0.00    -0.015 C 
ATOM      6  C   UNL     1       1.410  -3.135   2.749  0.00  0.00    -0.007 C 
ATOM      7  C   UNL     1       1.489  -3.808   4.126  0.00  0.00    -0.008 C 
ATOM      8  C   UNL     1       0.608  -5.063   4.114  0.00  0.00    -0.030 C 
ATOM      9  H   UNL     1      -0.594  -6.052   2.820  0.00  0.00    -0.081 HD
ENDROOT
BRANCH   1  15
ATOM     10  C   UNL     1      -0.268   1.229  -0.315  0.00  0.00    +0.088 C 
ATOM     11  C   UNL     1      -0.271  -0.275  -0.218  0.00  0.00    +0.127 A 
ATOM     12  N   UNL     1      -0.373  -0.987  -1.321  0.00  0.00    -0.232 NA
ATOM     13  C   UNL     1      -0.378  -2.318  -1.273  0.00  0.00    +0.075 A 
ATOM     14  C   UNL     1      -0.275  -2.949  -0.030  0.00  0.00    +0.052 A 
ATOM     15  C   UNL     1      -0.171  -2.159   1.100  0.00  0.00    +0.047 A 
ATOM     16  N   UNL     1      -0.168  -0.840   0.968  0.00  0.00    -0.237 NA
BRANCH  13  17
ATOM     17  C   UNL     1      -0.493  -3.116  -2.516  0.00  0.00    +0.001 A 
ATOM     18  C   UNL     1      -0.503  -4.509  -2.453  0.00  0.00    +0.012 A 
ATOM     19  C   UNL     1      -0.610  -5.250  -3.610  0.00  0.00    +0.024 A 
ATOM     20  C   UNL     1      -0.708  -4.609  -4.841  0.00  0.00    +0.029 A 
ATOM     21  C   UNL     1      -0.697  -3.219  -4.906  0.00  0.00    +0.024 A 
ATOM     22  C   UNL     1      -0.596  -2.475  -3.751  0.00  0.00    +0.012 A 
BRANCH  20  23
ATOM     23  N   UNL     1      -0.816  -5.359  -6.010  0.00  0.00    -0.336 N 
ATOM     24  C   UNL     1      -0.827  -6.823  -5.942  0.00  0.00    +0.129 C 
ATOM     25  C   UNL     1      -0.918  -4.685  -7.307  0.00  0.00    +0.129 C 
ENDBRANCH  20  23
ENDBRANCH  13  17
ENDBRANCH   1  15
BRANCH   8  26
ATOM     26  C   UNL     1       1.469  -6.292   4.412  0.00  0.00    +0.219 C 
BRANCH  26  27
ATOM     27  O   UNL     1       0.641  -7.455   4.451  0.00  0.00    -0.452 OA
BRANCH  27  28
ATOM     28  C   UNL     1       1.249  -8.630   4.705  0.00  0.00    +0.405 C 
ATOM     29  O   UNL     1       2.450  -8.666   4.888  0.00  0.00    -0.226 OA
ATOM     30  N   UNL     1       0.525  -9.766   4.755  0.00  0.00    -0.248 N 
ATOM     31  H   UNL     1      -0.421  -9.748   4.543  0.00  0.00    +0.158 HD
BRANCH  30  32
ATOM     32  C   UNL     1       1.141 -10.974   5.114  0.00  0.00    +0.072 A 
ATOM     33  C   UNL     1       2.188 -10.976   6.024  0.00  0.00    +0.029 A 
ATOM     34  C   UNL     1       2.793 -12.167   6.377  0.00  0.00    +0.040 A 
ATOM     35  C   UNL     1       2.356 -13.358   5.824  0.00  0.00    +0.126 A 
ATOM     36  C   UNL     1       1.311 -13.360   4.916  0.00  0.00    +0.078 A 
ATOM     37  C   UNL     1       0.698 -12.171   4.564  0.00  0.00    +0.147 A 
ATOM     38  F   UNL     1      -0.325 -12.173   3.681  0.00  0.00    -0.203 F 
ATOM     39  F   UNL     1       2.949 -14.521   6.171  0.00  0.00    -0.205 F 
ENDBRANCH  30  32
ENDBRANCH  27  28
ENDBRANCH  26  27
ENDBRANCH   8  26
TORSDOF 7
