REMARK  Name = ZINC49978425
REMARK  8 active torsions:
REMARK  status: ('A' for Active; 'I' for Inactive)
REMARK    1  A    between atoms: C_1  and  C_2
REMARK    2  A    between atoms: C_2  and  C_3
REMARK    3  A    between atoms: C_6  and  N_9
REMARK    4  A    between atoms: N_9  and  C_10
REMARK    5  A    between atoms: N_9  and  S_11
REMARK    6  A    between atoms: S_11  and  C_14
REMARK    7  A    between atoms: C_17  and  O_21
REMARK    8  A    between atoms: C_18  and  N_20
REMARK                            x       y       z     vdW  Elec       q    Type
REMARK                         _______ _______ _______ _____ _____    ______ ____
ROOT
ATOM      1  S   UNL     1      -5.935  -2.713  -1.301  0.00  0.00    +0.075 S 
ATOM      2  O   UNL     1      -7.338  -2.483  -1.285  0.00  0.00    -0.150 OA
ATOM      3  O   UNL     1      -5.113  -2.327  -2.394  0.00  0.00    -0.150 OA
ENDROOT
BRANCH   1   4
ATOM      4  C   UNL     1      -5.707  -4.447  -1.087  0.00  0.00    +0.111 A 
ATOM      5  C   UNL     1      -4.544  -5.049  -1.531  0.00  0.00    +0.032 A 
ATOM      6  C   UNL     1      -4.359  -6.409  -1.365  0.00  0.00    +0.049 A 
ATOM      7  C   UNL     1      -5.339  -7.172  -0.752  0.00  0.00    +0.137 A 
ATOM      8  C   UNL     1      -6.510  -6.566  -0.304  0.00  0.00    +0.068 A 
ATOM      9  C   UNL     1      -6.687  -5.200  -0.469  0.00  0.00    +0.055 A 
BRANCH   8  10
ATOM     10  N   UNL     1      -7.504  -7.332   0.316  0.00  0.00    -0.355 N 
ATOM     11  H   UNL     1      -7.378  -8.287   0.434  0.00  0.00    +0.142 HD
ATOM     12  H   UNL     1      -8.319  -6.909   0.628  0.00  0.00    +0.142 HD
ENDBRANCH   8  10
BRANCH   7  13
ATOM     13  O   UNL     1      -5.158  -8.511  -0.588  0.00  0.00    -0.505 OA
ATOM     14  H   UNL     1      -4.729  -8.750   0.245  0.00  0.00    +0.292 HD
ENDBRANCH   7  13
ENDBRANCH   1   4
BRANCH   1  15
ATOM     15  N   UNL     1      -5.318  -1.967   0.042  0.00  0.00    -0.206 N 
ATOM     16  C   UNL     1      -6.141  -1.827   1.246  0.00  0.00    +0.157 C 
BRANCH  15  20
ATOM     17  C   UNL     1      -1.424  -0.493  -0.000  0.00  0.00    -0.048 A 
ATOM     18  C   UNL     1      -1.784  -1.464   0.916  0.00  0.00    +0.005 A 
ATOM     19  C   UNL     1      -3.075  -1.956   0.933  0.00  0.00    +0.025 A 
ATOM     20  C   UNL     1      -4.012  -1.473   0.028  0.00  0.00    +0.051 A 
ATOM     21  C   UNL     1      -3.647  -0.497  -0.891  0.00  0.00    +0.025 A 
ATOM     22  C   UNL     1      -2.356  -0.006  -0.898  0.00  0.00    +0.005 A 
BRANCH  17  24
ATOM     23  C   UNL     1       0.086   1.243   0.924  0.00  0.00    +0.009 C 
ATOM     24  C   UNL     1      -0.015   0.040  -0.016  0.00  0.00    +0.032 C 
ENDBRANCH  17  24
ENDBRANCH  15  20
ENDBRANCH   1  15
TORSDOF 6
