REMARK  Name = ZINC45007986
REMARK  7 active torsions:
REMARK  status: ('A' for Active; 'I' for Inactive)
REMARK    1  A    between atoms: C_1  and  C_2
REMARK    2  A    between atoms: C_5  and  S_8
REMARK    3  A    between atoms: S_8  and  C_9
REMARK    4  A    between atoms: C_10  and  C_15
REMARK    5  A    between atoms: C_17  and  C_26
REMARK    6  A    between atoms: C_17  and  C_27
REMARK    7  A    between atoms: N_24  and  C_25
REMARK                            x       y       z     vdW  Elec       q    Type
REMARK                         _______ _______ _______ _____ _____    ______ ____
ROOT
ATOM      1  C   UNL     1      -0.303  -5.349   2.270  0.00  0.00    +0.074 C 
ATOM      2  C   UNL     1       0.542  -4.547   3.067  0.00  0.00    +0.045 C 
ATOM      3  C   UNL     1       1.490  -5.652   3.292  0.00  0.00    +0.235 C 
ATOM      4  O   UNL     1       2.536  -5.807   3.895  0.00  0.00    -0.283 OA
ATOM      5  C   UNL     1       0.597  -6.491   2.460  0.00  0.00    +0.240 C 
ATOM      6  O   UNL     1       0.607  -7.651   2.087  0.00  0.00    -0.283 OA
ENDROOT
BRANCH   2   7
ATOM      7  C   UNL     1       0.497  -3.200   3.488  0.00  0.00    +0.033 C 
ATOM      8  C   UNL     1       0.338  -2.906   4.798  0.00  0.00    +0.021 C 
ATOM      9  C   UNL     1       0.387  -1.530   5.426  0.00  0.00    +0.030 C 
ATOM     10  C   UNL     1       0.150  -1.785   6.897  0.00  0.00    -0.015 A 
ATOM     11  C   UNL     1       0.078  -0.948   7.988  0.00  0.00    +0.006 A 
ATOM     12  C   UNL     1      -0.156  -1.472   9.247  0.00  0.00    +0.000 A 
ATOM     13  C   UNL     1      -0.317  -2.836   9.406  0.00  0.00    +0.002 A 
ATOM     14  C   UNL     1      -0.245  -3.678   8.316  0.00  0.00    +0.024 A 
ATOM     15  C   UNL     1      -0.010  -3.157   7.043  0.00  0.00    +0.038 A 
ATOM     16  N   UNL     1       0.097  -3.794   5.809  0.00  0.00    -0.306 N 
ATOM     17  C   UNL     1      -0.030  -5.241   5.618  0.00  0.00    +0.135 C 
ATOM     18  C   UNL     1       1.760  -0.890   5.209  0.00  0.00    +0.022 C 
ATOM     19  C   UNL     1      -0.717  -0.640   4.852  0.00  0.00    +0.022 C 
ENDBRANCH   2   7
BRANCH   1  20
ATOM     20  S   UNL     1      -1.819  -5.087   1.410  0.00  0.00    -0.085 S 
BRANCH  20  25
ATOM     21  C   UNL     1      -0.336  -5.775  -4.401  0.00  0.00    +0.044 C 
ATOM     22  C   UNL     1      -0.706  -5.603  -2.950  0.00  0.00    -0.050 A 
ATOM     23  C   UNL     1      -2.031  -5.433  -2.592  0.00  0.00    +0.004 A 
ATOM     24  C   UNL     1      -2.374  -5.275  -1.264  0.00  0.00    +0.015 A 
ATOM     25  C   UNL     1      -1.386  -5.288  -0.286  0.00  0.00    +0.013 A 
ATOM     26  C   UNL     1      -0.056  -5.460  -0.650  0.00  0.00    +0.015 A 
ATOM     27  C   UNL     1       0.279  -5.622  -1.980  0.00  0.00    +0.004 A 
ENDBRANCH  20  25
ENDBRANCH   1  20
TORSDOF 3
