REMARK  Name = ZINC33766845
REMARK  13 active torsions:
REMARK  status: ('A' for Active; 'I' for Inactive)
REMARK    1  A    between atoms: C_1  and  C_2
REMARK    2  A    between atoms: C_4  and  C_12
REMARK    3  A    between atoms: C_6  and  N_9
REMARK    4  A    between atoms: C_7  and  C_8
REMARK    5  A    between atoms: C_15  and  C_17
REMARK    6  A    between atoms: N_18  and  N_19
REMARK    7  A    between atoms: C_20  and  C_22
REMARK    8  A    between atoms: C_22  and  C_24
REMARK    9  A    between atoms: C_22  and  N_27
REMARK   10  A    between atoms: C_24  and  C_25
REMARK   11  A    between atoms: C_24  and  C_26
REMARK   12  A    between atoms: C_28  and  C_30
REMARK   13  A    between atoms: C_30  and  C_31
REMARK                            x       y       z     vdW  Elec       q    Type
REMARK                         _______ _______ _______ _____ _____    ______ ____
ROOT
ATOM      1  C   UNL     1       0.328  -3.124  -0.351  0.00  0.00    +0.176 C 
ATOM      2  N   UNL     1      -0.014  -2.545   0.793  0.00  0.00    -0.185 NA
ENDROOT
BRANCH   1   6
ATOM      3  C   UNL     1       2.418  -0.912  -2.168  0.00  0.00    +0.136 A 
ATOM      4  C   UNL     1       2.272  -1.927  -3.146  0.00  0.00    +0.050 A 
ATOM      5  C   UNL     1       1.484  -2.897  -2.616  0.00  0.00    +0.051 A 
ATOM      6  C   UNL     1       1.128  -2.445  -1.262  0.00  0.00    +0.148 A 
ATOM      7  O   UNL     1       1.728  -1.251  -1.065  0.00  0.00    -0.454 OA
BRANCH   3  11
ATOM      8  C   UNL     1       4.244   3.258  -0.257  0.00  0.00    +0.044 C 
ATOM      9  C   UNL     1       4.068   2.305  -1.412  0.00  0.00    -0.045 A 
ATOM     10  C   UNL     1       3.332   1.166  -1.248  0.00  0.00    +0.015 A 
ATOM     11  C   UNL     1       3.174   0.275  -2.327  0.00  0.00    +0.020 A 
ATOM     12  C   UNL     1       3.768   0.577  -3.568  0.00  0.00    +0.044 A 
ATOM     13  C   UNL     1       4.495   1.725  -3.710  0.00  0.00    +0.130 A 
ATOM     14  C   UNL     1       4.649   2.592  -2.638  0.00  0.00    -0.017 A 
ATOM     15  C   UNL     1       5.453   3.855  -2.808  0.00  0.00    +0.046 C 
BRANCH  13  16
ATOM     16  N   UNL     1       5.120   2.045  -5.013  0.00  0.00    +0.057 N 
ATOM     17  O   UNL     1       5.147   3.289  -5.443  0.00  0.00    -0.126 OA
ATOM     18  O   UNL     1       5.650   1.085  -5.742  0.00  0.00    -0.126 OA
ENDBRANCH  13  16
ENDBRANCH   3  11
ENDBRANCH   1   6
BRANCH   2  19
ATOM     19  N   UNL     1       0.280  -1.306   1.002  0.00  0.00    -0.205 N 
ATOM     20  C   UNL     1       0.013  -0.743   2.196  0.00  0.00    +0.253 C 
ATOM     21  O   UNL     1       0.344   0.399   2.413  0.00  0.00    -0.272 OA
ATOM     22  H   UNL     1       0.748  -0.710   0.205  0.00  0.00    +0.177 HD
BRANCH  20  23
ATOM     23  C   UNL     1      -0.699  -1.536   3.262  0.00  0.00    +0.163 C 
BRANCH  23  24
ATOM     24  N   UNL     1      -1.403  -0.621   4.164  0.00  0.00    -0.303 N 
ATOM     25  C   UNL     1      -2.477  -1.050   4.855  0.00  0.00    +0.218 C 
ATOM     26  O   UNL     1      -2.862  -2.194   4.730  0.00  0.00    -0.275 OA
ATOM     27  H   UNL     1      -1.054   0.416   4.277  0.00  0.00    +0.149 HD
BRANCH  25  28
ATOM     28  C   UNL     1      -3.201  -0.109   5.784  0.00  0.00    +0.138 C 
BRANCH  28  29
ATOM     29  C   UNL     1      -4.356  -0.830   6.429  0.00  0.00    -0.001 A 
ATOM     30  C   UNL     1      -4.381  -1.540   7.583  0.00  0.00    +0.011 A 
ATOM     31  C   UNL     1      -5.570  -2.119   7.988  0.00  0.00    +0.008 A 
ATOM     32  C   UNL     1      -6.672  -1.968   7.214  0.00  0.00    +0.045 A 
ATOM     33  S   UNL     1      -6.045  -0.976   5.868  0.00  0.00    -0.101 S 
ENDBRANCH  28  29
ENDBRANCH  25  28
ENDBRANCH  23  24
BRANCH  23  34
ATOM     34  C   UNL     1       0.322  -2.352   4.057  0.00  0.00    +0.012 C 
ATOM     35  C   UNL     1       0.995  -3.368   3.132  0.00  0.00    +0.009 C 
ATOM     36  C   UNL     1      -0.389  -3.091   5.193  0.00  0.00    +0.009 C 
ENDBRANCH  23  34
ENDBRANCH  20  23
ENDBRANCH   2  19
TORSDOF 9
