REMARK  Name = ZINC62776683
REMARK  5 active torsions:
REMARK  status: ('A' for Active; 'I' for Inactive)
REMARK    1  A    between atoms: C_1  and  C_2
REMARK    2  A    between atoms: C_2  and  N_3
REMARK    3  A    between atoms: N_3  and  C_4
REMARK    4  A    between atoms: C_4  and  C_6
REMARK    5  A    between atoms: C_4  and  C_18
REMARK                            x       y       z     vdW  Elec       q    Type
REMARK                         _______ _______ _______ _____ _____    ______ ____
ROOT
ATOM      1  C   UNL     1       0.710  -1.947  -1.215  0.00  0.00    -0.006 C 
ENDROOT
BRANCH   1   2
ATOM      2  C   UNL     1       1.304  -2.434  -2.511  0.00  0.00    -0.039 A 
ATOM      3  C   UNL     1       2.179  -1.625  -3.215  0.00  0.00    +0.052 A 
ATOM      4  C   UNL     1       2.723  -2.076  -4.405  0.00  0.00    +0.162 A 
ATOM      5  C   UNL     1       2.393  -3.335  -4.889  0.00  0.00    +0.163 A 
ATOM      6  C   UNL     1       1.518  -4.141  -4.182  0.00  0.00    +0.065 A 
ATOM      7  C   UNL     1       0.979  -3.690  -2.989  0.00  0.00    +0.023 A 
ATOM      8 BR   UNL     1      -0.210  -4.791  -2.015  0.00  0.00    -0.050 Br
ATOM      9  O   UNL     1       2.937  -3.770  -6.062  0.00  0.00    -0.488 OA
ATOM     10  C   UNL     1       2.505  -3.088  -7.242  0.00  0.00    +0.232 C 
ATOM     11  C   UNL     1       3.321  -1.824  -7.463  0.00  0.00    +0.082 C 
ATOM     12  C   UNL     1       3.107  -0.797  -6.362  0.00  0.00    +0.232 C 
ATOM     13  O   UNL     1       3.588  -1.289  -5.109  0.00  0.00    -0.488 OA
ENDBRANCH   1   2
BRANCH   1  14
ATOM     14  C   UNL     1       1.542  -2.444  -0.061  0.00  0.00    -0.020 A 
ATOM     15  C   UNL     1       1.261  -3.511   0.722  0.00  0.00    +0.107 A 
ATOM     16  N   UNL     1       2.248  -3.623   1.635  0.00  0.00    -0.285 N 
ATOM     17  H   UNL     1       2.311  -4.299   2.328  0.00  0.00    +0.188 HD
ATOM     18  N   UNL     1       3.167  -2.590   1.406  0.00  0.00    -0.182 NA
ATOM     19  C   UNL     1       2.746  -1.888   0.385  0.00  0.00    +0.136 A 
ENDBRANCH   1  14
BRANCH   1  20
ATOM     20  N   UNL     1       0.690  -0.478  -1.207  0.00  0.00    +0.386 N 
ATOM     21  H   UNL     1       0.202  -0.144  -2.024  0.00  0.00    -0.085 HD
ATOM     22  H   UNL     1       1.636  -0.129  -1.214  0.00  0.00    -0.085 HD
BRANCH  20  24
ATOM     23  C   UNL     1      -0.019   1.526   0.010  0.00  0.00    -0.017 C 
ATOM     24  C   UNL     1       0.002  -0.004   0.002  0.00  0.00    -0.085 C 
ENDBRANCH  20  24
ENDBRANCH   1  20
TORSDOF 4
