REMARK  Name = ZINC05570086
REMARK  5 active torsions:
REMARK  status: ('A' for Active; 'I' for Inactive)
REMARK    1  A    between atoms: C_3  and  O_26
REMARK    2  A    between atoms: C_6  and  C_7
REMARK    3  A    between atoms: C_15  and  C_16
REMARK    4  A    between atoms: C_21  and  N_25
REMARK    5  A    between atoms: C_22  and  C_23
REMARK                            x       y       z     vdW  Elec       q    Type
REMARK                         _______ _______ _______ _____ _____    ______ ____
ROOT
ATOM      1  C   UNL     1       1.249   3.544  -0.049  0.00  0.00    +0.079 C 
ATOM      2  C   UNL     1       0.105   4.317  -0.680  0.00  0.00    +0.117 C 
ATOM      3  C   UNL     1      -1.150   3.985   0.194  0.00  0.00    +0.287 C 
ATOM      4  N   UNL     1      -1.990   5.108  -0.230  0.00  0.00    -0.230 N 
ATOM      5  N   UNL     1      -1.082   6.195  -0.308  0.00  0.00    -0.184 NA
ATOM      6  C   UNL     1       0.129   5.811  -0.550  0.00  0.00    +0.148 C 
ATOM      7  O   UNL     1      -1.531   2.675  -0.183  0.00  0.00    -0.455 OA
ATOM      8  C   UNL     1      -0.531   1.763  -0.034  0.00  0.00    +0.194 C 
ATOM      9  C   UNL     1       0.778   2.105   0.058  0.00  0.00    +0.094 C 
ATOM     10  H   UNL     1      -2.942   5.108  -0.414  0.00  0.00    +0.172 HD
ENDROOT
BRANCH   1  16
ATOM     11  C   UNL     1       2.664   3.641   2.014  0.00  0.00    +0.008 A 
ATOM     12  C   UNL     1       2.949   4.146   3.268  0.00  0.00    +0.045 A 
ATOM     13  C   UNL     1       2.115   5.098   3.837  0.00  0.00    +0.117 A 
ATOM     14  C   UNL     1       1.000   5.545   3.142  0.00  0.00    +0.045 A 
ATOM     15  C   UNL     1       0.722   5.040   1.887  0.00  0.00    +0.008 A 
ATOM     16  C   UNL     1       1.555   4.092   1.321  0.00  0.00    -0.038 A 
BRANCH  13  17
ATOM     17  O   UNL     1       2.391   5.593   5.072  0.00  0.00    -0.507 OA
ATOM     18  H   UNL     1       1.986   5.094   5.795  0.00  0.00    +0.292 HD
ENDBRANCH  13  17
ENDBRANCH   1  16
BRANCH   6  19
ATOM     19  C   UNL     1       1.339   6.700  -0.678  0.00  0.00    +0.432 C 
ATOM     20  F   UNL     1       0.960   8.034  -0.494  0.00  0.00    -0.165 F 
ATOM     21  F   UNL     1       2.283   6.345   0.291  0.00  0.00    -0.165 F 
ATOM     22  F   UNL     1       1.899   6.546  -1.952  0.00  0.00    -0.165 F 
ENDBRANCH   6  19
BRANCH   8  23
ATOM     23  N   UNL     1      -0.863   0.433   0.020  0.00  0.00    -0.329 N 
ATOM     24  H   UNL     1      -0.169  -0.237   0.122  0.00  0.00    +0.145 HD
ATOM     25  H   UNL     1      -1.792   0.162  -0.044  0.00  0.00    +0.145 HD
ENDBRANCH   8  23
BRANCH   9  26
ATOM     26  C   UNL     1       1.749   1.073   0.264  0.00  0.00    +0.100 C 
ATOM     27  N   UNL     1       2.519   0.254   0.427  0.00  0.00    -0.191 NA
ENDBRANCH   9  26
TORSDOF 5
