REMARK  Name = ZINC02255362
REMARK  6 active torsions:
REMARK  status: ('A' for Active; 'I' for Inactive)
REMARK    1  A    between atoms: C_1  and  O_2
REMARK    2  A    between atoms: O_2  and  C_3
REMARK    3  A    between atoms: C_6  and  C_9
REMARK    4  A    between atoms: C_10  and  C_11
REMARK    5  A    between atoms: C_19  and  C_30
REMARK    6  A    between atoms: C_22  and  C_24
REMARK                            x       y       z     vdW  Elec       q    Type
REMARK                         _______ _______ _______ _____ _____    ______ ____
ROOT
ATOM      1  C   UNL     1       3.188  -4.484  -5.565  0.00  0.00    +0.243 C 
ATOM      2  O   UNL     1       3.685  -3.810  -6.448  0.00  0.00    -0.270 OA
ATOM      3  N   UNL     1       3.237  -5.830  -5.636  0.00  0.00    -0.250 N 
ATOM      4  C   UNL     1       3.857  -6.449  -6.723  0.00  0.00    +0.243 A 
ATOM      5  N   UNL     1       4.441  -5.815  -7.746  0.00  0.00    -0.176 NA
ATOM      6  C   UNL     1       4.921  -6.692  -8.593  0.00  0.00    +0.251 A 
ATOM      7  N   UNL     1       4.646  -7.938  -8.097  0.00  0.00    -0.220 N 
ATOM      8  N   UNL     1       3.965  -7.751  -6.899  0.00  0.00    -0.131 NA
ATOM      9  C   UNL     1       5.055  -9.166  -8.780  0.00  0.00    +0.147 C 
ATOM     10  C   UNL     1       5.102  -8.878 -10.285  0.00  0.00    +0.087 C 
ATOM     11  C   UNL     1       5.736  -7.544 -10.560  0.00  0.00    +0.055 C 
ATOM     12  N   UNL     1       5.601  -6.523  -9.758  0.00  0.00    -0.215 NA
ATOM     13  H   UNL     1       2.841  -6.367  -4.932  0.00  0.00    +0.158 HD
ENDROOT
BRANCH   9  14
ATOM     14  C   UNL     1       6.419  -9.587  -8.297  0.00  0.00    -0.022 A 
ATOM     15  C   UNL     1       7.500  -8.740  -8.457  0.00  0.00    +0.008 A 
ATOM     16  C   UNL     1       8.751  -9.125  -8.014  0.00  0.00    +0.038 A 
ATOM     17  C   UNL     1       8.922 -10.359  -7.411  0.00  0.00    +0.123 A 
ATOM     18  C   UNL     1       7.839 -11.207  -7.252  0.00  0.00    +0.038 A 
ATOM     19  C   UNL     1       6.588 -10.817  -7.690  0.00  0.00    +0.008 A 
ATOM     20  F   UNL     1      10.145 -10.736  -6.979  0.00  0.00    -0.205 F 
ENDBRANCH   9  14
BRANCH  11  21
ATOM     21  C   UNL     1       6.542  -7.383 -11.781  0.00  0.00    -0.004 A 
ATOM     22  C   UNL     1       6.702  -8.455 -12.665  0.00  0.00    +0.010 A 
ATOM     23  C   UNL     1       7.458  -8.296 -13.807  0.00  0.00    +0.001 A 
ATOM     24  C   UNL     1       8.057  -7.079 -14.080  0.00  0.00    +0.000 A 
ATOM     25  C   UNL     1       7.903  -6.013 -13.211  0.00  0.00    +0.001 A 
ATOM     26  C   UNL     1       7.146  -6.154 -12.068  0.00  0.00    +0.010 A 
ENDBRANCH  11  21
BRANCH   1  28
ATOM     27  C   UNL     1       2.490  -2.489  -4.355  0.00  0.00    +0.013 C 
ATOM     28  C   UNL     1       2.539  -3.836  -4.427  0.00  0.00    +0.068 C 
BRANCH  27  32
ATOM     29  C   UNL     1       0.605  -0.606  -1.054  0.00  0.00    +0.120 A 
ATOM     30  C   UNL     1       1.172   0.166  -2.061  0.00  0.00    +0.046 A 
ATOM     31  C   UNL     1       1.785  -0.440  -3.135  0.00  0.00    +0.011 A 
ATOM     32  C   UNL     1       1.837  -1.836  -3.211  0.00  0.00    -0.025 A 
ATOM     33  C   UNL     1       1.264  -2.610  -2.195  0.00  0.00    +0.011 A 
ATOM     34  C   UNL     1       0.658  -1.994  -1.123  0.00  0.00    +0.046 A 
BRANCH  29  36
ATOM     35  C   UNL     1      -0.017   1.425   0.010  0.00  0.00    +0.277 C 
ATOM     36  O   UNL     1       0.002  -0.004   0.002  0.00  0.00    -0.495 OA
ENDBRANCH  29  36
ENDBRANCH  27  32
ENDBRANCH   1  28
TORSDOF 5
