REMARK  Name = ZINC17888618
REMARK  10 active torsions:
REMARK  status: ('A' for Active; 'I' for Inactive)
REMARK    1  A    between atoms: C_1  and  C_2
REMARK    2  A    between atoms: C_2  and  O_3
REMARK    3  A    between atoms: O_3  and  C_4
REMARK    4  A    between atoms: C_6  and  C_19
REMARK    5  A    between atoms: C_9  and  O_10
REMARK    6  A    between atoms: O_10  and  C_11
REMARK    7  A    between atoms: C_11  and  C_12
REMARK    8  A    between atoms: C_19  and  N_20
REMARK    9  A    between atoms: N_20  and  C_21
REMARK   10  A    between atoms: C_30  and  O_33
REMARK                            x       y       z     vdW  Elec       q    Type
REMARK                         _______ _______ _______ _____ _____    ______ ____
ROOT
ATOM      1  C   UNL     1       0.802  -1.825   1.306  0.00  0.00    +0.164 A 
ATOM      2  C   UNL     1       0.260  -2.673   0.352  0.00  0.00    +0.051 A 
ATOM      3  C   UNL     1       0.371  -4.043   0.502  0.00  0.00    -0.059 A 
ATOM      4  C   UNL     1       1.022  -4.571   1.601  0.00  0.00    +0.025 A 
ATOM      5  C   UNL     1       1.565  -3.731   2.557  0.00  0.00    +0.086 A 
ATOM      6  C   UNL     1       1.462  -2.356   2.409  0.00  0.00    +0.181 A 
ATOM      7 CL   UNL     1       2.381  -4.397   3.937  0.00  0.00    -0.080 Cl
ENDROOT
BRANCH   1   8
ATOM      8  O   UNL     1       0.693  -0.477   1.160  0.00  0.00    -0.489 OA
BRANCH   8  10
ATOM      9  C   UNL     1      -0.019   1.526   0.010  0.00  0.00    +0.048 C 
ATOM     10  C   UNL     1       0.002  -0.004   0.002  0.00  0.00    +0.226 C 
ENDBRANCH   8  10
ENDBRANCH   1   8
BRANCH   6  11
ATOM     11  O   UNL     1       2.001  -1.527   3.345  0.00  0.00    -0.482 OA
BRANCH  11  12
ATOM     12  C   UNL     1       1.161  -1.150   4.438  0.00  0.00    +0.264 C 
BRANCH  12  13
ATOM     13  C   UNL     1       1.923  -0.238   5.364  0.00  0.00    -0.010 A 
ATOM     14  C   UNL     1       2.658  -0.769   6.407  0.00  0.00    +0.007 A 
ATOM     15  C   UNL     1       3.357   0.068   7.257  0.00  0.00    +0.000 A 
ATOM     16  C   UNL     1       3.320   1.436   7.064  0.00  0.00    +0.000 A 
ATOM     17  C   UNL     1       2.585   1.967   6.021  0.00  0.00    +0.000 A 
ATOM     18  C   UNL     1       1.890   1.130   5.169  0.00  0.00    +0.007 A 
ENDBRANCH  12  13
ENDBRANCH  11  12
ENDBRANCH   6  11
BRANCH   3  19
ATOM     19  C   UNL     1      -0.218  -4.962  -0.536  0.00  0.00    -0.046 C 
BRANCH  19  20
ATOM     20  N   UNL     1       0.786  -5.240  -1.571  0.00  0.00    +0.386 N 
ATOM     21  H   UNL     1       1.066  -4.375  -2.009  0.00  0.00    -0.085 HD
ATOM     22  H   UNL     1       1.590  -5.680  -1.150  0.00  0.00    -0.085 HD
BRANCH  20  23
ATOM     23  C   UNL     1       0.211  -6.137  -2.583  0.00  0.00    -0.065 C 
ATOM     24  C   UNL     1      -0.214  -7.448  -1.920  0.00  0.00    -0.009 C 
ATOM     25  C   UNL     1      -0.813  -8.382  -2.974  0.00  0.00    -0.009 C 
ATOM     26  C   UNL     1      -2.033  -7.715  -3.612  0.00  0.00    +0.007 C 
ATOM     27  C   UNL     1      -1.607  -6.403  -4.276  0.00  0.00    -0.009 C 
ATOM     28  C   UNL     1      -1.009  -5.470  -3.222  0.00  0.00    -0.009 C 
ATOM     29  C   UNL     1      -0.561  -6.693  -5.354  0.00  0.00    +0.038 C 
ATOM     30  C   UNL     1       0.658  -7.360  -4.715  0.00  0.00    +0.065 C 
ATOM     31  C   UNL     1       0.233  -8.672  -4.052  0.00  0.00    +0.038 C 
ATOM     32  C   UNL     1       1.257  -6.426  -3.662  0.00  0.00    +0.022 C 
BRANCH  30  33
ATOM     33  O   UNL     1       1.635  -7.631  -5.722  0.00  0.00    -0.389 OA
ATOM     34  H   UNL     1       1.324  -8.218  -6.425  0.00  0.00    +0.210 HD
ENDBRANCH  30  33
ENDBRANCH  20  23
ENDBRANCH  19  20
ENDBRANCH   3  19
TORSDOF 9
