REMARK  Name = ZINC44163771
REMARK  7 active torsions:
REMARK  status: ('A' for Active; 'I' for Inactive)
REMARK    1  A    between atoms: C_1  and  C_2
REMARK    2  A    between atoms: C_2  and  C_4
REMARK    3  A    between atoms: C_2  and  C_28
REMARK    4  A    between atoms: C_4  and  N_5
REMARK    5  A    between atoms: C_6  and  C_8
REMARK    6  A    between atoms: C_13  and  C_16
REMARK    7  A    between atoms: C_19  and  C_22
REMARK                            x       y       z     vdW  Elec       q    Type
REMARK                         _______ _______ _______ _____ _____    ______ ____
ROOT
ATOM      1  C   UNL     1       4.443  -0.023   2.090  0.00  0.00    +0.027 C 
ATOM      2  C   UNL     1       5.083  -0.616   0.830  0.00  0.00    +0.062 C 
ATOM      3  S   UNL     1       6.806  -0.037   0.738  0.00  0.00    -0.163 S 
ATOM      4  C   UNL     1       7.439  -0.404   2.405  0.00  0.00    +0.058 C 
ATOM      5  C   UNL     1       6.446   0.158   3.430  0.00  0.00    -0.030 C 
ATOM      6  N   UNL     1       5.149  -0.505   3.279  0.00  0.00    +0.392 N 
ATOM      7  H   UNL     1       4.586  -0.319   4.096  0.00  0.00    -0.084 HD
ATOM      8  H   UNL     1       5.292  -1.500   3.197  0.00  0.00    -0.084 HD
ENDROOT
BRANCH   5   9
ATOM      9  C   UNL     1       6.972  -0.085   4.821  0.00  0.00    -0.061 A 
ATOM     10  C   UNL     1       6.828  -1.331   5.405  0.00  0.00    +0.002 A 
ATOM     11  C   UNL     1       7.308  -1.558   6.679  0.00  0.00    +0.009 A 
ATOM     12  C   UNL     1       7.938  -0.530   7.377  0.00  0.00    -0.018 A 
ATOM     13  C   UNL     1       8.081   0.722   6.784  0.00  0.00    +0.009 A 
ATOM     14  C   UNL     1       7.602   0.938   5.508  0.00  0.00    +0.002 A 
BRANCH  12  15
ATOM     15  C   UNL     1       8.456  -0.769   8.747  0.00  0.00    -0.018 A 
ATOM     16  C   UNL     1       8.318  -2.024   9.338  0.00  0.00    +0.008 A 
ATOM     17  C   UNL     1       8.801  -2.240  10.612  0.00  0.00    +0.001 A 
ATOM     18  C   UNL     1       9.421  -1.215  11.303  0.00  0.00    +0.000 A 
ATOM     19  C   UNL     1       9.560   0.032  10.722  0.00  0.00    +0.001 A 
ATOM     20  C   UNL     1       9.086   0.259   9.445  0.00  0.00    +0.008 A 
ENDBRANCH  12  15
ENDBRANCH   5   9
BRANCH   1  22
ATOM     21  N   UNL     1       2.148  -0.104   1.172  0.00  0.00    -0.316 N 
ATOM     22  C   UNL     1       2.997  -0.441   2.162  0.00  0.00    +0.200 C 
ATOM     23  O   UNL     1       2.598  -1.082   3.111  0.00  0.00    -0.278 OA
ATOM     24  H   UNL     1       2.467   0.409   0.412  0.00  0.00    +0.149 HD
BRANCH  21  25
ATOM     25  C   UNL     1       0.742  -0.511   1.242  0.00  0.00    +0.112 C 
BRANCH  25  27
ATOM     26  C   UNL     1      -0.019   1.526   0.010  0.00  0.00    +0.014 C 
ATOM     27  C   UNL     1       0.002  -0.004   0.002  0.00  0.00    +0.033 C 
BRANCH  27  28
ATOM     28  C   UNL     1      -1.412  -0.526   0.013  0.00  0.00    -0.043 A 
ATOM     29  C   UNL     1      -2.259  -0.204   1.056  0.00  0.00    +0.004 A 
ATOM     30  C   UNL     1      -3.556  -0.683   1.066  0.00  0.00    +0.000 A 
ATOM     31  C   UNL     1      -4.006  -1.482   0.032  0.00  0.00    +0.000 A 
ATOM     32  C   UNL     1      -3.159  -1.803  -1.012  0.00  0.00    +0.000 A 
ATOM     33  C   UNL     1      -1.863  -1.321  -1.024  0.00  0.00    +0.004 A 
ENDBRANCH  27  28
ENDBRANCH  25  27
ENDBRANCH  21  25
ENDBRANCH   1  22
TORSDOF 6
