REMARK  Name = ZINC35983013
REMARK  3 active torsions:
REMARK  status: ('A' for Active; 'I' for Inactive)
REMARK    1  A    between atoms: C_1  and  O_2
REMARK    2  A    between atoms: O_2  and  C_3
REMARK    3  A    between atoms: C_6  and  C_9
REMARK                            x       y       z     vdW  Elec       q    Type
REMARK                         _______ _______ _______ _____ _____    ______ ____
ROOT
ATOM      1  C   UNL     1       2.491  -2.491  -4.361  0.00  0.00    +0.068 C 
ATOM      2  N   UNL     1       3.055  -1.876  -5.348  0.00  0.00    -0.184 NA
ATOM      3  N   UNL     1       3.562  -2.729  -6.313  0.00  0.00    -0.195 N 
ATOM      4  C   UNL     1       3.522  -4.115  -5.790  0.00  0.00    +0.137 C 
ATOM      5  C   UNL     1       2.614  -3.988  -4.561  0.00  0.00    +0.086 C 
ATOM      6  C   UNL     1       2.925  -4.966  -6.880  0.00  0.00    +0.018 A 
ATOM      7  C   UNL     1       2.443  -6.223  -6.565  0.00  0.00    +0.029 A 
ATOM      8  C   UNL     1       1.907  -7.033  -7.549  0.00  0.00    +0.042 A 
ATOM      9  C   UNL     1       1.854  -6.581  -8.856  0.00  0.00    +0.023 A 
ATOM     10  C   UNL     1       2.327  -5.326  -9.172  0.00  0.00    +0.047 A 
ATOM     11  C   UNL     1       2.861  -4.499  -8.184  0.00  0.00    +0.130 A 
ATOM     12  O   UNL     1       3.266  -3.258  -8.563  0.00  0.00    -0.454 OA
ATOM     13  C   UNL     1       4.019  -2.461  -7.675  0.00  0.00    +0.298 C 
ATOM     14  C   UNL     1       3.933  -1.009  -8.012  0.00  0.00    +0.047 A 
ATOM     15  C   UNL     1       2.865  -0.138  -8.051  0.00  0.00    +0.027 A 
ATOM     16  C   UNL     1       3.136   1.178  -8.412  0.00  0.00    +0.018 A 
ATOM     17  C   UNL     1       4.418   1.591  -8.718  0.00  0.00    +0.017 A 
ATOM     18  C   UNL     1       5.496   0.721  -8.680  0.00  0.00    +0.025 A 
ATOM     19  C   UNL     1       5.238  -0.602  -8.318  0.00  0.00    +0.043 A 
ATOM     20  N   UNL     1       6.115  -1.667  -8.197  0.00  0.00    -0.280 N 
ATOM     21  C   UNL     1       5.485  -2.800  -7.821  0.00  0.00    +0.287 C 
ATOM     22  O   UNL     1       5.998  -3.883  -7.634  0.00  0.00    -0.269 OA
ATOM     23 BR   UNL     1       1.718   2.428  -8.487  0.00  0.00    -0.050 Br
ATOM     24 CL   UNL     1       1.302  -8.610  -7.146  0.00  0.00    -0.084 Cl
ATOM     25  H   UNL     1       7.069  -1.606  -8.364  0.00  0.00    +0.155 HD
ENDROOT
BRANCH   1  29
ATOM     26  C   UNL     1       0.606  -0.607  -1.056  0.00  0.00    +0.120 A 
ATOM     27  C   UNL     1       1.172   0.165  -2.062  0.00  0.00    +0.046 A 
ATOM     28  C   UNL     1       1.786  -0.443  -3.136  0.00  0.00    +0.013 A 
ATOM     29  C   UNL     1       1.837  -1.837  -3.212  0.00  0.00    -0.002 A 
ATOM     30  C   UNL     1       1.265  -2.609  -2.198  0.00  0.00    +0.013 A 
ATOM     31  C   UNL     1       0.659  -1.993  -1.124  0.00  0.00    +0.046 A 
BRANCH  26  33
ATOM     32  C   UNL     1      -0.017   1.425   0.010  0.00  0.00    +0.277 C 
ATOM     33  O   UNL     1       0.002  -0.004   0.002  0.00  0.00    -0.495 OA
ENDBRANCH  26  33
ENDBRANCH   1  29
TORSDOF 2
