REMARK  Name = ZINC31847500
REMARK  10 active torsions:
REMARK  status: ('A' for Active; 'I' for Inactive)
REMARK    1  A    between atoms: C_1  and  C_2
REMARK    2  A    between atoms: C_2  and  C_4
REMARK    3  A    between atoms: C_2  and  N_22
REMARK    4  A    between atoms: C_4  and  C_5
REMARK    5  A    between atoms: C_5  and  C_6
REMARK    6  A    between atoms: C_6  and  N_7
REMARK    7  A    between atoms: N_7  and  C_8
REMARK    8  A    between atoms: N_22  and  C_23
REMARK    9  A    between atoms: C_25  and  O_33
REMARK   10  A    between atoms: O_33  and  C_34
REMARK                            x       y       z     vdW  Elec       q    Type
REMARK                         _______ _______ _______ _____ _____    ______ ____
ROOT
ATOM      1  C   UNL     1      -5.655   2.572   1.329  0.00  0.00    +0.020 C 
ENDROOT
BRANCH   1   2
ATOM      2  C   UNL     1      -6.414   2.829   2.632  0.00  0.00    +0.023 C 
BRANCH   2   4
ATOM      3  C   UNL     1      -8.381   2.140   4.010  0.00  0.00    +0.028 C 
ATOM      4  C   UNL     1      -7.686   1.979   2.657  0.00  0.00    +0.067 C 
BRANCH   4   5
ATOM      5  N   UNL     1      -8.588   2.419   1.589  0.00  0.00    -0.340 N 
ATOM      6  H   UNL     1      -8.524   3.447   1.204  0.00  0.00    +0.146 HD
BRANCH   5   7
ATOM      7  C   UNL     1      -9.527   1.534   1.062  0.00  0.00    +0.057 A 
ATOM      8  C   UNL     1      -9.606   0.245   1.538  0.00  0.00    +0.070 A 
ATOM      9  C   UNL     1     -10.546  -0.651   1.023  0.00  0.00    +0.123 A 
ATOM     10  C   UNL     1     -11.407  -0.267   0.020  0.00  0.00    +0.055 A 
ATOM     11  C   UNL     1     -11.346   1.040  -0.489  0.00  0.00    +0.006 A 
ATOM     12  C   UNL     1     -10.399   1.955   0.033  0.00  0.00    +0.092 A 
ATOM     13  N   UNL     1     -10.340   3.198  -0.452  0.00  0.00    -0.253 NA
ATOM     14  C   UNL     1     -11.143   3.598  -1.407  0.00  0.00    +0.111 A 
ATOM     15  C   UNL     1     -12.097   2.749  -1.965  0.00  0.00    +0.020 A 
ATOM     16  C   UNL     1     -12.211   1.464  -1.516  0.00  0.00    +0.011 A 
BRANCH   9  17
ATOM     17  O   UNL     1     -10.608  -1.916   1.514  0.00  0.00    -0.495 OA
ATOM     18  C   UNL     1     -11.587  -2.787   0.943  0.00  0.00    +0.277 C 
ENDBRANCH   9  17
ENDBRANCH   5   7
ENDBRANCH   4   5
ENDBRANCH   2   4
ENDBRANCH   1   2
BRANCH   1  19
ATOM     19  C   UNL     1      -4.383   3.422   1.304  0.00  0.00    +0.101 C 
BRANCH  19  20
ATOM     20  N   UNL     1      -3.653   3.176   0.053  0.00  0.00    -0.343 N 
ATOM     21  H   UNL     1      -4.006   2.404  -0.647  0.00  0.00    +0.146 HD
BRANCH  20  22
ATOM     22  C   UNL     1      -2.562   4.011  -0.055  0.00  0.00    +0.046 A 
ATOM     23  C   UNL     1      -1.335   3.689   0.557  0.00  0.00    +0.020 A 
ATOM     24  C   UNL     1      -1.185   2.502   1.294  0.00  0.00    +0.012 A 
ATOM     25  C   UNL     1       0.009   2.219   1.879  0.00  0.00    +0.001 A 
ATOM     26  C   UNL     1       1.094   3.087   1.749  0.00  0.00    +0.002 A 
ATOM     27  C   UNL     1       0.988   4.241   1.040  0.00  0.00    +0.026 A 
ATOM     28  C   UNL     1      -0.234   4.576   0.422  0.00  0.00    +0.049 A 
ATOM     29  N   UNL     1      -0.351   5.704  -0.276  0.00  0.00    -0.354 N 
ATOM     30  C   UNL     1      -1.491   6.049  -0.871  0.00  0.00    +0.049 A 
ATOM     31  C   UNL     1      -2.637   5.216  -0.783  0.00  0.00    +0.020 A 
ATOM     32  C   UNL     1      -3.829   5.601  -1.421  0.00  0.00    +0.012 A 
ATOM     33  C   UNL     1      -3.873   6.770  -2.117  0.00  0.00    +0.001 A 
ATOM     34  C   UNL     1      -2.749   7.591  -2.206  0.00  0.00    +0.002 A 
ATOM     35  C   UNL     1      -1.579   7.251  -1.603  0.00  0.00    +0.026 A 
ATOM     36  H   UNL     1       0.510   6.382  -0.373  0.00  0.00    +0.166 HD
ENDBRANCH  20  22
ENDBRANCH  19  20
ENDBRANCH   1  19
TORSDOF 8
