REMARK  Name = ZINC39855945
REMARK  6 active torsions:
REMARK  status: ('A' for Active; 'I' for Inactive)
REMARK    1  A    between atoms: C_1  and  C_2
REMARK    2  A    between atoms: C_6  and  C_7
REMARK    3  A    between atoms: C_18  and  C_20
REMARK    4  A    between atoms: C_23  and  C_31
REMARK    5  A    between atoms: C_23  and  C_32
REMARK    6  A    between atoms: N_26  and  N_27
REMARK                            x       y       z     vdW  Elec       q    Type
REMARK                         _______ _______ _______ _____ _____    ______ ____
ROOT
ATOM      1  C   UNL     1       0.549   0.193  -0.291  0.00  0.00    +0.048 C 
ATOM      2  C   UNL     1      -0.579  -0.766  -0.011  0.00  0.00    +0.009 A 
ATOM      3  C   UNL     1      -1.310  -1.501  -0.952  0.00  0.00    +0.043 A 
ATOM      4  C   UNL     1      -2.240  -2.243  -0.263  0.00  0.00    +0.116 A 
ATOM      5  O   UNL     1      -2.093  -1.987   1.035  0.00  0.00    -0.454 OA
ATOM      6  C   UNL     1      -1.089  -1.098   1.214  0.00  0.00    +0.193 A 
ATOM      7  C   UNL     1      -3.223  -3.163  -0.943  0.00  0.00    +0.081 C 
ATOM      8  C   UNL     1      -3.368  -2.755  -2.412  0.00  0.00    -0.023 C 
ATOM      9  C   UNL     1      -1.996  -2.675  -3.089  0.00  0.00    +0.064 C 
ATOM     10  C   UNL     1      -1.202  -1.559  -2.427  0.00  0.00    +0.073 C 
ATOM     11  N   UNL     1      -0.483  -0.719  -3.105  0.00  0.00    -0.175 NA
ATOM     12  C   UNL     1      -4.231  -3.789  -3.139  0.00  0.00    +0.011 C 
ATOM     13  C   UNL     1      -4.050  -1.387  -2.490  0.00  0.00    +0.011 C 
ENDROOT
BRANCH   6  14
ATOM     14  C   UNL     1      -0.628  -0.575   2.504  0.00  0.00    +0.287 C 
ATOM     15  O   UNL     1      -0.434   0.619   2.643  0.00  0.00    -0.266 OA
ATOM     16  N   UNL     1      -0.419  -1.416   3.537  0.00  0.00    -0.262 N 
ATOM     17  C   UNL     1      -0.448  -2.804   3.342  0.00  0.00    +0.040 A 
ATOM     18  C   UNL     1      -0.411  -3.306   2.046  0.00  0.00    +0.026 A 
ATOM     19  C   UNL     1      -0.442  -4.670   1.832  0.00  0.00    +0.040 A 
ATOM     20  C   UNL     1      -0.511  -5.536   2.910  0.00  0.00    +0.124 A 
ATOM     21  C   UNL     1      -0.546  -5.037   4.200  0.00  0.00    +0.043 A 
ATOM     22  C   UNL     1      -0.512  -3.671   4.421  0.00  0.00    -0.023 A 
ATOM     23  C   UNL     1      -0.542  -3.162   5.838  0.00  0.00    +0.039 C 
ATOM     24  C   UNL     1      -1.002  -1.705   5.875  0.00  0.00    +0.027 C 
ATOM     25  C   UNL     1      -0.151  -0.893   4.883  0.00  0.00    +0.079 C 
ATOM     26  C   UNL     1      -0.542   0.585   4.953  0.00  0.00    +0.028 C 
ATOM     27  F   UNL     1      -0.543  -6.870   2.702  0.00  0.00    -0.205 F 
ENDBRANCH   6  14
BRANCH  11  28
ATOM     28  N   UNL     1      -0.417  -0.821  -4.501  0.00  0.00    -0.248 N 
ATOM     29  C   UNL     1       0.342   0.065  -5.217  0.00  0.00    +0.187 C 
ATOM     30  N   UNL     1       0.405  -0.032  -6.545  0.00  0.00    -0.370 N 
ATOM     31  N   UNL     1       1.019   1.024  -4.586  0.00  0.00    -0.370 N 
ATOM     32  H   UNL     1      -0.910  -1.520  -4.960  0.00  0.00    +0.192 HD
ATOM     33  H   UNL     1      -0.088  -0.730  -7.004  0.00  0.00    +0.159 HD
ATOM     34  H   UNL     1       0.973   1.095  -3.620  0.00  0.00    +0.159 HD
ATOM     35  H   UNL     1       1.557   1.652  -5.093  0.00  0.00    +0.159 HD
ATOM     36  H   UNL     1       0.943   0.596  -7.052  0.00  0.00    +0.159 HD
ENDBRANCH  11  28
TORSDOF 2
