REMARK  Name = ZINC08723565
REMARK  9 active torsions:
REMARK  status: ('A' for Active; 'I' for Inactive)
REMARK    1  A    between atoms: C_1  and  C_2
REMARK    2  A    between atoms: C_2  and  C_3
REMARK    3  A    between atoms: C_2  and  C_4
REMARK    4  A    between atoms: C_7  and  C_10
REMARK    5  A    between atoms: C_10  and  N_11
REMARK    6  A    between atoms: N_11  and  C_12
REMARK    7  A    between atoms: C_15  and  C_17
REMARK    8  A    between atoms: C_17  and  N_18
REMARK    9  A    between atoms: C_27  and  C_29
REMARK                            x       y       z     vdW  Elec       q    Type
REMARK                         _______ _______ _______ _____ _____    ______ ____
ROOT
ATOM      1  C   UNL     1      -1.821  -2.907  -2.432  0.00  0.00    +0.243 C 
ENDROOT
BRANCH   1   2
ATOM      2  N   UNL     1      -0.553  -2.452  -1.856  0.00  0.00    -0.219 N 
ATOM      3  C   UNL     1       0.464  -3.334  -1.774  0.00  0.00    +0.275 A 
ATOM      4  O   UNL     1       0.331  -4.478  -2.169  0.00  0.00    -0.266 OA
ATOM      5  C   UNL     1       1.738  -2.882  -1.197  0.00  0.00    +0.050 A 
ATOM      6  C   UNL     1       2.846  -3.713  -1.068  0.00  0.00    +0.014 A 
ATOM      7  C   UNL     1       4.006  -3.212  -0.515  0.00  0.00    +0.001 A 
ATOM      8  C   UNL     1       4.076  -1.893  -0.089  0.00  0.00    +0.001 A 
ATOM      9  C   UNL     1       2.989  -1.053  -0.208  0.00  0.00    +0.011 A 
ATOM     10  C   UNL     1       1.810  -1.538  -0.763  0.00  0.00    +0.020 A 
ATOM     11  C   UNL     1       0.605  -0.709  -0.925  0.00  0.00    +0.153 A 
ATOM     12  N   UNL     1      -0.470  -1.239  -1.457  0.00  0.00    -0.162 NA
BRANCH  11  13
ATOM     13  C   UNL     1       0.606   0.703  -0.494  0.00  0.00    +0.262 C 
ATOM     14  O   UNL     1       1.606   1.187  -0.001  0.00  0.00    -0.269 OA
ATOM     15  N   UNL     1      -0.502   1.455  -0.646  0.00  0.00    -0.324 N 
ATOM     16  H   UNL     1      -1.300   1.069  -1.040  0.00  0.00    +0.145 HD
ATOM     17  H   UNL     1      -0.502   2.382  -0.363  0.00  0.00    +0.145 HD
ENDBRANCH  11  13
ENDBRANCH   1   2
BRANCH   1  19
ATOM     18  N   UNL     1      -3.965  -3.832  -1.616  0.00  0.00    -0.293 N 
ATOM     19  C   UNL     1      -2.700  -3.457  -1.339  0.00  0.00    +0.238 C 
ATOM     20  O   UNL     1      -2.270  -3.562  -0.209  0.00  0.00    -0.274 OA
BRANCH  18  21
ATOM     21  C   UNL     1      -4.878  -4.191  -0.527  0.00  0.00    +0.077 C 
ATOM     22  C   UNL     1      -4.487  -3.769   0.890  0.00  0.00    +0.024 C 
ATOM     23  C   UNL     1      -4.400  -5.241   0.478  0.00  0.00    +0.024 C 
ENDBRANCH  18  21
BRANCH  18  24
ATOM     24  C   UNL     1      -4.427  -3.881  -3.005  0.00  0.00    +0.143 C 
BRANCH  24  28
ATOM     25  C   UNL     1      -4.146  -7.888  -4.459  0.00  0.00    -0.045 A 
ATOM     26  C   UNL     1      -5.329  -7.435  -3.905  0.00  0.00    +0.004 A 
ATOM     27  C   UNL     1      -5.420  -6.138  -3.434  0.00  0.00    +0.005 A 
ATOM     28  C   UNL     1      -4.328  -5.294  -3.518  0.00  0.00    -0.030 A 
ATOM     29  C   UNL     1      -3.147  -5.746  -4.077  0.00  0.00    +0.005 A 
ATOM     30  C   UNL     1      -3.055  -7.044  -4.544  0.00  0.00    +0.004 A 
BRANCH  25  32
ATOM     31  C   UNL     1      -3.711  -9.281  -6.464  0.00  0.00    +0.012 C 
ATOM     32  C   UNL     1      -4.047  -9.302  -4.971  0.00  0.00    +0.013 C 
ATOM     33  C   UNL     1      -2.946 -10.043  -4.211  0.00  0.00    +0.012 C 
ENDBRANCH  25  32
ENDBRANCH  24  28
ENDBRANCH  18  24
ENDBRANCH   1  19
TORSDOF 7
