REMARK  Name = ZINC57872601
REMARK  4 active torsions:
REMARK  status: ('A' for Active; 'I' for Inactive)
REMARK    1  A    between atoms: C_6  and  C_7
REMARK    2  A    between atoms: C_8  and  C_9
REMARK    3  A    between atoms: N_12  and  C_16
REMARK    4  A    between atoms: C_16  and  C_17
REMARK                            x       y       z     vdW  Elec       q    Type
REMARK                         _______ _______ _______ _____ _____    ______ ____
ROOT
ATOM      1  C   UNL     1      -2.500  -2.862   0.011  0.00  0.00    -0.019 A 
ATOM      2  C   UNL     1      -3.746  -2.186   0.022  0.00  0.00    +0.026 A 
ATOM      3  C   UNL     1      -4.892  -2.897   0.029  0.00  0.00    +0.089 A 
ATOM      4  N   UNL     1      -4.873  -4.258   0.028  0.00  0.00    -0.315 N 
ATOM      5  C   UNL     1      -3.713  -4.939   0.019  0.00  0.00    +0.252 A 
ATOM      6  O   UNL     1      -3.725  -6.161   0.018  0.00  0.00    -0.268 OA
ATOM      7  C   UNL     1      -2.493  -4.254   0.004  0.00  0.00    +0.078 A 
ENDROOT
BRANCH   1   9
ATOM      8  C   UNL     1      -1.261  -0.761   0.011  0.00  0.00    +0.008 C 
ATOM      9  C   UNL     1      -1.239  -2.106   0.003  0.00  0.00    +0.009 C 
BRANCH   8  15
ATOM     10  C   UNL     1      -0.017   1.394   0.010  0.00  0.00    +0.009 A 
ATOM     11  C   UNL     1       1.169   2.096   0.002  0.00  0.00    +0.020 A 
ATOM     12  C   UNL     1       2.378   1.420  -0.013  0.00  0.00    +0.041 A 
ATOM     13  C   UNL     1       2.405   0.035  -0.022  0.00  0.00    +0.020 A 
ATOM     14  C   UNL     1       1.226  -0.680  -0.014  0.00  0.00    +0.009 A 
ATOM     15  C   UNL     1       0.002  -0.004   0.002  0.00  0.00    -0.025 A 
ATOM     16 CL   UNL     1       3.867   2.312  -0.024  0.00  0.00    -0.084 Cl
ENDBRANCH   8  15
ENDBRANCH   1   9
BRANCH   4  17
ATOM     17  C   UNL     1      -6.139  -4.994   0.038  0.00  0.00    +0.126 C 
BRANCH  17  18
ATOM     18  C   UNL     1      -6.591  -5.249  -1.401  0.00  0.00    -0.008 C 
ATOM     19  C   UNL     1      -5.591  -6.178  -2.095  0.00  0.00    +0.001 C 
ATOM     20  C   UNL     1      -6.093  -6.489  -3.508  0.00  0.00    -0.019 C 
ATOM     21  C   UNL     1      -7.491  -7.105  -3.422  0.00  0.00    -0.083 C 
ATOM     22  N   UNL     1      -8.407  -6.158  -2.773  0.00  0.00    +0.379 N 
ATOM     23  C   UNL     1      -7.972  -5.909  -1.394  0.00  0.00    -0.077 C 
ATOM     24  H   UNL     1      -8.409  -5.289  -3.286  0.00  0.00    -0.086 HD
ATOM     25  H   UNL     1      -9.339  -6.545  -2.766  0.00  0.00    -0.086 HD
ENDBRANCH  17  18
ENDBRANCH   4  17
TORSDOF 4
