REMARK  Name = ZINC33087880
REMARK  1 active torsions:
REMARK  status: ('A' for Active; 'I' for Inactive)
REMARK    1  A    between atoms: C_16  and  C_19
REMARK                            x       y       z     vdW  Elec       q    Type
REMARK                         _______ _______ _______ _____ _____    ______ ____
ROOT
ATOM      1  C   UNL     1      -3.610   1.625   0.306  0.00  0.00    +0.017 A 
ATOM      2  C   UNL     1      -2.399   0.962   0.290  0.00  0.00    +0.024 A 
ATOM      3  C   UNL     1      -1.227   1.660   0.017  0.00  0.00    +0.033 A 
ATOM      4  C   UNL     1      -1.274   3.023  -0.226  0.00  0.00    +0.003 A 
ATOM      5  C   UNL     1      -2.492   3.681  -0.211  0.00  0.00    +0.023 A 
ATOM      6  C   UNL     1      -3.656   2.984   0.054  0.00  0.00    +0.018 A 
ATOM      7 BR   UNL     1      -5.315   3.892   0.074  0.00  0.00    -0.050 Br
ATOM      8  C   UNL     1      -0.022   3.813  -0.513  0.00  0.00    +0.155 C 
ATOM      9  C   UNL     1       1.084   2.879  -0.999  0.00  0.00    +0.047 C 
ATOM     10  C   UNL     1       2.400   3.638  -1.147  0.00  0.00    +0.011 C 
ATOM     11  C   UNL     1       2.740   4.334   0.175  0.00  0.00    +0.028 C 
ATOM     12  C   UNL     1       1.577   5.251   0.563  0.00  0.00    +0.160 C 
ATOM     13  O   UNL     1       0.388   4.470   0.689  0.00  0.00    -0.372 OA
ATOM     14  C   UNL     1       1.245   1.729  -0.001  0.00  0.00    +0.107 C 
ATOM     15  N   UNL     1      -0.011   0.966   0.007  0.00  0.00    -0.336 N 
ATOM     16  H   UNL     1       0.014  -0.134   0.006  0.00  0.00    +0.147 HD
ENDROOT
BRANCH  14  17
ATOM     17  C   UNL     1       2.382   0.838  -0.427  0.00  0.00    -0.024 A 
ATOM     18  C   UNL     1       2.214  -0.091  -1.443  0.00  0.00    +0.023 A 
ATOM     19  C   UNL     1       3.281  -0.888  -1.811  0.00  0.00    +0.083 A 
ATOM     20  N   UNL     1       4.445  -0.780  -1.201  0.00  0.00    -0.367 N 
ATOM     21  C   UNL     1       4.640   0.088  -0.228  0.00  0.00    +0.083 A 
ATOM     22  C   UNL     1       3.621   0.922   0.190  0.00  0.00    +0.023 A 
ATOM     23  H   UNL     1       5.285  -1.424  -1.501  0.00  0.00    +0.165 HD
ENDBRANCH  14  17
TORSDOF 1
