REMARK  Name = ZINC14961704
REMARK  9 active torsions:
REMARK  status: ('A' for Active; 'I' for Inactive)
REMARK    1  A    between atoms: C_1  and  C_2
REMARK    2  A    between atoms: C_7  and  C_8
REMARK    3  A    between atoms: C_8  and  C_9
REMARK    4  A    between atoms: C_9  and  C_11
REMARK    5  A    between atoms: C_9  and  N_52
REMARK    6  A    between atoms: C_11  and  O_12
REMARK    7  A    between atoms: O_12  and  C_13
REMARK    8  A    between atoms: C_15  and  C_19
REMARK    9  A    between atoms: C_25  and  C_29
REMARK                            x       y       z     vdW  Elec       q    Type
REMARK                         _______ _______ _______ _____ _____    ______ ____
ROOT
ATOM      1  C   UNL     1      -8.020   1.739  -0.315  0.00  0.00    +0.139 A 
ATOM      2  C   UNL     1      -6.961   1.783   0.582  0.00  0.00    +0.057 A 
ATOM      3  C   UNL     1      -5.759   1.173   0.217  0.00  0.00    +0.004 A 
ATOM      4  C   UNL     1      -5.672   0.540  -1.021  0.00  0.00    +0.119 A 
ATOM      5  N   UNL     1      -6.704   0.518  -1.840  0.00  0.00    -0.259 NA
ATOM      6  C   UNL     1      -7.852   1.087  -1.529  0.00  0.00    +0.156 A 
ENDROOT
BRANCH   3   7
ATOM      7  C   UNL     1      -4.593   1.195   1.136  0.00  0.00    -0.016 A 
ATOM      8  C   UNL     1      -4.695   1.835   2.377  0.00  0.00    +0.010 A 
ATOM      9  C   UNL     1      -3.635   1.865   3.233  0.00  0.00    +0.028 A 
ATOM     10  C   UNL     1      -2.433   1.254   2.881  0.00  0.00    +0.066 A 
ATOM     11  C   UNL     1      -2.316   0.611   1.633  0.00  0.00    +0.023 A 
ATOM     12  C   UNL     1      -3.409   0.581   0.762  0.00  0.00    +0.020 A 
ATOM     13  C   UNL     1      -0.957   0.079   1.572  0.00  0.00    +0.067 A 
ATOM     14  N   UNL     1      -0.355   0.398   2.681  0.00  0.00    -0.178 NA
ATOM     15  N   UNL     1      -1.222   1.118   3.509  0.00  0.00    -0.277 N 
ATOM     16  H   UNL     1      -0.995   1.475   4.415  0.00  0.00    +0.189 HD
ATOM     17  C   UNL     1      -0.358  -0.696   0.427  0.00  0.00    +0.068 C 
ENDBRANCH   3   7
BRANCH   1  18
ATOM     18  O   UNL     1      -9.209   2.322  -0.006  0.00  0.00    -0.492 OA
BRANCH  18  19
ATOM     19  C   UNL     1     -10.250   2.228  -0.981  0.00  0.00    +0.213 C 
BRANCH  19  20
ATOM     20  C   UNL     1     -11.501   2.937  -0.459  0.00  0.00    -0.033 C 
BRANCH  20  23
ATOM     21  H   UNL     1     -10.533   4.542   0.392  0.00  0.00    -0.089 HD
ATOM     22  H   UNL     1     -10.947   4.775  -1.202  0.00  0.00    -0.089 HD
ATOM     23  N   UNL     1     -11.251   4.382  -0.313  0.00  0.00    +0.382 N 
ATOM     24  H   UNL     1     -12.118   4.847  -0.019  0.00  0.00    -0.089 HD
ENDBRANCH  20  23
BRANCH  20  25
ATOM     25  C   UNL     1     -12.653   2.730  -1.445  0.00  0.00    +0.022 C 
BRANCH  25  32
ATOM     26  C   UNL     1     -14.188   1.234   0.491  0.00  0.00    +0.044 C 
ATOM     27  C   UNL     1     -14.651   2.600   0.055  0.00  0.00    -0.045 A 
ATOM     28  C   UNL     1     -15.811   3.136   0.582  0.00  0.00    +0.042 A 
ATOM     29  C   UNL     1     -16.237   4.391   0.182  0.00  0.00    +0.124 A 
ATOM     30  C   UNL     1     -15.501   5.108  -0.746  0.00  0.00    +0.038 A 
ATOM     31  C   UNL     1     -14.338   4.572  -1.267  0.00  0.00    +0.006 A 
ATOM     32  C   UNL     1     -13.917   3.316  -0.871  0.00  0.00    -0.046 A 
ATOM     33  F   UNL     1     -17.371   4.916   0.697  0.00  0.00    -0.205 F 
ENDBRANCH  25  32
ENDBRANCH  20  25
ENDBRANCH  19  20
ENDBRANCH  18  19
ENDBRANCH   1  18
TORSDOF 7
