REMARK  Name = ZINC66986039
REMARK  7 active torsions:
REMARK  status: ('A' for Active; 'I' for Inactive)
REMARK    1  A    between atoms: C_1  and  C_2
REMARK    2  A    between atoms: N_7  and  C_9
REMARK    3  A    between atoms: C_9  and  C_10
REMARK    4  A    between atoms: C_9  and  C_11
REMARK    5  A    between atoms: C_9  and  C_12
REMARK    6  A    between atoms: C_12  and  N_13
REMARK    7  A    between atoms: C_22  and  C_24
REMARK                            x       y       z     vdW  Elec       q    Type
REMARK                         _______ _______ _______ _____ _____    ______ ____
ROOT
ATOM      1  N   UNL     1       3.302  -4.956   1.609  0.00  0.00    -0.301 N 
ATOM      2  C   UNL     1       3.179  -6.192   1.086  0.00  0.00    +0.302 C 
ATOM      3  O   UNL     1       2.664  -7.079   1.739  0.00  0.00    -0.253 OA
ATOM      4  N   UNL     1       3.627  -6.445  -0.159  0.00  0.00    -0.283 N 
ATOM      5  C   UNL     1       3.397  -7.755  -0.785  0.00  0.00    +0.128 C 
ATOM      6  C   UNL     1       2.685  -7.538  -2.127  0.00  0.00    +0.127 C 
ATOM      7  N   UNL     1       3.413  -6.510  -2.883  0.00  0.00    -0.298 N 
ATOM      8  C   UNL     1       3.643  -5.200  -2.257  0.00  0.00    +0.127 C 
ATOM      9  C   UNL     1       4.350  -5.415  -0.918  0.00  0.00    +0.128 C 
ATOM     10  C   UNL     1       3.861  -6.763  -4.129  0.00  0.00    +0.219 C 
ATOM     11  O   UNL     1       3.578  -7.808  -4.675  0.00  0.00    -0.275 OA
ATOM     12  H   UNL     1       3.777  -4.267   1.118  0.00  0.00    +0.150 HD
ENDROOT
BRANCH  10  13
ATOM     13  C   UNL     1       4.713  -5.747  -4.844  0.00  0.00    +0.075 C 
ATOM     14  C   UNL     1       3.871  -4.511  -5.168  0.00  0.00    +0.013 C 
ATOM     15  C   UNL     1       4.737  -3.479  -5.894  0.00  0.00    +0.001 C 
ATOM     16  C   UNL     1       5.272  -4.086  -7.192  0.00  0.00    +0.000 C 
ATOM     17  C   UNL     1       6.115  -5.322  -6.868  0.00  0.00    +0.001 C 
ATOM     18  C   UNL     1       5.249  -6.353  -6.143  0.00  0.00    +0.013 C 
ENDBRANCH  10  13
BRANCH   1  19
ATOM     19  C   UNL     1       2.718  -4.652   2.917  0.00  0.00    +0.093 C 
BRANCH  19  20
ATOM     20  C   UNL     1       2.893  -3.163   3.220  0.00  0.00    -0.055 C 
ATOM     21  C   UNL     1       2.253  -2.839   4.572  0.00  0.00    -0.008 C 
ATOM     22  C   UNL     1       2.217  -2.336   2.125  0.00  0.00    -0.008 C 
BRANCH  20  28
ATOM     23  C   UNL     1       6.149   0.471   3.627  0.00  0.00    +0.005 C 
ATOM     24  C   UNL     1       5.979  -1.036   3.425  0.00  0.00    -0.031 C 
ATOM     25  C   UNL     1       6.703  -1.788   4.545  0.00  0.00    -0.001 C 
ATOM     26  C   UNL     1       6.461  -3.291   4.378  0.00  0.00    -0.018 C 
ATOM     27  C   UNL     1       4.955  -3.562   4.375  0.00  0.00    -0.078 C 
ATOM     28  N   UNL     1       4.325  -2.837   3.266  0.00  0.00    +0.384 N 
ATOM     29  C   UNL     1       4.491  -1.391   3.457  0.00  0.00    -0.075 C 
ATOM     30  H   UNL     1       4.758  -3.112   2.397  0.00  0.00    -0.081 HD
ENDBRANCH  20  28
ENDBRANCH  19  20
ENDBRANCH   1  19
TORSDOF 4
