REMARK  Name = ZINC38597056
REMARK  5 active torsions:
REMARK  status: ('A' for Active; 'I' for Inactive)
REMARK    1  A    between atoms: C_1  and  C_2
REMARK    2  A    between atoms: C_6  and  N_8
REMARK    3  A    between atoms: C_9  and  C_21
REMARK    4  A    between atoms: C_22  and  C_23
REMARK    5  A    between atoms: C_31  and  C_33
REMARK                            x       y       z     vdW  Elec       q    Type
REMARK                         _______ _______ _______ _____ _____    ______ ____
ROOT
ATOM      1  N   UNL     1       0.031  -2.815   2.406  0.00  0.00    -0.245 N 
ATOM      2  C   UNL     1      -0.043  -4.276   2.378  0.00  0.00    +0.190 C 
ATOM      3  N   UNL     1      -0.755  -4.772   3.562  0.00  0.00    -0.322 N 
ATOM      4  C   UNL     1      -0.468  -4.210   4.801  0.00  0.00    +0.041 A 
ATOM      5  C   UNL     1      -0.599  -4.930   5.976  0.00  0.00    +0.025 A 
ATOM      6  C   UNL     1      -0.312  -4.325   7.185  0.00  0.00    +0.016 A 
ATOM      7  C   UNL     1       0.105  -3.004   7.230  0.00  0.00    +0.014 A 
ATOM      8  C   UNL     1       0.245  -2.273   6.068  0.00  0.00    +0.029 A 
ATOM      9  C   UNL     1      -0.035  -2.873   4.842  0.00  0.00    +0.059 A 
ATOM     10  C   UNL     1       0.128  -2.143   3.571  0.00  0.00    +0.254 C 
ATOM     11  O   UNL     1       0.344  -0.946   3.573  0.00  0.00    -0.270 OA
ATOM     12  I   UNL     1       0.526  -2.109   9.077  0.00  0.00    -0.044 I 
ATOM     13  H   UNL     1      -1.414  -5.479   3.481  0.00  0.00    +0.148 HD
ENDROOT
BRANCH   1  19
ATOM     14  C   UNL     1      -2.421  -1.345  -1.593  0.00  0.00    +0.044 C 
ATOM     15  C   UNL     1      -1.168  -1.374  -0.756  0.00  0.00    -0.049 A 
ATOM     16  C   UNL     1      -0.039  -0.695  -1.179  0.00  0.00    +0.003 A 
ATOM     17  C   UNL     1       1.112  -0.718  -0.414  0.00  0.00    +0.002 A 
ATOM     18  C   UNL     1       1.139  -1.420   0.776  0.00  0.00    +0.023 A 
ATOM     19  C   UNL     1       0.007  -2.103   1.203  0.00  0.00    +0.039 A 
ATOM     20  C   UNL     1      -1.149  -2.073   0.434  0.00  0.00    +0.027 A 
ENDBRANCH   1  19
BRANCH   2  21
ATOM     21  C   UNL     1       1.351  -4.846   2.364  0.00  0.00    +0.015 C 
ATOM     22  C   UNL     1       1.750  -5.618   1.341  0.00  0.00    +0.005 C 
BRANCH  22  23
ATOM     23  C   UNL     1       3.010  -6.248   1.383  0.00  0.00    -0.017 C 
ATOM     24  C   UNL     1       3.606  -7.001   0.379  0.00  0.00    +0.003 A 
ATOM     25  C   UNL     1       3.184  -7.364  -0.921  0.00  0.00    +0.010 A 
ATOM     26  C   UNL     1       3.990  -8.125  -1.701  0.00  0.00    +0.001 A 
ATOM     27  C   UNL     1       5.239  -8.568  -1.254  0.00  0.00    +0.002 A 
ATOM     28  C   UNL     1       5.708  -8.259  -0.022  0.00  0.00    +0.026 A 
ATOM     29  C   UNL     1       4.922  -7.464   0.855  0.00  0.00    +0.043 A 
ATOM     30  N   UNL     1       5.146  -7.034   2.078  0.00  0.00    -0.378 N 
ATOM     31  C   UNL     1       3.999  -6.239   2.527  0.00  0.00    +0.107 C 
ATOM     32  C   UNL     1       3.374  -6.876   3.769  0.00  0.00    +0.035 C 
ATOM     33  H   UNL     1       5.945  -7.213   2.598  0.00  0.00    +0.160 HD
ENDBRANCH  22  23
ENDBRANCH   2  21
TORSDOF 3
