REMARK  Name = ZINC38649786
REMARK  14 active torsions:
REMARK  status: ('A' for Active; 'I' for Inactive)
REMARK    1  A    between atoms: C_1  and  C_2
REMARK    2  A    between atoms: C_2  and  C_3
REMARK    3  A    between atoms: C_2  and  O_4
REMARK    4  A    between atoms: O_4  and  C_5
REMARK    5  A    between atoms: C_8  and  C_11
REMARK    6  A    between atoms: C_11  and  O_13
REMARK    7  A    between atoms: O_13  and  C_14
REMARK    8  A    between atoms: C_21  and  N_37
REMARK    9  A    between atoms: C_22  and  C_35
REMARK   10  A    between atoms: C_23  and  C_25
REMARK   11  A    between atoms: C_28  and  C_31
REMARK   12  A    between atoms: C_31  and  C_32
REMARK   13  A    between atoms: C_31  and  C_33
REMARK   14  A    between atoms: C_31  and  C_34
REMARK                            x       y       z     vdW  Elec       q    Type
REMARK                         _______ _______ _______ _____ _____    ______ ____
ROOT
ATOM      1  C   UNL     1      -4.298  -6.994  -3.191  0.00  0.00    +0.135 A 
ATOM      2  C   UNL     1      -3.355  -7.766  -3.854  0.00  0.00    +0.047 A 
ATOM      3  C   UNL     1      -3.742  -8.924  -4.500  0.00  0.00    +0.012 A 
ATOM      4  C   UNL     1      -5.068  -9.318  -4.489  0.00  0.00    +0.008 A 
ATOM      5  C   UNL     1      -6.014  -8.551  -3.828  0.00  0.00    +0.138 A 
ATOM      6  C   UNL     1      -5.625  -7.389  -3.174  0.00  0.00    +0.093 A 
ATOM      7  O   UNL     1      -7.318  -8.921  -3.807  0.00  0.00    -0.441 OA
ATOM      8  C   UNL     1      -7.783  -9.793  -4.716  0.00  0.00    +0.199 C 
ATOM      9  C   UNL     1      -6.957 -10.611  -5.412  0.00  0.00    +0.098 C 
ATOM     10  C   UNL     1      -5.470 -10.584  -5.199  0.00  0.00    +0.098 C 
ENDROOT
BRANCH  10  11
ATOM     11  C   UNL     1      -5.063 -11.773  -4.368  0.00  0.00    -0.035 A 
ATOM     12  C   UNL     1      -5.573 -11.932  -3.093  0.00  0.00    +0.005 A 
ATOM     13  C   UNL     1      -5.200 -13.023  -2.330  0.00  0.00    +0.004 A 
ATOM     14  C   UNL     1      -4.317 -13.955  -2.843  0.00  0.00    -0.042 A 
ATOM     15  C   UNL     1      -3.807 -13.797  -4.118  0.00  0.00    +0.004 A 
ATOM     16  C   UNL     1      -4.184 -12.708  -4.882  0.00  0.00    +0.005 A 
BRANCH  14  17
ATOM     17  C   UNL     1      -3.909 -15.144  -2.011  0.00  0.00    -0.013 C 
ATOM     18  C   UNL     1      -5.149 -15.967  -1.655  0.00  0.00    +0.015 C 
ATOM     19  C   UNL     1      -2.933 -16.012  -2.807  0.00  0.00    +0.015 C 
ATOM     20  C   UNL     1      -3.232 -14.660  -0.727  0.00  0.00    +0.015 C 
ENDBRANCH  14  17
ENDBRANCH  10  11
BRANCH   8  21
ATOM     21  N   UNL     1      -9.134  -9.858  -4.947  0.00  0.00    -0.328 N 
ATOM     22  H   UNL     1      -9.738  -9.279  -4.457  0.00  0.00    +0.145 HD
ATOM     23  H   UNL     1      -9.485 -10.483  -5.601  0.00  0.00    +0.145 HD
ENDBRANCH   8  21
BRANCH   9  24
ATOM     24  C   UNL     1      -7.513 -11.519  -6.370  0.00  0.00    +0.101 C 
ATOM     25  N   UNL     1      -7.954 -12.239  -7.130  0.00  0.00    -0.191 NA
ENDBRANCH   9  24
BRANCH   1  26
ATOM     26  O   UNL     1      -3.918  -5.854  -2.555  0.00  0.00    -0.422 OA
BRANCH  26  27
ATOM     27  C   UNL     1      -4.022  -5.815  -1.212  0.00  0.00    +0.344 C 
ATOM     28  O   UNL     1      -4.355  -6.810  -0.599  0.00  0.00    -0.245 OA
BRANCH  27  32
ATOM     29  C   UNL     1      -3.183  -2.216   0.878  0.00  0.00    +0.121 A 
ATOM     30  C   UNL     1      -3.565  -3.353   1.581  0.00  0.00    +0.046 A 
ATOM     31  C   UNL     1      -3.838  -4.522   0.907  0.00  0.00    +0.018 A 
ATOM     32  C   UNL     1      -3.731  -4.565  -0.486  0.00  0.00    +0.060 A 
ATOM     33  C   UNL     1      -3.347  -3.419  -1.189  0.00  0.00    +0.018 A 
ATOM     34  C   UNL     1      -3.082  -2.253  -0.508  0.00  0.00    +0.046 A 
BRANCH  29  35
ATOM     35  O   UNL     1      -2.915  -1.066   1.546  0.00  0.00    -0.489 OA
BRANCH  35  37
ATOM     36  C   UNL     1      -3.202   1.333   1.490  0.00  0.00    +0.051 C 
ATOM     37  C   UNL     1      -2.669   0.100   0.757  0.00  0.00    +0.167 C 
ATOM     38  C   UNL     1      -1.164   0.253   0.529  0.00  0.00    +0.051 C 
ENDBRANCH  35  37
ENDBRANCH  29  35
ENDBRANCH  27  32
ENDBRANCH  26  27
ENDBRANCH   1  26
TORSDOF 9
