REMARK  Name = ZINC38688495
REMARK  11 active torsions:
REMARK  status: ('A' for Active; 'I' for Inactive)
REMARK    1  A    between atoms: C_1  and  C_2
REMARK    2  A    between atoms: C_2  and  C_3
REMARK    3  A    between atoms: C_3  and  C_4
REMARK    4  A    between atoms: C_4  and  O_5
REMARK    5  A    between atoms: O_5  and  C_6
REMARK    6  A    between atoms: C_9  and  C_13
REMARK    7  A    between atoms: C_13  and  O_15
REMARK    8  A    between atoms: O_15  and  C_16
REMARK    9  A    between atoms: C_23  and  N_34
REMARK   10  A    between atoms: C_24  and  C_32
REMARK   11  A    between atoms: C_25  and  C_27
REMARK                            x       y       z     vdW  Elec       q    Type
REMARK                         _______ _______ _______ _____ _____    ______ ____
ROOT
ATOM      1  C   UNL     1      -3.681 -10.143   1.201  0.00  0.00    +0.135 A 
ATOM      2  C   UNL     1      -3.732 -10.878   0.025  0.00  0.00    +0.047 A 
ATOM      3  C   UNL     1      -3.929 -12.244   0.074  0.00  0.00    +0.012 A 
ATOM      4  C   UNL     1      -4.077 -12.884   1.292  0.00  0.00    +0.011 A 
ATOM      5  C   UNL     1      -4.027 -12.155   2.469  0.00  0.00    +0.138 A 
ATOM      6  C   UNL     1      -3.822 -10.782   2.422  0.00  0.00    +0.093 A 
ATOM      7  O   UNL     1      -4.169 -12.764   3.672  0.00  0.00    -0.441 OA
ATOM      8  C   UNL     1      -3.977 -14.089   3.779  0.00  0.00    +0.199 C 
ATOM      9  C   UNL     1      -4.021 -14.909   2.702  0.00  0.00    +0.101 C 
ATOM     10  C   UNL     1      -4.292 -14.374   1.323  0.00  0.00    +0.134 C 
ENDROOT
BRANCH  10  11
ATOM     11  C   UNL     1      -3.359 -15.034   0.341  0.00  0.00    +0.117 A 
ATOM     12  C   UNL     1      -3.729 -15.782  -0.715  0.00  0.00    +0.045 A 
ATOM     13  C   UNL     1      -2.541 -16.198  -1.359  0.00  0.00    +0.041 A 
ATOM     14  C   UNL     1      -1.516 -15.679  -0.659  0.00  0.00    +0.195 A 
ATOM     15  O   UNL     1      -2.018 -14.970   0.366  0.00  0.00    -0.467 OA
ENDBRANCH  10  11
BRANCH   8  16
ATOM     16  N   UNL     1      -3.727 -14.629   5.016  0.00  0.00    -0.328 N 
ATOM     17  H   UNL     1      -3.692 -14.055   5.797  0.00  0.00    +0.145 HD
ATOM     18  H   UNL     1      -3.586 -15.584   5.109  0.00  0.00    +0.145 HD
ENDBRANCH   8  16
BRANCH   9  19
ATOM     19  C   UNL     1      -3.807 -16.314   2.880  0.00  0.00    +0.101 C 
ATOM     20  N   UNL     1      -3.636 -17.428   3.021  0.00  0.00    -0.191 NA
ENDBRANCH   9  19
BRANCH   1  21
ATOM     21  O   UNL     1      -3.487  -8.798   1.155  0.00  0.00    -0.422 OA
BRANCH  21  22
ATOM     22  C   UNL     1      -4.534  -8.019   0.818  0.00  0.00    +0.345 C 
ATOM     23  O   UNL     1      -5.585  -8.527   0.479  0.00  0.00    -0.245 OA
BRANCH  22  27
ATOM     24  C   UNL     1      -4.160  -3.791   0.939  0.00  0.00    +0.157 A 
ATOM     25  C   UNL     1      -5.363  -4.370   0.550  0.00  0.00    +0.085 A 
ATOM     26  C   UNL     1      -5.489  -5.741   0.509  0.00  0.00    +0.038 A 
ATOM     27  C   UNL     1      -4.404  -6.551   0.859  0.00  0.00    +0.062 A 
ATOM     28  C   UNL     1      -3.196  -5.965   1.249  0.00  0.00    +0.038 A 
ATOM     29  C   UNL     1      -3.077  -4.593   1.282  0.00  0.00    +0.085 A 
ATOM     30 CL   UNL     1      -1.575  -3.864   1.759  0.00  0.00    -0.080 Cl
ATOM     31 CL   UNL     1      -6.710  -3.363   0.116  0.00  0.00    -0.080 Cl
BRANCH  24  32
ATOM     32  O   UNL     1      -4.041  -2.439   0.978  0.00  0.00    -0.489 OA
BRANCH  32  33
ATOM     33  C   UNL     1      -3.599  -1.792  -0.217  0.00  0.00    +0.229 C 
BRANCH  33  34
ATOM     34  C   UNL     1      -3.526  -0.282   0.018  0.00  0.00    +0.041 C 
BRANCH  34  36
ATOM     35  C   UNL     1      -2.980   1.921  -1.027  0.00  0.00    +0.004 C 
ATOM     36  C   UNL     1      -3.052   0.411  -1.262  0.00  0.00    -0.000 C 
ENDBRANCH  34  36
ENDBRANCH  33  34
ENDBRANCH  32  33
ENDBRANCH  24  32
ENDBRANCH  22  27
ENDBRANCH  21  22
ENDBRANCH   1  21
TORSDOF 10
