REMARK  Name = ZINC02963996
REMARK  7 active torsions:
REMARK  status: ('A' for Active; 'I' for Inactive)
REMARK    1  A    between atoms: C_1  and  C_2
REMARK    2  A    between atoms: C_5  and  C_8
REMARK    3  A    between atoms: C_11  and  C_13
REMARK    4  A    between atoms: C_19  and  O_34
REMARK    5  A    between atoms: N_23  and  C_24
REMARK    6  A    between atoms: C_28  and  C_30
REMARK    7  A    between atoms: O_34  and  C_35
REMARK                            x       y       z     vdW  Elec       q    Type
REMARK                         _______ _______ _______ _____ _____    ______ ____
ROOT
ATOM      1  C   UNL     1      -2.428   1.360   0.307  0.00  0.00    +0.068 A 
ATOM      2  C   UNL     1      -1.305   2.105   0.036  0.00  0.00    +0.027 A 
ATOM      3  C   UNL     1      -0.015   1.408   0.025  0.00  0.00    +0.022 A 
ATOM      4  C   UNL     1       1.187   2.126   0.024  0.00  0.00    +0.012 A 
ATOM      5  C   UNL     1       2.386   1.448   0.022  0.00  0.00    +0.004 A 
ATOM      6  C   UNL     1       2.410   0.062   0.023  0.00  0.00    +0.049 A 
ATOM      7  C   UNL     1       1.230  -0.663   0.022  0.00  0.00    +0.163 A 
ATOM      8  C   UNL     1       0.009   0.003   0.022  0.00  0.00    +0.179 A 
ATOM      9  O   UNL     1      -1.157  -0.690   0.016  0.00  0.00    -0.435 OA
ATOM     10  C   UNL     1      -2.236  -0.081   0.569  0.00  0.00    +0.209 A 
ATOM     11  N   UNL     1      -3.086  -0.752   1.316  0.00  0.00    -0.325 N 
ATOM     12  H   UNL     1      -3.905  -0.226   1.827  0.00  0.00    +0.169 HD
ENDROOT
BRANCH  11  13
ATOM     13  C   UNL     1      -2.950  -2.105   1.458  0.00  0.00    +0.042 A 
ATOM     14  C   UNL     1      -3.513  -2.970   0.515  0.00  0.00    +0.026 A 
ATOM     15  C   UNL     1      -3.368  -4.333   0.662  0.00  0.00    +0.003 A 
ATOM     16  C   UNL     1      -2.675  -4.846   1.744  0.00  0.00    +0.012 A 
ATOM     17  C   UNL     1      -2.119  -3.997   2.684  0.00  0.00    +0.057 A 
ATOM     18  C   UNL     1      -2.252  -2.631   2.548  0.00  0.00    +0.038 A 
BRANCH  17  19
ATOM     19  C   UNL     1      -1.367  -4.565   3.860  0.00  0.00    +0.417 C 
ATOM     20  F   UNL     1      -2.253  -4.781   4.921  0.00  0.00    -0.166 F 
ATOM     21  F   UNL     1      -0.775  -5.779   3.493  0.00  0.00    -0.166 F 
ATOM     22  F   UNL     1      -0.374  -3.664   4.258  0.00  0.00    -0.166 F 
ENDBRANCH  17  19
ENDBRANCH  11  13
BRANCH   1  26
ATOM     23  C   UNL     1      -5.381   3.616   0.196  0.00  0.00    +0.079 A 
ATOM     24  C   UNL     1      -6.349   2.690   0.487  0.00  0.00    +0.075 A 
ATOM     25  S   UNL     1      -5.355   1.213   0.658  0.00  0.00    -0.075 S 
ATOM     26  C   UNL     1      -3.769   1.974   0.337  0.00  0.00    +0.114 A 
ATOM     27  N   UNL     1      -4.119   3.235   0.128  0.00  0.00    -0.239 NA
BRANCH  23  32
ATOM     28  C   UNL     1      -6.806   9.119  -0.726  0.00  0.00    +0.044 C 
ATOM     29  C   UNL     1      -6.433   7.679  -0.484  0.00  0.00    -0.050 A 
ATOM     30  C   UNL     1      -5.108   7.289  -0.558  0.00  0.00    +0.004 A 
ATOM     31  C   UNL     1      -4.761   5.971  -0.338  0.00  0.00    +0.010 A 
ATOM     32  C   UNL     1      -5.748   5.033  -0.042  0.00  0.00    +0.001 A 
ATOM     33  C   UNL     1      -7.082   5.431   0.025  0.00  0.00    +0.010 A 
ATOM     34  C   UNL     1      -7.417   6.752  -0.190  0.00  0.00    +0.004 A 
ENDBRANCH  23  32
ENDBRANCH   1  26
BRANCH   7  35
ATOM     35  O   UNL     1       1.265  -2.022   0.022  0.00  0.00    -0.491 OA
ATOM     36  C   UNL     1       2.555  -2.638   0.023  0.00  0.00    +0.277 C 
ENDBRANCH   7  35
TORSDOF 5
