REMARK  Name = ZINC08295253
REMARK  3 active torsions:
REMARK  status: ('A' for Active; 'I' for Inactive)
REMARK    1  A    between atoms: C_4  and  C_7
REMARK    2  A    between atoms: N_13  and  N_14
REMARK    3  A    between atoms: N_14  and  C_15
REMARK                            x       y       z     vdW  Elec       q    Type
REMARK                         _______ _______ _______ _____ _____    ______ ____
ROOT
ATOM      1  C   UNL     1       3.690  -0.678  -0.038  0.00  0.00    +0.028 C 
ATOM      2  C   UNL     1       3.716  -2.031   0.057  0.00  0.00    +0.078 C 
ATOM      3  C   UNL     1       2.592  -2.990   0.078  0.00  0.00    +0.256 C 
ATOM      4  O   UNL     1       1.436  -2.615   0.006  0.00  0.00    -0.269 OA
ATOM      5  N   UNL     1       2.898  -4.272   0.179  0.00  0.00    -0.259 N 
ATOM      6  C   UNL     1       4.224  -4.673   0.260  0.00  0.00    +0.183 C 
ATOM      7  N   UNL     1       4.700  -5.881   0.362  0.00  0.00    -0.159 NA
ATOM      8  S   UNL     1       5.119  -3.130   0.181  0.00  0.00    -0.048 S 
ATOM      9  H   UNL     1       2.191  -4.936   0.197  0.00  0.00    +0.157 HD
ENDROOT
BRANCH   1  13
ATOM     10  C   UNL     1       0.001   1.396   0.226  0.00  0.00    +0.000 A 
ATOM     11  C   UNL     1       0.236   0.303   1.042  0.00  0.00    +0.001 A 
ATOM     12  C   UNL     1       1.433  -0.377   0.962  0.00  0.00    +0.008 A 
ATOM     13  C   UNL     1       2.411   0.041   0.053  0.00  0.00    -0.024 A 
ATOM     14  C   UNL     1       2.166   1.146  -0.769  0.00  0.00    +0.008 A 
ATOM     15  C   UNL     1       0.964   1.815  -0.677  0.00  0.00    +0.001 A 
ENDBRANCH   1  13
BRANCH   7  16
ATOM     16  N   UNL     1       3.828  -6.977   0.403  0.00  0.00    -0.236 N 
ATOM     17  H   UNL     1       2.870  -6.836   0.355  0.00  0.00    +0.174 HD
BRANCH  16  18
ATOM     18  C   UNL     1       4.337  -8.269   0.512  0.00  0.00    +0.048 A 
ATOM     19  C   UNL     1       5.711  -8.473   0.587  0.00  0.00    +0.025 A 
ATOM     20  C   UNL     1       6.211  -9.755   0.696  0.00  0.00    +0.002 A 
ATOM     21  C   UNL     1       5.349 -10.835   0.730  0.00  0.00    +0.000 A 
ATOM     22  C   UNL     1       3.982 -10.637   0.656  0.00  0.00    +0.002 A 
ATOM     23  C   UNL     1       3.473  -9.357   0.553  0.00  0.00    +0.025 A 
ENDBRANCH  16  18
ENDBRANCH   7  16
TORSDOF 3
