REMARK  Name = ZINC12157830
REMARK  13 active torsions:
REMARK  status: ('A' for Active; 'I' for Inactive)
REMARK    1  A    between atoms: C_1  and  C_2
REMARK    2  A    between atoms: C_4  and  C_36
REMARK    3  A    between atoms: C_6  and  C_8
REMARK    4  A    between atoms: N_10  and  C_11
REMARK    5  A    between atoms: C_11  and  C_13
REMARK    6  A    between atoms: C_11  and  C_17
REMARK    7  A    between atoms: C_13  and  C_14
REMARK    8  A    between atoms: C_14  and  C_15
REMARK    9  A    between atoms: C_14  and  C_16
REMARK   10  A    between atoms: C_26  and  C_27
REMARK   11  A    between atoms: C_26  and  N_75
REMARK   12  A    between atoms: C_27  and  C_35
REMARK   13  A    between atoms: C_28  and  C_29
REMARK                            x       y       z     vdW  Elec       q    Type
REMARK                         _______ _______ _______ _____ _____    ______ ____
ROOT
ATOM      1  C   UNL     1       0.088   0.390   4.251  0.00  0.00    +0.154 A 
ATOM      2  N   UNL     1       0.200   1.282   5.200  0.00  0.00    -0.132 NA
ATOM      3  N   UNL     1      -0.811   1.201   5.994  0.00  0.00    -0.134 NA
ATOM      4  C   UNL     1      -1.606   0.254   5.590  0.00  0.00    +0.132 A 
ATOM      5  N   UNL     1      -1.051  -0.296   4.482  0.00  0.00    -0.315 N 
ATOM      6  C   UNL     1      -1.590  -1.421   3.717  0.00  0.00    +0.106 C 
ATOM      7  C   UNL     1      -3.114  -1.450   3.872  0.00  0.00    -0.056 C 
ATOM      8  C   UNL     1      -2.947  -1.701   6.287  0.00  0.00    -0.071 C 
ATOM      9  C   UNL     1      -2.917  -0.172   6.200  0.00  0.00    +0.058 C 
ATOM     10  N   UNL     1      -3.472  -2.292   5.036  0.00  0.00    +0.384 N 
ATOM     11  H   UNL     1      -3.057  -3.223   4.910  0.00  0.00    -0.081 HD
ENDROOT
BRANCH   1  12
ATOM     12  C   UNL     1       1.054   0.164   3.117  0.00  0.00    +0.142 C 
BRANCH  12  15
ATOM     13  C   UNL     1       3.355  -0.620   2.949  0.00  0.00    +0.245 C 
ATOM     14  O   UNL     1       3.104  -1.036   1.835  0.00  0.00    -0.270 OA
ATOM     15  N   UNL     1       2.414   0.043   3.649  0.00  0.00    -0.301 N 
ATOM     16  H   UNL     1       2.636   0.440   4.506  0.00  0.00    +0.150 HD
BRANCH  13  22
ATOM     17  C   UNL     1       6.555  -0.059   6.737  0.00  0.00    +0.044 C 
ATOM     18  C   UNL     1       6.238  -0.573   5.356  0.00  0.00    -0.049 A 
ATOM     19  C   UNL     1       7.202  -1.253   4.634  0.00  0.00    +0.006 A 
ATOM     20  C   UNL     1       6.919  -1.728   3.366  0.00  0.00    -0.049 A 
ATOM     21  C   UNL     1       5.672  -1.526   2.813  0.00  0.00    +0.016 A 
ATOM     22  C   UNL     1       4.694  -0.840   3.535  0.00  0.00    +0.037 A 
ATOM     23  C   UNL     1       4.988  -0.359   4.812  0.00  0.00    +0.016 A 
ATOM     24  C   UNL     1       7.976  -2.469   2.587  0.00  0.00    +0.044 C 
ENDBRANCH  13  22
ENDBRANCH  12  15
BRANCH  12  25
ATOM     25  C   UNL     1       0.989   1.347   2.149  0.00  0.00    +0.033 C 
BRANCH  25  26
ATOM     26  C   UNL     1      -0.390   1.390   1.488  0.00  0.00    -0.015 C 
ATOM     27  C   UNL     1      -0.566   0.161   0.595  0.00  0.00    +0.007 C 
ATOM     28  C   UNL     1      -0.510   2.658   0.640  0.00  0.00    +0.007 C 
ENDBRANCH  25  26
ENDBRANCH  12  25
ENDBRANCH   1  12
BRANCH  10  29
ATOM     29  C   UNL     1      -4.937  -2.431   5.124  0.00  0.00    -0.048 C 
BRANCH  29  30
ATOM     30  C   UNL     1      -5.259  -3.484   6.152  0.00  0.00    -0.089 C 
ATOM     31  C   UNL     1      -5.549  -3.129   7.396  0.00  0.00    +0.005 C 
ATOM     32  C   UNL     1      -5.252  -4.941   5.767  0.00  0.00    +0.037 C 
BRANCH  31  33
ATOM     33  C   UNL     1      -5.711  -4.162   8.441  0.00  0.00    -0.025 A 
ATOM     34  C   UNL     1      -6.628  -3.974   9.476  0.00  0.00    +0.008 A 
ATOM     35  C   UNL     1      -6.779  -4.945  10.445  0.00  0.00    +0.001 A 
ATOM     36  C   UNL     1      -6.015  -6.098  10.398  0.00  0.00    +0.000 A 
ATOM     37  C   UNL     1      -5.100  -6.287   9.377  0.00  0.00    +0.001 A 
ATOM     38  C   UNL     1      -4.944  -5.327   8.399  0.00  0.00    +0.008 A 
ENDBRANCH  31  33
ENDBRANCH  29  30
ENDBRANCH  10  29
TORSDOF 8
