REMARK  Name = ZINC20288824
REMARK  12 active torsions:
REMARK  status: ('A' for Active; 'I' for Inactive)
REMARK    1  A    between atoms: C_1  and  C_2
REMARK    2  A    between atoms: C_2  and  C_4
REMARK    3  A    between atoms: C_2  and  N_24
REMARK    4  A    between atoms: C_4  and  C_6
REMARK    5  A    between atoms: C_4  and  N_11
REMARK    6  A    between atoms: N_14  and  C_17
REMARK    7  A    between atoms: C_25  and  C_27
REMARK    8  A    between atoms: N_29  and  C_30
REMARK    9  A    between atoms: C_30  and  C_31
REMARK   10  A    between atoms: C_31  and  C_32
REMARK   11  A    between atoms: C_35  and  O_38
REMARK   12  A    between atoms: O_38  and  C_39
REMARK                            x       y       z     vdW  Elec       q    Type
REMARK                         _______ _______ _______ _____ _____    ______ ____
ROOT
ATOM      1  C   UNL     1      -0.729   1.579   1.267  0.00  0.00    +0.030 C 
ATOM      2  C   UNL     1      -0.013   1.086   0.008  0.00  0.00    +0.092 C 
ENDROOT
BRANCH   2   3
ATOM      3  N   UNL     1       1.362   1.593  -0.002  0.00  0.00    -0.303 N 
ATOM      4  C   UNL     1       2.331   0.926   0.654  0.00  0.00    +0.299 C 
ATOM      5  O   UNL     1       2.066  -0.095   1.254  0.00  0.00    -0.265 OA
ATOM      6  H   UNL     1       1.602   2.518  -0.546  0.00  0.00    +0.149 HD
BRANCH   4   7
ATOM      7  C   UNL     1       3.733   1.443   0.644  0.00  0.00    +0.299 C 
ATOM      8  O   UNL     1       3.999   2.464   0.044  0.00  0.00    -0.265 OA
ATOM      9  N   UNL     1       4.703   0.775   1.300  0.00  0.00    -0.307 N 
ATOM     10  H   UNL     1       4.462  -0.150   1.844  0.00  0.00    +0.149 HD
BRANCH   9  11
ATOM     11  C   UNL     1       6.077   1.283   1.290  0.00  0.00    +0.109 C 
BRANCH  11  12
ATOM     12  C   UNL     1       6.972   0.346   2.104  0.00  0.00    +0.054 C 
BRANCH  12  13
ATOM     13  C   UNL     1       8.386   0.868   2.093  0.00  0.00    -0.046 A 
ATOM     14  C   UNL     1       9.264   0.463   1.104  0.00  0.00    +0.007 A 
ATOM     15  C   UNL     1      10.559   0.944   1.089  0.00  0.00    +0.046 A 
ATOM     16  C   UNL     1      10.982   1.825   2.074  0.00  0.00    +0.120 A 
ATOM     17  C   UNL     1      10.101   2.226   3.068  0.00  0.00    +0.046 A 
ATOM     18  C   UNL     1       8.805   1.746   3.075  0.00  0.00    +0.007 A 
BRANCH  16  19
ATOM     19  O   UNL     1      12.256   2.296   2.064  0.00  0.00    -0.495 OA
ATOM     20  C   UNL     1      13.108   1.841   1.010  0.00  0.00    +0.277 C 
ENDBRANCH  16  19
ENDBRANCH  12  13
ENDBRANCH  11  12
ENDBRANCH   9  11
ENDBRANCH   4   7
ENDBRANCH   2   3
BRANCH   2  21
ATOM     21  C   UNL     1      -0.753   1.593  -1.232  0.00  0.00    +0.114 C 
BRANCH  21  22
ATOM     22  N   UNL     1      -2.162   1.185  -1.161  0.00  0.00    -0.290 NA
ATOM     23  C   UNL     1      -2.282  -0.273  -1.014  0.00  0.00    +0.104 C 
ATOM     24  C   UNL     1      -3.758  -0.648  -0.865  0.00  0.00    +0.120 C 
ATOM     25  N   UNL     1      -4.502  -0.178  -2.042  0.00  0.00    -0.325 N 
ATOM     26  C   UNL     1      -4.382   1.279  -2.189  0.00  0.00    +0.120 C 
ATOM     27  C   UNL     1      -2.906   1.655  -2.338  0.00  0.00    +0.104 C 
BRANCH  25  28
ATOM     28  C   UNL     1      -5.843  -0.567  -1.976  0.00  0.00    +0.065 A 
ATOM     29  C   UNL     1      -6.703  -0.283  -3.028  0.00  0.00    +0.026 A 
ATOM     30  C   UNL     1      -8.027  -0.672  -2.961  0.00  0.00    +0.002 A 
ATOM     31  C   UNL     1      -8.500  -1.334  -1.843  0.00  0.00    +0.003 A 
ATOM     32  C   UNL     1      -7.649  -1.614  -0.790  0.00  0.00    +0.040 A 
ATOM     33  C   UNL     1      -6.321  -1.232  -0.852  0.00  0.00    +0.144 A 
ATOM     34  F   UNL     1      -5.490  -1.505   0.177  0.00  0.00    -0.204 F 
ENDBRANCH  25  28
ENDBRANCH  21  22
BRANCH  21  35
ATOM     35  C   UNL     1      -0.667   3.096  -1.288  0.00  0.00    +0.009 A 
ATOM     36  C   UNL     1       0.163   3.877  -2.022  0.00  0.00    +0.013 A 
ATOM     37  C   UNL     1       0.059   5.251  -1.915  0.00  0.00    +0.008 A 
ATOM     38  C   UNL     1      -0.863   5.777  -1.071  0.00  0.00    +0.045 A 
ATOM     39  S   UNL     1      -1.628   4.311  -0.399  0.00  0.00    -0.100 S 
ENDBRANCH  21  35
ENDBRANCH   2  21
TORSDOF 10
