REMARK  Name = ZINC32169210
REMARK  4 active torsions:
REMARK  status: ('A' for Active; 'I' for Inactive)
REMARK    1  A    between atoms: C_1  and  C_2
REMARK    2  A    between atoms: C_2  and  C_17
REMARK    3  A    between atoms: N_5  and  C_9
REMARK    4  A    between atoms: C_9  and  C_10
REMARK                            x       y       z     vdW  Elec       q    Type
REMARK                         _______ _______ _______ _____ _____    ______ ____
ROOT
ATOM      1  C   UNL     1      -0.207   3.647  -4.522  0.00  0.00    +0.047 C 
ATOM      2  C   UNL     1      -0.154   4.612  -3.336  0.00  0.00    +0.135 C 
ATOM      3  C   UNL     1       0.982   4.254  -2.398  0.00  0.00    +0.251 C 
ATOM      4  O   UNL     1       2.166   4.238  -2.655  0.00  0.00    -0.272 OA
ATOM      5  N   UNL     1       0.400   3.955  -1.219  0.00  0.00    -0.221 N 
ATOM      6  C   UNL     1      -0.930   4.081  -1.279  0.00  0.00    +0.310 C 
ATOM      7  O   UNL     1      -1.672   3.869  -0.340  0.00  0.00    -0.252 OA
ATOM      8  N   UNL     1      -1.356   4.467  -2.496  0.00  0.00    -0.281 N 
ATOM      9  H   UNL     1      -2.350   4.670  -2.919  0.00  0.00    +0.152 HD
ENDROOT
BRANCH   2  10
ATOM     10  C   UNL     1      -0.011   6.033  -3.816  0.00  0.00    -0.014 A 
ATOM     11  C   UNL     1       1.246   6.569  -4.023  0.00  0.00    +0.008 A 
ATOM     12  C   UNL     1       1.378   7.871  -4.468  0.00  0.00    +0.022 A 
ATOM     13  C   UNL     1       0.252   8.642  -4.696  0.00  0.00    +0.059 A 
ATOM     14  C   UNL     1      -1.007   8.107  -4.484  0.00  0.00    +0.060 A 
ATOM     15  C   UNL     1      -1.137   6.802  -4.043  0.00  0.00    +0.027 A 
ATOM     16 CL   UNL     1      -2.421   9.072  -4.769  0.00  0.00    -0.082 Cl
ATOM     17 CL   UNL     1       0.417  10.279  -5.248  0.00  0.00    -0.082 Cl
ENDBRANCH   2  10
BRANCH   5  18
ATOM     18  C   UNL     1       1.135   3.549  -0.018  0.00  0.00    +0.149 C 
BRANCH  18  19
ATOM     19  C   UNL     1       1.279   2.026   0.001  0.00  0.00    +0.136 C 
ATOM     20  C   UNL     1       2.046   1.601   1.256  0.00  0.00    +0.033 C 
ATOM     21  C   UNL     1       2.133   0.073   1.299  0.00  0.00    +0.005 C 
ATOM     22  C   UNL     1       0.718  -0.510   1.257  0.00  0.00    +0.028 C 
ATOM     23  C   UNL     1       0.002  -0.004   0.002  0.00  0.00    +0.160 C 
ATOM     24  O   UNL     1      -0.017   1.425   0.010  0.00  0.00    -0.375 OA
ENDBRANCH  18  19
ENDBRANCH   5  18
TORSDOF 3
