REMARK  Name = ZINC66975896
REMARK  6 active torsions:
REMARK  status: ('A' for Active; 'I' for Inactive)
REMARK    1  A    between atoms: C_1  and  C_2
REMARK    2  A    between atoms: C_2  and  N_3
REMARK    3  A    between atoms: N_3  and  C_4
REMARK    4  A    between atoms: N_3  and  S_20
REMARK    5  A    between atoms: N_12  and  C_13
REMARK    6  A    between atoms: S_20  and  C_23
REMARK                            x       y       z     vdW  Elec       q    Type
REMARK                         _______ _______ _______ _____ _____    ______ ____
ROOT
ATOM      1  C   UNL     1       2.256  -0.604  -1.041  0.00  0.00    +0.082 C 
ATOM      2  C   UNL     1       2.857   0.715  -0.551  0.00  0.00    +0.039 C 
ATOM      3  C   UNL     1       4.379   0.572  -0.451  0.00  0.00    +0.111 C 
ATOM      4  N   UNL     1       4.691  -0.586   0.398  0.00  0.00    -0.286 N 
ATOM      5  C   UNL     1       4.091  -1.886   0.068  0.00  0.00    +0.111 C 
ATOM      6  C   UNL     1       2.572  -1.715  -0.037  0.00  0.00    +0.039 C 
ATOM      7  C   UNL     1       5.512  -0.458   1.459  0.00  0.00    +0.302 C 
ATOM      8  O   UNL     1       6.072   0.601   1.670  0.00  0.00    -0.253 OA
ATOM      9  N   UNL     1       5.713  -1.503   2.286  0.00  0.00    -0.296 N 
ATOM     10  H   UNL     1       5.321  -2.366   2.080  0.00  0.00    +0.151 HD
ENDROOT
BRANCH   9  11
ATOM     11  C   UNL     1       6.523  -1.336   3.495  0.00  0.00    +0.074 C 
ATOM     12  C   UNL     1       8.014  -1.447   3.117  0.00  0.00    +0.022 C 
ATOM     13  C   UNL     1       8.831  -0.789   4.195  0.00  0.00    +0.002 C 
ATOM     14  C   UNL     1       9.320  -1.790   5.258  0.00  0.00    +0.000 C 
ATOM     15  C   UNL     1       8.241  -2.816   5.655  0.00  0.00    +0.000 C 
ATOM     16  C   UNL     1       6.881  -2.191   5.808  0.00  0.00    +0.002 C 
ATOM     17  C   UNL     1       6.122  -2.337   4.473  0.00  0.00    +0.022 C 
ENDBRANCH   9  11
BRANCH   1  18
ATOM     18  N   UNL     1       0.804  -0.461  -1.169  0.00  0.00    -0.179 NA
BRANCH  18  19
ATOM     19  S   UNL     1       0.067  -0.763  -2.621  0.00  0.00    +0.029 S 
ATOM     20  O   UNL     1       0.931  -1.676  -3.283  0.00  0.00    -0.158 OA
ATOM     21  O   UNL     1      -1.261  -1.138  -2.282  0.00  0.00    -0.158 OA
ATOM     22  C   UNL     1       0.065   0.833  -3.484  0.00  0.00    +0.215 C 
ENDBRANCH  18  19
BRANCH  18  24
ATOM     23  C   UNL     1      -0.383  -1.285   0.804  0.00  0.00    +0.022 C 
ATOM     24  C   UNL     1       0.004  -0.051  -0.013  0.00  0.00    +0.106 C 
ENDBRANCH  18  24
ENDBRANCH   1  18
TORSDOF 4
