REMARK  Name = ZINC29321980
REMARK  11 active torsions:
REMARK  status: ('A' for Active; 'I' for Inactive)
REMARK    1  A    between atoms: C_1  and  C_2
REMARK    2  A    between atoms: C_2  and  C_36
REMARK    3  A    between atoms: C_8  and  S_12
REMARK    4  A    between atoms: S_12  and  N_15
REMARK    5  A    between atoms: N_15  and  C_16
REMARK    6  A    between atoms: C_16  and  C_18
REMARK    7  A    between atoms: C_16  and  C_25
REMARK    8  A    between atoms: C_18  and  C_19
REMARK    9  A    between atoms: C_30  and  C_33
REMARK   10  A    between atoms: C_33  and  C_34
REMARK   11  A    between atoms: C_34  and  O_35
REMARK                            x       y       z     vdW  Elec       q    Type
REMARK                         _______ _______ _______ _____ _____    ______ ____
ROOT
ATOM      1  C   UNL     1      -0.274   5.138   4.992  0.00  0.00    +0.167 C 
ENDROOT
BRANCH   1   2
ATOM      2  C   UNL     1      -0.575   3.742   5.474  0.00  0.00    +0.235 C 
ATOM      3  O   UNL     1      -0.146   3.364   6.543  0.00  0.00    -0.274 OA
ATOM      4  N   UNL     1      -1.321   2.914   4.716  0.00  0.00    -0.300 N 
ATOM      5  C   UNL     1      -1.897   3.376   3.446  0.00  0.00    +0.108 C 
ATOM      6  C   UNL     1      -3.405   3.107   3.461  0.00  0.00    +0.022 C 
ATOM      7  C   UNL     1      -3.652   1.626   3.761  0.00  0.00    -0.006 C 
ATOM      8  C   UNL     1      -3.086   1.283   5.141  0.00  0.00    +0.022 C 
ATOM      9  C   UNL     1      -1.574   1.531   5.145  0.00  0.00    +0.108 C 
BRANCH   7  10
ATOM     10  C   UNL     1      -5.156   1.346   3.743  0.00  0.00    +0.031 C 
BRANCH  10  11
ATOM     11  C   UNL     1      -5.397  -0.154   3.919  0.00  0.00    +0.156 C 
BRANCH  11  12
ATOM     12  O   UNL     1      -6.802  -0.416   3.902  0.00  0.00    -0.395 OA
ATOM     13  H   UNL     1      -7.171  -1.446   4.015  0.00  0.00    +0.209 HD
ENDBRANCH  11  12
ENDBRANCH  10  11
ENDBRANCH   7  10
ENDBRANCH   1   2
BRANCH   1  14
ATOM     14  N   UNL     1       0.304   5.919   6.088  0.00  0.00    -0.178 NA
ATOM     15  H   UNL     1       1.104   5.488   6.708  0.00  0.00    +0.149 HD
BRANCH  14  16
ATOM     16  S   UNL     1      -0.404   7.341   6.554  0.00  0.00    +0.061 S 
ATOM     17  O   UNL     1       0.360   7.837   7.645  0.00  0.00    -0.153 OA
ATOM     18  O   UNL     1      -0.618   8.096   5.369  0.00  0.00    -0.153 OA
BRANCH  16  26
ATOM     19  C   UNL     1      -2.321   3.912  11.961  0.00  0.00    +0.013 C 
ATOM     20  C   UNL     1      -2.239   4.429  10.523  0.00  0.00    -0.015 C 
ATOM     21  C   UNL     1      -3.549   5.127  10.150  0.00  0.00    +0.045 C 
ATOM     22  C   UNL     1      -3.362   5.906   8.872  0.00  0.00    -0.024 A 
ATOM     23  C   UNL     1      -4.494   6.331   8.195  0.00  0.00    +0.005 A 
ATOM     24  C   UNL     1      -4.379   7.059   7.027  0.00  0.00    +0.002 A 
ATOM     25  C   UNL     1      -3.127   7.372   6.530  0.00  0.00    +0.030 A 
ATOM     26  C   UNL     1      -1.997   6.945   7.194  0.00  0.00    +0.126 A 
ATOM     27  C   UNL     1      -2.107   6.206   8.373  0.00  0.00    +0.057 A 
ATOM     28  N   UNL     1      -0.927   5.795   8.992  0.00  0.00    -0.342 N 
ATOM     29  C   UNL     1      -1.106   5.455  10.405  0.00  0.00    +0.108 C 
ATOM     30  C   UNL     1      -1.984   3.263   9.567  0.00  0.00    +0.013 C 
ATOM     31  H   UNL     1       0.067   5.711   8.527  0.00  0.00    +0.146 HD
ENDBRANCH  16  26
ENDBRANCH  14  16
ENDBRANCH   1  14
BRANCH   1  32
ATOM     32  C   UNL     1       0.721   5.073   3.832  0.00  0.00    +0.066 C 
BRANCH  32  33
ATOM     33  C   UNL     1       0.903   6.450   3.248  0.00  0.00    -0.027 A 
ATOM     34  C   UNL     1       1.887   7.296   3.736  0.00  0.00    +0.006 A 
ATOM     35  C   UNL     1       2.017   8.554   3.169  0.00  0.00    +0.020 A 
ATOM     36  C   UNL     1       1.167   8.921   2.142  0.00  0.00    +0.111 A 
ATOM     37  N   UNL     1       0.242   8.091   1.703  0.00  0.00    -0.263 NA
ATOM     38  C   UNL     1       0.094   6.884   2.215  0.00  0.00    +0.114 A 
ENDBRANCH  32  33
ENDBRANCH   1  32
TORSDOF 9
