REMARK  Name = ZINC13496375
REMARK  7 active torsions:
REMARK  status: ('A' for Active; 'I' for Inactive)
REMARK    1  A    between atoms: C_1  and  C_2
REMARK    2  A    between atoms: C_5  and  C_8
REMARK    3  A    between atoms: C_8  and  C_10
REMARK    4  A    between atoms: C_8  and  N_22
REMARK    5  A    between atoms: N_12  and  C_13
REMARK    6  A    between atoms: C_23  and  C_25
REMARK    7  A    between atoms: C_26  and  C_27
REMARK                            x       y       z     vdW  Elec       q    Type
REMARK                         _______ _______ _______ _____ _____    ______ ____
ROOT
ATOM      1  C   UNL     1      -0.354  -5.981  -0.235  0.00  0.00    +0.190 C 
ENDROOT
BRANCH   1   6
ATOM      2  C   UNL     1      -1.129  -0.681  -2.404  0.00  0.00    +0.044 C 
ATOM      3  C   UNL     1      -0.927  -2.063  -1.838  0.00  0.00    -0.050 A 
ATOM      4  C   UNL     1      -0.641  -3.120  -2.682  0.00  0.00    +0.004 A 
ATOM      5  C   UNL     1      -0.456  -4.388  -2.163  0.00  0.00    +0.006 A 
ATOM      6  C   UNL     1      -0.556  -4.599  -0.801  0.00  0.00    -0.018 A 
ATOM      7  C   UNL     1      -0.840  -3.541   0.043  0.00  0.00    +0.006 A 
ATOM      8  C   UNL     1      -1.021  -2.273  -0.475  0.00  0.00    +0.004 A 
ENDBRANCH   1   6
BRANCH   1   9
ATOM      9  C   UNL     1      -1.695  -6.611   0.041  0.00  0.00    +0.242 C 
ATOM     10  O   UNL     1      -1.984  -6.952   1.168  0.00  0.00    -0.273 OA
ATOM     11  N   UNL     1      -2.574  -6.795  -0.965  0.00  0.00    -0.284 N 
ATOM     12  H   UNL     1      -2.369  -6.464  -1.853  0.00  0.00    +0.155 HD
BRANCH  11  13
ATOM     13  C   UNL     1      -3.781  -7.465  -0.727  0.00  0.00    +0.037 A 
ATOM     14  C   UNL     1      -4.893  -7.192  -1.513  0.00  0.00    +0.027 A 
ATOM     15  C   UNL     1      -6.084  -7.852  -1.280  0.00  0.00    +0.051 A 
ATOM     16  C   UNL     1      -6.173  -8.787  -0.261  0.00  0.00    +0.166 A 
ATOM     17  C   UNL     1      -5.059  -9.063   0.529  0.00  0.00    +0.168 A 
ATOM     18  C   UNL     1      -3.864  -8.405   0.291  0.00  0.00    +0.072 A 
ATOM     19  O   UNL     1      -5.402 -10.009   1.452  0.00  0.00    -0.453 OA
ATOM     20  C   UNL     1      -6.841 -10.011   1.483  0.00  0.00    +0.466 C 
ATOM     21  O   UNL     1      -7.213  -9.561   0.167  0.00  0.00    -0.453 OA
ENDBRANCH  11  13
ENDBRANCH   1   9
BRANCH   1  22
ATOM     22  N   UNL     1       0.409  -5.892   1.012  0.00  0.00    -0.297 N 
ATOM     23  C   UNL     1       1.756  -5.851   0.975  0.00  0.00    +0.238 C 
ATOM     24  O   UNL     1       2.338  -5.888  -0.093  0.00  0.00    -0.271 OA
ATOM     25  H   UNL     1      -0.054  -5.863   1.863  0.00  0.00    +0.150 HD
BRANCH  23  26
ATOM     26  C   UNL     1       2.519  -5.763   2.220  0.00  0.00    +0.068 C 
ATOM     27  C   UNL     1       3.857  -5.589   2.181  0.00  0.00    +0.013 C 
BRANCH  27  28
ATOM     28  C   UNL     1       4.519  -5.260   0.910  0.00  0.00    -0.021 A 
ATOM     29  C   UNL     1       3.997  -4.256   0.087  0.00  0.00    +0.012 A 
ATOM     30  C   UNL     1       4.619  -3.949  -1.103  0.00  0.00    +0.050 A 
ATOM     31  C   UNL     1       5.764  -4.633  -1.490  0.00  0.00    +0.166 A 
ATOM     32  C   UNL     1       6.290  -5.636  -0.675  0.00  0.00    +0.167 A 
ATOM     33  C   UNL     1       5.675  -5.946   0.522  0.00  0.00    +0.057 A 
ATOM     34  O   UNL     1       7.404  -6.147  -1.276  0.00  0.00    -0.453 OA
ATOM     35  C   UNL     1       7.322  -5.733  -2.652  0.00  0.00    +0.466 C 
ATOM     36  O   UNL     1       6.550  -4.519  -2.599  0.00  0.00    -0.453 OA
ENDBRANCH  27  28
ENDBRANCH  23  26
ENDBRANCH   1  22
TORSDOF 6
