REMARK  Name = ZINC19376249
REMARK  7 active torsions:
REMARK  status: ('A' for Active; 'I' for Inactive)
REMARK    1  A    between atoms: C_8  and  C_11
REMARK    2  A    between atoms: C_12  and  C_13
REMARK    3  A    between atoms: C_13  and  N_19
REMARK    4  A    between atoms: C_20  and  C_22
REMARK    5  A    between atoms: N_25  and  C_28
REMARK    6  A    between atoms: C_28  and  C_29
REMARK    7  A    between atoms: C_29  and  C_30
REMARK                            x       y       z     vdW  Elec       q    Type
REMARK                         _______ _______ _______ _____ _____    ______ ____
ROOT
ATOM      1  C   UNL     1      -0.018   1.468   0.010  0.00  0.00    +0.096 C 
ATOM      2  C   UNL     1      -0.758   1.975  -1.229  0.00  0.00    +0.039 C 
ATOM      3  C   UNL     1      -0.042   1.481  -2.488  0.00  0.00    +0.003 C 
ATOM      4  C   UNL     1       1.394   2.011  -2.499  0.00  0.00    +0.000 C 
ATOM      5  C   UNL     1       2.134   1.504  -1.260  0.00  0.00    +0.003 C 
ATOM      6  C   UNL     1       1.417   1.997  -0.001  0.00  0.00    +0.039 C 
ENDROOT
BRANCH   1   7
ATOM      7  N   UNL     1      -0.704   1.940   1.215  0.00  0.00    -0.299 N 
ATOM      8  C   UNL     1      -1.987   1.596   1.439  0.00  0.00    +0.217 C 
ATOM      9  O   UNL     1      -2.575   0.895   0.643  0.00  0.00    -0.275 OA
ATOM     10  H   UNL     1      -0.171   2.576   1.938  0.00  0.00    +0.150 HD
BRANCH   8  11
ATOM     11  C   UNL     1      -2.693   2.082   2.679  0.00  0.00    +0.072 C 
ATOM     12  C   UNL     1      -1.958   1.569   3.920  0.00  0.00    -0.006 C 
ATOM     13  C   UNL     1      -2.712   2.014   5.175  0.00  0.00    -0.078 C 
ATOM     14  N   UNL     1      -4.081   1.482   5.139  0.00  0.00    +0.380 N 
ATOM     15  C   UNL     1      -4.821   1.998   3.981  0.00  0.00    -0.078 C 
ATOM     16  C   UNL     1      -4.129   1.553   2.691  0.00  0.00    -0.006 C 
ATOM     17  H   UNL     1      -4.012   0.389   5.033  0.00  0.00    -0.082 HD
BRANCH  14  18
ATOM     18  C   UNL     1      -4.792   1.773   6.391  0.00  0.00    -0.070 C 
BRANCH  18  19
ATOM     19  C   UNL     1      -3.885   1.448   7.580  0.00  0.00    +0.077 C 
BRANCH  19  20
ATOM     20  C   UNL     1      -4.614   1.747   8.865  0.00  0.00    +0.209 C 
ATOM     21  O   UNL     1      -5.747   2.177   8.832  0.00  0.00    -0.276 OA
ATOM     22  N   UNL     1      -4.006   1.536  10.049  0.00  0.00    -0.329 N 
ATOM     23  H   UNL     1      -4.538   1.754  10.987  0.00  0.00    +0.145 HD
ATOM     24  H   UNL     1      -2.978   1.146  10.078  0.00  0.00    +0.145 HD
ENDBRANCH  19  20
ENDBRANCH  18  19
ENDBRANCH  14  18
ENDBRANCH   8  11
ENDBRANCH   1   7
BRANCH   1  26
ATOM     25  C   UNL     1       0.018  -1.178  -0.004  0.00  0.00    -0.063 C 
ATOM     26  C   UNL     1       0.002  -0.004   0.002  0.00  0.00    -0.071 C 
BRANCH  25  34
ATOM     27  C   UNL     1       2.317  -6.817  -0.057  0.00  0.00    +0.001 A 
ATOM     28  C   UNL     1       1.084  -7.466  -0.048  0.00  0.00    +0.002 A 
ATOM     29  C   UNL     1      -0.080  -6.761  -0.033  0.00  0.00    +0.028 A 
ATOM     30  C   UNL     1      -0.047  -5.356  -0.026  0.00  0.00    +0.071 A 
ATOM     31  C   UNL     1       1.210  -4.698  -0.035  0.00  0.00    +0.002 A 
ATOM     32  C   UNL     1       2.392  -5.458  -0.050  0.00  0.00    +0.010 A 
ATOM     33  C   UNL     1       1.247  -3.293  -0.033  0.00  0.00    +0.028 A 
ATOM     34  C   UNL     1       0.037  -2.610  -0.012  0.00  0.00    +0.044 A 
ATOM     35  C   UNL     1      -1.167  -3.335  -0.005  0.00  0.00    +0.128 A 
ATOM     36  N   UNL     1      -1.178  -4.643  -0.011  0.00  0.00    -0.254 NA
ENDBRANCH  25  34
ENDBRANCH   1  26
TORSDOF 7
