REMARK  Name = ZINC21722396
REMARK  5 active torsions:
REMARK  status: ('A' for Active; 'I' for Inactive)
REMARK    1  A    between atoms: C_1  and  C_2
REMARK    2  A    between atoms: C_2  and  C_3
REMARK    3  A    between atoms: C_15  and  C_17
REMARK    4  A    between atoms: C_26  and  C_28
REMARK    5  A    between atoms: C_26  and  C_29
REMARK                            x       y       z     vdW  Elec       q    Type
REMARK                         _______ _______ _______ _____ _____    ______ ____
ROOT
ATOM      1  C   UNL     1       2.600   4.382   0.968  0.00  0.00    +0.220 C 
ATOM      2  O   UNL     1       3.578   5.099   0.994  0.00  0.00    -0.275 OA
ATOM      3  N   UNL     1       2.322   3.660  -0.136  0.00  0.00    -0.258 N 
ATOM      4  C   UNL     1       1.195   2.838  -0.155  0.00  0.00    +0.058 A 
ATOM      5  C   UNL     1      -0.086   3.367  -0.115  0.00  0.00    +0.025 A 
ATOM      6  C   UNL     1      -1.175   2.520  -0.214  0.00  0.00    +0.002 A 
ATOM      7  C   UNL     1      -0.992   1.156  -0.351  0.00  0.00    +0.002 A 
ATOM      8  C   UNL     1       0.285   0.621  -0.358  0.00  0.00    +0.025 A 
ATOM      9  C   UNL     1       1.375   1.467  -0.254  0.00  0.00    +0.053 A 
ATOM     10  N   UNL     1       2.681   0.995  -0.194  0.00  0.00    -0.316 N 
ATOM     11  C   UNL     1       3.644   1.251  -1.116  0.00  0.00    +0.017 C 
ATOM     12  C   UNL     1       3.914   2.464  -1.627  0.00  0.00    +0.037 C 
ATOM     13  C   UNL     1       3.198   3.749  -1.285  0.00  0.00    +0.147 C 
ATOM     14  C   UNL     1       4.942   2.620  -2.587  0.00  0.00    +0.163 C 
ATOM     15  O   UNL     1       5.181   3.733  -3.013  0.00  0.00    -0.292 OA
ATOM     16  C   UNL     1       5.748   1.463  -3.095  0.00  0.00    +0.086 C 
ATOM     17  C   UNL     1       4.891   0.194  -3.002  0.00  0.00    -0.023 C 
ATOM     18  C   UNL     1       4.450   0.037  -1.547  0.00  0.00    +0.058 C 
ATOM     19  C   UNL     1       3.663   0.330  -3.904  0.00  0.00    +0.011 C 
ATOM     20  C   UNL     1       5.717  -1.022  -3.427  0.00  0.00    +0.011 C 
ATOM     21  H   UNL     1       2.999   0.362   0.648  0.00  0.00    +0.152 HD
ENDROOT
BRANCH  13  22
ATOM     22  C   UNL     1       2.377   4.170  -2.476  0.00  0.00    -0.022 A 
ATOM     23  C   UNL     1       1.341   3.369  -2.919  0.00  0.00    +0.006 A 
ATOM     24  C   UNL     1       0.585   3.757  -4.010  0.00  0.00    +0.000 A 
ATOM     25  C   UNL     1       0.870   4.941  -4.662  0.00  0.00    +0.000 A 
ATOM     26  C   UNL     1       1.909   5.740  -4.222  0.00  0.00    +0.000 A 
ATOM     27  C   UNL     1       2.663   5.354  -3.129  0.00  0.00    +0.006 A 
ENDBRANCH  13  22
BRANCH   1  29
ATOM     28  C   UNL     1       2.232   5.207   3.277  0.00  0.00    +0.013 C 
ATOM     29  C   UNL     1       1.695   4.297   2.170  0.00  0.00    +0.093 C 
ENDBRANCH   1  29
TORSDOF 2
