REMARK  Name = ZINC05823721
REMARK  8 active torsions:
REMARK  status: ('A' for Active; 'I' for Inactive)
REMARK    1  A    between atoms: C_1  and  C_2
REMARK    2  A    between atoms: C_2  and  C_30
REMARK    3  A    between atoms: C_6  and  C_17
REMARK    4  A    between atoms: C_11  and  O_16
REMARK    5  A    between atoms: C_12  and  O_15
REMARK    6  A    between atoms: C_24  and  S_26
REMARK    7  A    between atoms: S_26  and  C_27
REMARK    8  A    between atoms: C_27  and  C_28
REMARK                            x       y       z     vdW  Elec       q    Type
REMARK                         _______ _______ _______ _____ _____    ______ ____
ROOT
ATOM      1  C   UNL     1      -0.019   1.526   0.010  0.00  0.00    +0.031 C 
ATOM      2  C   UNL     1       0.002  -0.004   0.002  0.00  0.00    +0.034 C 
ATOM      3  C   UNL     1      -1.434  -0.546   0.065  0.00  0.00    +0.096 C 
ATOM      4  C   UNL     1      -1.373  -2.075   0.081  0.00  0.00    +0.187 C 
ATOM      5  C   UNL     1      -2.769  -2.632   0.390  0.00  0.00    +0.084 C 
ATOM      6  C   UNL     1      -3.758  -2.040  -0.617  0.00  0.00    +0.058 C 
ATOM      7  C   UNL     1      -3.203  -2.175  -2.013  0.00  0.00    +0.006 A 
ATOM      8  C   UNL     1      -4.070  -2.057  -3.088  0.00  0.00    +0.011 A 
ATOM      9  C   UNL     1      -3.602  -2.171  -4.381  0.00  0.00    +0.050 A 
ATOM     10  C   UNL     1      -2.254  -2.404  -4.611  0.00  0.00    +0.162 A 
ATOM     11  C   UNL     1      -1.382  -2.525  -3.538  0.00  0.00    +0.201 A 
ATOM     12  C   UNL     1      -1.859  -2.412  -2.233  0.00  0.00    +0.172 A 
ATOM     13  O   UNL     1      -0.977  -2.548  -1.208  0.00  0.00    -0.463 OA
ATOM     14  N   UNL     1      -0.428  -2.540   1.090  0.00  0.00    -0.331 N 
ATOM     15  C   UNL     1       0.521  -1.808   1.576  0.00  0.00    +0.131 C 
ATOM     16  N   UNL     1       0.712  -0.501   1.191  0.00  0.00    -0.320 N 
ATOM     17  C   UNL     1       0.695  -0.508  -1.266  0.00  0.00    +0.031 C 
ATOM     18  H   UNL     1       1.303   0.081   1.693  0.00  0.00    +0.148 HD
ATOM     19  H   UNL     1      -0.516  -3.450   1.415  0.00  0.00    +0.165 HD
ENDROOT
BRANCH   6  20
ATOM     20  C   UNL     1      -5.069  -2.778  -0.526  0.00  0.00    -0.040 A 
ATOM     21  C   UNL     1      -5.114  -4.139  -0.765  0.00  0.00    +0.004 A 
ATOM     22  C   UNL     1      -6.317  -4.815  -0.681  0.00  0.00    +0.000 A 
ATOM     23  C   UNL     1      -7.474  -4.131  -0.358  0.00  0.00    +0.000 A 
ATOM     24  C   UNL     1      -7.428  -2.771  -0.118  0.00  0.00    +0.000 A 
ATOM     25  C   UNL     1      -6.225  -2.095  -0.197  0.00  0.00    +0.004 A 
ENDBRANCH   6  20
BRANCH  11  26
ATOM     26  O   UNL     1      -0.059  -2.754  -3.761  0.00  0.00    -0.501 OA
ATOM     27  H   UNL     1       0.471  -1.950  -3.847  0.00  0.00    +0.292 HD
ENDBRANCH  11  26
BRANCH  10  28
ATOM     28  O   UNL     1      -1.789  -2.515  -5.885  0.00  0.00    -0.503 OA
ATOM     29  H   UNL     1      -1.507  -1.676  -6.275  0.00  0.00    +0.292 HD
ENDBRANCH  10  28
BRANCH  15  30
ATOM     30  S   UNL     1       1.607  -2.509   2.773  0.00  0.00    -0.089 S 
BRANCH  30  31
ATOM     31  C   UNL     1       2.755  -1.160   3.168  0.00  0.00    +0.103 C 
BRANCH  31  32
ATOM     32  C   UNL     1       3.751  -1.633   4.195  0.00  0.00    -0.023 C 
ATOM     33  C   UNL     1       5.021  -1.720   3.884  0.00  0.00    +0.005 C 
ENDBRANCH  31  32
ENDBRANCH  30  31
ENDBRANCH  15  30
TORSDOF 6
