REMARK  Name = ZINC08918644
REMARK  13 active torsions:
REMARK  status: ('A' for Active; 'I' for Inactive)
REMARK    1  A    between atoms: C_1  and  C_2
REMARK    2  A    between atoms: C_2  and  C_3
REMARK    3  A    between atoms: C_8  and  N_9
REMARK    4  A    between atoms: C_10  and  C_12
REMARK    5  A    between atoms: C_16  and  N_17
REMARK    6  A    between atoms: C_18  and  C_20
REMARK    7  A    between atoms: C_20  and  N_79
REMARK    8  A    between atoms: C_25  and  C_27
REMARK    9  A    between atoms: C_27  and  C_28
REMARK   10  A    between atoms: C_30  and  C_34
REMARK   11  A    between atoms: C_34  and  C_35
REMARK   12  A    between atoms: C_34  and  C_36
REMARK   13  A    between atoms: C_34  and  C_37
REMARK                            x       y       z     vdW  Elec       q    Type
REMARK                         _______ _______ _______ _____ _____    ______ ____
ROOT
ATOM      1  C   UNL     1       0.094   1.425   4.931  0.00  0.00    +0.069 A 
ATOM      2  C   UNL     1       0.944   0.805   5.932  0.00  0.00    -0.023 A 
ATOM      3  C   UNL     1       2.018   0.145   5.446  0.00  0.00    -0.004 A 
ATOM      4  S   UNL     1       1.907   0.333   3.689  0.00  0.00    -0.077 S 
ATOM      5  C   UNL     1       0.455   1.274   3.600  0.00  0.00    +0.084 A 
ATOM      6  C   UNL     1       3.065  -0.580   6.233  0.00  0.00    +0.046 C 
ATOM      7  C   UNL     1       2.949  -0.151   7.703  0.00  0.00    -0.000 C 
ATOM      8  C   UNL     1       1.479  -0.228   8.125  0.00  0.00    +0.009 C 
ATOM      9  C   UNL     1       0.680   0.876   7.431  0.00  0.00    +0.037 C 
ENDROOT
BRANCH   1  11
ATOM     10  N   UNL     1      -1.018   3.505   5.549  0.00  0.00    -0.281 N 
ATOM     11  C   UNL     1      -1.104   2.180   5.313  0.00  0.00    +0.251 C 
ATOM     12  O   UNL     1      -2.175   1.611   5.417  0.00  0.00    -0.270 OA
ATOM     13  H   UNL     1      -0.153   3.944   5.542  0.00  0.00    +0.155 HD
BRANCH  10  19
ATOM     14  C   UNL     1      -2.102   5.426   6.531  0.00  0.00    -0.026 A 
ATOM     15  C   UNL     1      -3.247   6.159   6.777  0.00  0.00    +0.005 A 
ATOM     16  C   UNL     1      -4.469   5.711   6.310  0.00  0.00    +0.000 A 
ATOM     17  C   UNL     1      -4.548   4.532   5.590  0.00  0.00    +0.002 A 
ATOM     18  C   UNL     1      -3.406   3.799   5.337  0.00  0.00    +0.023 A 
ATOM     19  C   UNL     1      -2.177   4.245   5.805  0.00  0.00    +0.037 A 
BRANCH  14  21
ATOM     20  C   UNL     1      -0.062   6.712   5.952  0.00  0.00    +0.009 C 
ATOM     21  C   UNL     1      -0.771   5.912   7.046  0.00  0.00    +0.033 C 
ENDBRANCH  14  21
ENDBRANCH  10  19
ENDBRANCH   1  11
BRANCH   5  22
ATOM     22  N   UNL     1      -0.187   1.763   2.472  0.00  0.00    -0.281 N 
ATOM     23  C   UNL     1       0.321   1.517   1.248  0.00  0.00    +0.201 C 
ATOM     24  O   UNL     1       1.339   0.868   1.133  0.00  0.00    -0.278 OA
ATOM     25  H   UNL     1      -1.001   2.282   2.564  0.00  0.00    +0.155 HD
BRANCH  23  26
ATOM     26  C   UNL     1      -0.377   2.048   0.022  0.00  0.00    +0.019 C 
BRANCH  26  32
ATOM     27  C   UNL     1       0.372   0.186  -1.332  0.00  0.00    -0.078 C 
ATOM     28  C   UNL     1       1.028  -0.186  -2.663  0.00  0.00    -0.019 C 
ATOM     29  C   UNL     1       2.462   0.351  -2.687  0.00  0.00    -0.003 C 
ATOM     30  C   UNL     1       2.434   1.867  -2.477  0.00  0.00    -0.015 C 
ATOM     31  C   UNL     1       1.736   2.180  -1.151  0.00  0.00    -0.068 C 
ATOM     32  N   UNL     1       0.354   1.658  -1.201  0.00  0.00    +0.387 N 
ATOM     33  H   UNL     1      -0.124   2.059  -2.017  0.00  0.00    -0.081 HD
BRANCH  31  34
ATOM     34  C   UNL     1       1.688   3.696  -0.946  0.00  0.00    -0.019 C 
ATOM     35  C   UNL     1       3.114   4.249  -0.893  0.00  0.00    +0.002 C 
ENDBRANCH  31  34
ENDBRANCH  26  32
ENDBRANCH  23  26
ENDBRANCH   5  22
BRANCH   7  36
ATOM     36  C   UNL     1       3.784  -1.088   8.579  0.00  0.00    -0.035 C 
ATOM     37  C   UNL     1       5.249  -1.021   8.144  0.00  0.00    +0.011 C 
ATOM     38  C   UNL     1       3.666  -0.658  10.042  0.00  0.00    +0.011 C 
ATOM     39  C   UNL     1       3.271  -2.521   8.425  0.00  0.00    +0.011 C 
ENDBRANCH   7  36
TORSDOF 8
