REMARK  Name = ZINC39687234
REMARK  6 active torsions:
REMARK  status: ('A' for Active; 'I' for Inactive)
REMARK    1  A    between atoms: C_4  and  C_7
REMARK    2  A    between atoms: C_7  and  C_8
REMARK    3  A    between atoms: C_8  and  C_10
REMARK    4  A    between atoms: C_8  and  N_18
REMARK    5  A    between atoms: C_19  and  C_21
REMARK    6  A    between atoms: C_32  and  C_34
REMARK                            x       y       z     vdW  Elec       q    Type
REMARK                         _______ _______ _______ _____ _____    ______ ____
ROOT
ATOM      1  C   UNL     1       5.678   2.741   2.713  0.00  0.00    +0.100 C 
ATOM      2  C   UNL     1       7.122   2.385   2.292  0.00  0.00    +0.121 C 
ATOM      3  N   UNL     1       7.982   3.238   3.147  0.00  0.00    -0.296 N 
ATOM      4  C   UNL     1       7.313   3.227   4.470  0.00  0.00    +0.115 C 
ATOM      5  C   UNL     1       5.808   3.292   4.143  0.00  0.00    -0.004 C 
ATOM      6  C   UNL     1       5.019   2.424   5.118  0.00  0.00    -0.010 C 
ATOM      7  C   UNL     1       5.115   3.025   6.523  0.00  0.00    -0.082 C 
ATOM      8  N   UNL     1       4.580   4.392   6.510  0.00  0.00    +0.379 N 
ATOM      9  C   UNL     1       5.401   5.243   5.641  0.00  0.00    -0.082 C 
ATOM     10  C   UNL     1       5.317   4.736   4.199  0.00  0.00    -0.010 C 
ATOM     11  C   UNL     1       9.115   3.879   2.799  0.00  0.00    +0.249 C 
ATOM     12  O   UNL     1       9.764   4.466   3.643  0.00  0.00    -0.270 OA
ATOM     13  H   UNL     1       3.631   4.377   6.165  0.00  0.00    -0.086 HD
ATOM     14  H   UNL     1       4.588   4.763   7.448  0.00  0.00    -0.086 HD
ENDROOT
BRANCH  11  15
ATOM     15  C   UNL     1       9.569   3.868   1.394  0.00  0.00    +0.072 A 
ATOM     16  C   UNL     1       9.379   2.732   0.604  0.00  0.00    +0.016 A 
ATOM     17  C   UNL     1       9.804   2.728  -0.707  0.00  0.00    +0.001 A 
ATOM     18  C   UNL     1      10.419   3.847  -1.244  0.00  0.00    +0.003 A 
ATOM     19  C   UNL     1      10.611   4.976  -0.471  0.00  0.00    +0.039 A 
ATOM     20  C   UNL     1      10.184   4.997   0.845  0.00  0.00    +0.135 A 
ATOM     21  F   UNL     1      10.368   6.103   1.599  0.00  0.00    -0.205 F 
ENDBRANCH  11  15
BRANCH   1  23
ATOM     22  N   UNL     1       3.498   1.613   2.414  0.00  0.00    -0.303 N 
ATOM     23  C   UNL     1       4.810   1.509   2.702  0.00  0.00    +0.219 C 
ATOM     24  O   UNL     1       5.293   0.425   2.952  0.00  0.00    -0.275 OA
ATOM     25  H   UNL     1       3.112   2.480   2.214  0.00  0.00    +0.149 HD
BRANCH  22  26
ATOM     26  C   UNL     1       2.653   0.415   2.404  0.00  0.00    +0.163 C 
BRANCH  26  27
ATOM     27  C   UNL     1       2.748  -0.254   1.057  0.00  0.00    +0.236 C 
ATOM     28  O   UNL     1       3.040   0.396   0.076  0.00  0.00    -0.274 OA
ATOM     29  N   UNL     1       2.508  -1.575   0.943  0.00  0.00    -0.300 N 
ATOM     30  C   UNL     1       2.046  -2.355   2.100  0.00  0.00    +0.108 C 
ATOM     31  C   UNL     1       0.765  -3.101   1.712  0.00  0.00    +0.019 C 
ATOM     32  C   UNL     1       1.026  -3.935   0.456  0.00  0.00    +0.003 C 
ATOM     33  C   UNL     1       1.416  -3.010  -0.700  0.00  0.00    +0.019 C 
ATOM     34  C   UNL     1       2.698  -2.263  -0.342  0.00  0.00    +0.108 C 
ENDBRANCH  26  27
BRANCH  26  35
ATOM     35  C   UNL     1       1.201   0.813   2.675  0.00  0.00    +0.067 C 
BRANCH  35  39
ATOM     36  C   UNL     1       0.866   2.378   6.635  0.00  0.00    +0.000 A 
ATOM     37  C   UNL     1       1.145   3.225   5.579  0.00  0.00    +0.000 A 
ATOM     38  C   UNL     1       1.253   2.718   4.297  0.00  0.00    +0.004 A 
ATOM     39  C   UNL     1       1.084   1.365   4.072  0.00  0.00    -0.045 A 
ATOM     40  C   UNL     1       0.806   0.518   5.129  0.00  0.00    +0.004 A 
ATOM     41  C   UNL     1       0.696   1.025   6.410  0.00  0.00    +0.000 A 
ENDBRANCH  35  39
ENDBRANCH  26  35
ENDBRANCH  22  26
ENDBRANCH   1  23
TORSDOF 6
