REMARK  Name = ZINC04909656
REMARK  3 active torsions:
REMARK  status: ('A' for Active; 'I' for Inactive)
REMARK    1  A    between atoms: C_1  and  N_2
REMARK    2  A    between atoms: N_2  and  C_3
REMARK    3  A    between atoms: C_3  and  C_4
REMARK                            x       y       z     vdW  Elec       q    Type
REMARK                         _______ _______ _______ _____ _____    ______ ____
ROOT
ATOM      1  C   UNL     1      -1.106  -1.542   1.209  0.00  0.00    +0.131 C 
ATOM      2  N   UNL     1      -1.234  -0.717  -0.000  0.00  0.00    -0.312 N 
ATOM      3  C   UNL     1      -0.007  -0.189  -0.373  0.00  0.00    +0.149 A 
ATOM      4  C   UNL     1       1.090  -1.028  -0.609  0.00  0.00    +0.106 A 
ATOM      5  C   UNL     1       2.302  -0.435  -0.984  0.00  0.00    +0.101 A 
ATOM      6  C   UNL     1       3.265  -1.533  -1.163  0.00  0.00    +0.027 A 
ATOM      7  C   UNL     1       4.610  -1.581  -1.526  0.00  0.00    +0.027 A 
ATOM      8  C   UNL     1       5.254  -2.796  -1.611  0.00  0.00    +0.019 A 
ATOM      9  C   UNL     1       4.569  -3.971  -1.336  0.00  0.00    +0.017 A 
ATOM     10  C   UNL     1       3.240  -3.939  -0.977  0.00  0.00    +0.027 A 
ATOM     11  C   UNL     1       2.570  -2.722  -0.885  0.00  0.00    +0.049 A 
ATOM     12  N   UNL     1       1.268  -2.397  -0.555  0.00  0.00    -0.350 N 
ATOM     13  H   UNL     1       0.579  -3.038  -0.320  0.00  0.00    +0.166 HD
ATOM     14 BR   UNL     1       7.079  -2.862  -2.103  0.00  0.00    -0.050 Br
ATOM     15  N   UNL     1       2.370   0.891  -1.101  0.00  0.00    -0.233 NA
ATOM     16  C   UNL     1       1.313   1.638  -0.869  0.00  0.00    +0.224 A 
ATOM     17  N   UNL     1       0.151   1.123  -0.514  0.00  0.00    -0.219 NA
ENDROOT
BRANCH   2  18
ATOM     18  C   UNL     1      -2.229   0.347   0.191  0.00  0.00    +0.167 C 
BRANCH  18  19
ATOM     19  C   UNL     1      -3.632  -0.262   0.193  0.00  0.00    +0.267 C 
ATOM     20  O   UNL     1      -3.772  -1.148   1.317  0.00  0.00    -0.347 OA
ATOM     21  C   UNL     1      -4.606  -2.228   0.839  0.00  0.00    +0.191 C 
ATOM     22  C   UNL     1      -4.118  -2.374  -0.625  0.00  0.00    +0.191 C 
ATOM     23  O   UNL     1      -3.834  -1.014  -1.011  0.00  0.00    -0.347 OA
ENDBRANCH  18  19
ENDBRANCH   2  18
TORSDOF 2
