REMARK  Name = ZINC64370030
REMARK  7 active torsions:
REMARK  status: ('A' for Active; 'I' for Inactive)
REMARK    1  A    between atoms: C_1  and  N_2
REMARK    2  A    between atoms: C_3  and  C_20
REMARK    3  A    between atoms: C_6  and  S_7
REMARK    4  A    between atoms: S_7  and  C_8
REMARK    5  A    between atoms: C_8  and  C_9
REMARK    6  A    between atoms: N_11  and  C_12
REMARK    7  A    between atoms: C_21  and  N_29
REMARK                            x       y       z     vdW  Elec       q    Type
REMARK                         _______ _______ _______ _____ _____    ______ ____
ROOT
ATOM      1  C   UNL     1      -0.063   1.462   0.012  0.00  0.00    +0.153 C 
ATOM      2  N   UNL     1      -0.044  -0.002   0.004  0.00  0.00    -0.305 N 
ATOM      3  C   UNL     1      -0.047  -0.829  -1.099  0.00  0.00    +0.173 A 
ATOM      4  N   UNL     1      -0.025  -2.066  -0.651  0.00  0.00    -0.128 NA
ATOM      5  N   UNL     1      -0.009  -2.068   0.634  0.00  0.00    -0.122 NA
ATOM      6  C   UNL     1      -0.014  -0.836   1.089  0.00  0.00    +0.192 A 
ENDROOT
BRANCH   3   7
ATOM      7  C   UNL     1      -0.070  -0.409  -2.506  0.00  0.00    +0.080 A 
ATOM      8  C   UNL     1      -0.079  -1.192  -3.620  0.00  0.00    +0.052 A 
ATOM      9  C   UNL     1      -0.103  -0.552  -4.925  0.00  0.00    +0.029 A 
ATOM     10  C   UNL     1      -0.115  -1.152  -6.209  0.00  0.00    +0.014 A 
ATOM     11  C   UNL     1      -0.138  -0.344  -7.322  0.00  0.00    +0.020 A 
ATOM     12  C   UNL     1      -0.148   1.036  -7.187  0.00  0.00    +0.112 A 
ATOM     13  N   UNL     1      -0.136   1.591  -5.990  0.00  0.00    -0.248 NA
ATOM     14  C   UNL     1      -0.115   0.862  -4.897  0.00  0.00    +0.111 A 
ATOM     15  S   UNL     1      -0.100   1.247  -3.163  0.00  0.00    -0.064 S 
BRANCH   8  16
ATOM     16  N   UNL     1      -0.065  -2.589  -3.510  0.00  0.00    -0.356 N 
ATOM     17  H   UNL     1      -0.049  -3.007  -2.635  0.00  0.00    +0.142 HD
ATOM     18  H   UNL     1      -0.071  -3.138  -4.310  0.00  0.00    +0.142 HD
ENDBRANCH   8  16
ENDBRANCH   3   7
BRANCH   6  19
ATOM     19  S   UNL     1       0.010  -0.347   2.781  0.00  0.00    -0.077 S 
BRANCH  19  20
ATOM     20  C   UNL     1       0.046  -1.916   3.691  0.00  0.00    +0.173 C 
BRANCH  20  21
ATOM     21  C   UNL     1       0.069  -1.637   5.172  0.00  0.00    +0.228 C 
ATOM     22  O   UNL     1       0.061  -0.493   5.574  0.00  0.00    -0.275 OA
ATOM     23  N   UNL     1       0.098  -2.660   6.049  0.00  0.00    -0.284 N 
ATOM     24  H   UNL     1       0.039  -3.574   5.731  0.00  0.00    +0.155 HD
BRANCH  23  25
ATOM     25  C   UNL     1       0.214  -2.402   7.421  0.00  0.00    +0.052 A 
ATOM     26  C   UNL     1      -0.387  -1.278   7.970  0.00  0.00    +0.026 A 
ATOM     27  C   UNL     1      -0.272  -1.026   9.323  0.00  0.00    +0.022 A 
ATOM     28  C   UNL     1       0.443  -1.893  10.132  0.00  0.00    +0.042 A 
ATOM     29  C   UNL     1       1.044  -3.014   9.587  0.00  0.00    +0.041 A 
ATOM     30  C   UNL     1       0.926  -3.275   8.235  0.00  0.00    +0.064 A 
ATOM     31 CL   UNL     1       1.673  -4.685   7.553  0.00  0.00    -0.082 Cl
ATOM     32 CL   UNL     1       0.587  -1.572  11.832  0.00  0.00    -0.083 Cl
ENDBRANCH  23  25
ENDBRANCH  20  21
ENDBRANCH  19  20
ENDBRANCH   6  19
TORSDOF 6
