REMARK  Name = ZINC16345848
REMARK  10 active torsions:
REMARK  status: ('A' for Active; 'I' for Inactive)
REMARK    1  A    between atoms: C_1  and  C_2
REMARK    2  A    between atoms: C_8  and  N_10
REMARK    3  A    between atoms: C_11  and  C_13
REMARK    4  A    between atoms: C_13  and  S_14
REMARK    5  A    between atoms: S_14  and  C_15
REMARK    6  A    between atoms: C_18  and  C_21
REMARK    7  A    between atoms: N_19  and  C_20
REMARK    8  A    between atoms: C_21  and  C_23
REMARK    9  A    between atoms: C_21  and  N_24
REMARK   10  A    between atoms: C_25  and  C_27
REMARK                            x       y       z     vdW  Elec       q    Type
REMARK                         _______ _______ _______ _____ _____    ______ ____
ROOT
ATOM      1  C   UNL     1       2.223  -4.893   3.935  0.00  0.00    +0.192 A 
ATOM      2  N   UNL     1       1.263  -5.499   3.275  0.00  0.00    -0.122 NA
ATOM      3  N   UNL     1       1.415  -6.773   3.355  0.00  0.00    -0.132 NA
ATOM      4  C   UNL     1       2.466  -7.054   4.071  0.00  0.00    +0.154 A 
ATOM      5  N   UNL     1       3.019  -5.867   4.467  0.00  0.00    -0.308 N 
ATOM      6  C   UNL     1       4.216  -5.679   5.290  0.00  0.00    +0.152 C 
ENDROOT
BRANCH   4   7
ATOM      7  C   UNL     1       2.979  -8.432   4.403  0.00  0.00    +0.138 C 
ATOM      8  C   UNL     1       2.084  -9.066   5.470  0.00  0.00    +0.036 C 
BRANCH   7   9
ATOM      9  N   UNL     1       2.963  -9.262   3.196  0.00  0.00    -0.302 N 
ATOM     10  C   UNL     1       3.800 -10.313   3.090  0.00  0.00    +0.246 C 
ATOM     11  O   UNL     1       4.569 -10.571   3.995  0.00  0.00    -0.270 OA
ATOM     12  H   UNL     1       2.349  -9.056   2.474  0.00  0.00    +0.150 HD
BRANCH  10  13
ATOM     13  C   UNL     1       3.784 -11.150   1.872  0.00  0.00    +0.051 A 
ATOM     14  C   UNL     1       2.899 -10.860   0.833  0.00  0.00    +0.014 A 
ATOM     15  C   UNL     1       2.892 -11.643  -0.303  0.00  0.00    +0.001 A 
ATOM     16  C   UNL     1       3.754 -12.721  -0.409  0.00  0.00    +0.001 A 
ATOM     17  C   UNL     1       4.630 -13.018   0.618  0.00  0.00    +0.016 A 
ATOM     18  C   UNL     1       4.651 -12.240   1.759  0.00  0.00    +0.030 A 
ATOM     19 BR   UNL     1       5.849 -12.648   3.164  0.00  0.00    -0.050 Br
ENDBRANCH  10  13
ENDBRANCH   7   9
ENDBRANCH   4   7
BRANCH   1  20
ATOM     20  S   UNL     1       2.438  -3.153   4.109  0.00  0.00    -0.077 S 
BRANCH  20  21
ATOM     21  C   UNL     1       1.023  -2.564   3.147  0.00  0.00    +0.173 C 
BRANCH  21  23
ATOM     22  N   UNL     1       0.031  -0.392   2.498  0.00  0.00    -0.312 N 
ATOM     23  C   UNL     1       1.002  -1.057   3.155  0.00  0.00    +0.224 C 
ATOM     24  O   UNL     1       1.860  -0.442   3.752  0.00  0.00    -0.275 OA
ATOM     25  H   UNL     1      -0.655  -0.884   2.020  0.00  0.00    +0.149 HD
BRANCH  22  32
ATOM     26  C   UNL     1      -0.013   1.086   0.008  0.00  0.00    +0.009 C 
ATOM     27  C   UNL     1      -0.729   1.579   1.267  0.00  0.00    +0.006 C 
ATOM     28  C   UNL     1      -2.164   1.050   1.278  0.00  0.00    +0.005 C 
ATOM     29  C   UNL     1      -2.880   1.543   2.537  0.00  0.00    +0.000 C 
ATOM     30  C   UNL     1      -2.140   1.036   3.776  0.00  0.00    +0.002 C 
ATOM     31  C   UNL     1      -0.705   1.566   3.765  0.00  0.00    +0.022 C 
ATOM     32  C   UNL     1       0.011   1.072   2.506  0.00  0.00    +0.076 C 
ENDBRANCH  22  32
ENDBRANCH  21  23
ENDBRANCH  20  21
ENDBRANCH   1  20
TORSDOF 7
