REMARK  Name = ZINC26786685
REMARK  6 active torsions:
REMARK  status: ('A' for Active; 'I' for Inactive)
REMARK    1  A    between atoms: C_4  and  S_7
REMARK    2  A    between atoms: S_7  and  N_10
REMARK    3  A    between atoms: C_13  and  N_22
REMARK    4  A    between atoms: N_22  and  N_23
REMARK    5  A    between atoms: C_24  and  C_26
REMARK    6  A    between atoms: C_33  and  O_36
REMARK                            x       y       z     vdW  Elec       q    Type
REMARK                         _______ _______ _______ _____ _____    ______ ____
ROOT
ATOM      1  N   UNL     1       7.048   9.625  -0.017  0.00  0.00    -0.129 NA
ATOM      2  C   UNL     1       5.910  10.265  -0.014  0.00  0.00    +0.091 C 
ATOM      3  C   UNL     1       4.649   9.513  -0.007  0.00  0.00    +0.058 C 
ATOM      4  C   UNL     1       3.473  10.177  -0.003  0.00  0.00    +0.094 C 
ATOM      5  C   UNL     1       3.465  11.651  -0.012  0.00  0.00    +0.205 C 
ATOM      6  O   UNL     1       2.405  12.250  -0.013  0.00  0.00    -0.286 OA
ATOM      7  C   UNL     1       4.730  12.404  -0.015  0.00  0.00    +0.010 C 
ATOM      8  C   UNL     1       5.897  11.746  -0.019  0.00  0.00    -0.010 C 
ATOM      9  C   UNL     1       7.214  12.473  -0.029  0.00  0.00    +0.064 C 
ATOM     10  C   UNL     1       7.073  13.873   0.481  0.00  0.00    -0.026 C 
ATOM     11  C   UNL     1       5.943  14.510   0.485  0.00  0.00    -0.026 C 
ATOM     12  C   UNL     1       4.670  13.906  -0.020  0.00  0.00    +0.066 C 
ENDROOT
BRANCH   1  13
ATOM     13  S   UNL     1       8.342  10.238  -0.849  0.00  0.00    +0.099 S 
ATOM     14  O   UNL     1       7.810  10.955  -1.954  0.00  0.00    -0.146 OA
ATOM     15  O   UNL     1       9.194  10.844   0.113  0.00  0.00    -0.146 OA
BRANCH  13  19
ATOM     16  C   UNL     1      10.620   6.722  -2.564  0.00  0.00    +0.000 A 
ATOM     17  C   UNL     1       9.607   7.313  -3.296  0.00  0.00    +0.002 A 
ATOM     18  C   UNL     1       8.911   8.386  -2.772  0.00  0.00    +0.029 A 
ATOM     19  C   UNL     1       9.228   8.869  -1.517  0.00  0.00    +0.112 A 
ATOM     20  C   UNL     1      10.245   8.283  -0.787  0.00  0.00    +0.029 A 
ATOM     21  C   UNL     1      10.937   7.206  -1.308  0.00  0.00    +0.002 A 
ENDBRANCH  13  19
ENDBRANCH   1  13
BRANCH   4  22
ATOM     22  N   UNL     1       2.275   9.473   0.003  0.00  0.00    -0.261 N 
ATOM     23  H   UNL     1       1.318  10.016   0.006  0.00  0.00    +0.170 HD
BRANCH  22  24
ATOM     24  N   UNL     1       2.285   8.072   0.006  0.00  0.00    -0.232 N 
ATOM     25  C   UNL     1       1.123   7.390   0.012  0.00  0.00    +0.260 C 
ATOM     26  O   UNL     1       0.066   7.990   0.015  0.00  0.00    -0.269 OA
ATOM     27  H   UNL     1       3.242   7.530   0.003  0.00  0.00    +0.173 HD
BRANCH  25  28
ATOM     28  C   UNL     1       1.135   5.913   0.015  0.00  0.00    +0.039 A 
ATOM     29  C   UNL     1       2.361   5.224   0.012  0.00  0.00    +0.014 A 
ATOM     30  C   UNL     1       2.397   3.867   0.014  0.00  0.00    +0.009 A 
ATOM     31  C   UNL     1       1.197   3.131   0.021  0.00  0.00    -0.014 A 
ATOM     32  C   UNL     1       1.211   1.727   0.023  0.00  0.00    +0.009 A 
ATOM     33  C   UNL     1       0.038   1.035   0.029  0.00  0.00    +0.004 A 
ATOM     34  C   UNL     1      -1.187   1.695   0.027  0.00  0.00    +0.046 A 
ATOM     35  C   UNL     1      -1.245   3.071   0.031  0.00  0.00    +0.125 A 
ATOM     36  C   UNL     1      -0.045   3.815   0.025  0.00  0.00    +0.024 A 
ATOM     37  C   UNL     1      -0.063   5.216   0.022  0.00  0.00    +0.025 A 
BRANCH  35  38
ATOM     38  O   UNL     1      -2.445   3.706   0.034  0.00  0.00    -0.506 OA
ATOM     39  H   UNL     1      -2.485   4.805   0.037  0.00  0.00    +0.292 HD
ENDBRANCH  35  38
ENDBRANCH  25  28
ENDBRANCH  22  24
ENDBRANCH   4  22
TORSDOF 6
