REMARK  Name = ZINC37195879
REMARK  7 active torsions:
REMARK  status: ('A' for Active; 'I' for Inactive)
REMARK    1  A    between atoms: C_1  and  C_2
REMARK    2  A    between atoms: C_2  and  O_3
REMARK    3  A    between atoms: O_3  and  C_4
REMARK    4  A    between atoms: C_7  and  C_10
REMARK    5  A    between atoms: N_15  and  C_16
REMARK    6  A    between atoms: C_16  and  N_17
REMARK    7  A    between atoms: C_25  and  C_27
REMARK                            x       y       z     vdW  Elec       q    Type
REMARK                         _______ _______ _______ _____ _____    ______ ____
ROOT
ATOM      1  C   UNL     1       0.987  -6.082   1.759  0.00  0.00    -0.036 C 
ATOM      2  C   UNL     1       2.330  -6.482   1.113  0.00  0.00    -0.012 C 
ATOM      3  C   UNL     1       2.892  -7.539   2.100  0.00  0.00    -0.020 C 
ATOM      4  C   UNL     1       2.415  -6.979   3.463  0.00  0.00    -0.076 C 
ATOM      5  N   UNL     1       1.071  -6.416   3.193  0.00  0.00    +0.395 N 
ATOM      6  H   UNL     1       0.363  -7.097   3.425  0.00  0.00    -0.079 HD
ENDROOT
BRANCH   1  10
ATOM      7  C   UNL     1       0.336  -1.885   1.282  0.00  0.00    +0.121 A 
ATOM      8  C   UNL     1      -0.671  -2.785   0.965  0.00  0.00    +0.046 A 
ATOM      9  C   UNL     1      -0.458  -4.141   1.120  0.00  0.00    +0.005 A 
ATOM     10  C   UNL     1       0.757  -4.602   1.591  0.00  0.00    -0.061 A 
ATOM     11  C   UNL     1       1.762  -3.707   1.908  0.00  0.00    +0.005 A 
ATOM     12  C   UNL     1       1.556  -2.350   1.749  0.00  0.00    +0.046 A 
BRANCH   7  13
ATOM     13  O   UNL     1       0.129  -0.551   1.130  0.00  0.00    -0.492 OA
BRANCH  13  15
ATOM     14  C   UNL     1      -1.197   1.381   0.540  0.00  0.00    +0.048 C 
ATOM     15  C   UNL     1      -1.152  -0.144   0.645  0.00  0.00    +0.225 C 
ENDBRANCH  13  15
ENDBRANCH   7  13
ENDBRANCH   1  10
BRANCH   5  16
ATOM     16  C   UNL     1       0.871  -5.203   3.996  0.00  0.00    +0.043 C 
BRANCH  16  17
ATOM     17  N   UNL     1       0.799  -5.563   5.415  0.00  0.00    -0.241 N 
ATOM     18  C   UNL     1      -0.343  -5.878   6.060  0.00  0.00    +0.245 C 
ATOM     19  O   UNL     1      -1.462  -5.917   5.595  0.00  0.00    -0.273 OA
ATOM     20  C   UNL     1       0.067  -6.174   7.484  0.00  0.00    +0.115 C 
ATOM     21  C   UNL     1      -0.277  -7.615   7.847  0.00  0.00    +0.035 C 
ATOM     22  C   UNL     1      -1.795  -7.806   7.799  0.00  0.00    +0.003 C 
ATOM     23  C   UNL     1      -2.461  -6.842   8.782  0.00  0.00    +0.000 C 
ATOM     24  C   UNL     1      -2.125  -5.401   8.394  0.00  0.00    +0.006 C 
ATOM     25  C   UNL     1      -0.608  -5.200   8.444  0.00  0.00    +0.018 C 
ATOM     26  C   UNL     1      -0.269  -3.765   8.036  0.00  0.00    +0.010 C 
ATOM     27  N   UNL     1       1.521  -5.976   7.486  0.00  0.00    -0.285 N 
ATOM     28  C   UNL     1       1.859  -5.625   6.230  0.00  0.00    +0.308 C 
ATOM     29  O   UNL     1       2.997  -5.387   5.877  0.00  0.00    -0.252 OA
ATOM     30  H   UNL     1       2.121  -6.080   8.241  0.00  0.00    +0.151 HD
ENDBRANCH  16  17
ENDBRANCH   5  16
TORSDOF 5
