REMARK  Name = ZINC04805982
REMARK  5 active torsions:
REMARK  status: ('A' for Active; 'I' for Inactive)
REMARK    1  A    between atoms: C_4  and  C_7
REMARK    2  A    between atoms: C_9  and  C_27
REMARK    3  A    between atoms: N_13  and  N_14
REMARK    4  A    between atoms: C_15  and  C_16
REMARK    5  A    between atoms: C_25  and  O_26
REMARK                            x       y       z     vdW  Elec       q    Type
REMARK                         _______ _______ _______ _____ _____    ______ ____
ROOT
ATOM      1  C   UNL     1       3.698  -0.688  -0.037  0.00  0.00    +0.077 A 
ATOM      2  C   UNL     1       3.732  -2.083  -0.051  0.00  0.00    +0.057 A 
ATOM      3  C   UNL     1       4.975  -2.716  -0.067  0.00  0.00    +0.077 A 
ATOM      4  N   UNL     1       6.080  -1.972  -0.069  0.00  0.00    -0.213 NA
ATOM      5  C   UNL     1       6.008  -0.650  -0.056  0.00  0.00    +0.236 A 
ATOM      6  N   UNL     1       4.846  -0.014  -0.045  0.00  0.00    -0.213 NA
ATOM      7  N   UNL     1       7.179   0.088  -0.058  0.00  0.00    -0.205 N 
ATOM      8  H   UNL     1       8.037  -0.365  -0.069  0.00  0.00    +0.177 HD
ENDROOT
BRANCH   1  12
ATOM      9  C   UNL     1      -0.017   1.379   0.010  0.00  0.00    +0.000 A 
ATOM     10  C   UNL     1       1.169   2.092   0.002  0.00  0.00    +0.001 A 
ATOM     11  C   UNL     1       2.377   1.426  -0.013  0.00  0.00    +0.010 A 
ATOM     12  C   UNL     1       2.402   0.033  -0.021  0.00  0.00    +0.001 A 
ATOM     13  C   UNL     1       1.205  -0.680  -0.013  0.00  0.00    +0.010 A 
ATOM     14  C   UNL     1       0.002  -0.004   0.002  0.00  0.00    +0.001 A 
ENDBRANCH   1  12
BRANCH   3  15
ATOM     15  C   UNL     1       5.065  -4.196  -0.082  0.00  0.00    +0.001 A 
ATOM     16  C   UNL     1       3.904  -4.968  -0.085  0.00  0.00    +0.010 A 
ATOM     17  C   UNL     1       3.994  -6.345  -0.099  0.00  0.00    +0.001 A 
ATOM     18  C   UNL     1       5.233  -6.960  -0.109  0.00  0.00    +0.000 A 
ATOM     19  C   UNL     1       6.389  -6.199  -0.105  0.00  0.00    +0.001 A 
ATOM     20  C   UNL     1       6.311  -4.821  -0.098  0.00  0.00    +0.010 A 
ENDBRANCH   3  15
BRANCH   7  21
ATOM     21  N   UNL     1       7.126   1.488  -0.044  0.00  0.00    -0.187 NA
ATOM     22  C   UNL     1       8.226   2.180  -0.046  0.00  0.00    +0.142 C 
BRANCH  22  23
ATOM     23  C   UNL     1       8.169   3.649  -0.031  0.00  0.00    +0.044 A 
ATOM     24  C   UNL     1       9.396   4.443  -0.040  0.00  0.00    -0.006 A 
ATOM     25  C   UNL     1      10.659   3.838  -0.062  0.00  0.00    +0.009 A 
ATOM     26  C   UNL     1      11.778   4.615  -0.069  0.00  0.00    +0.001 A 
ATOM     27  C   UNL     1      11.685   6.005  -0.055  0.00  0.00    +0.001 A 
ATOM     28  C   UNL     1      10.473   6.626  -0.033  0.00  0.00    +0.008 A 
ATOM     29  C   UNL     1       9.297   5.856  -0.025  0.00  0.00    -0.017 A 
ATOM     30  C   UNL     1       8.029   6.462  -0.004  0.00  0.00    +0.012 A 
ATOM     31  C   UNL     1       6.898   5.708   0.002  0.00  0.00    +0.046 A 
ATOM     32  C   UNL     1       6.944   4.315  -0.015  0.00  0.00    +0.126 A 
BRANCH  32  33
ATOM     33  O   UNL     1       5.789   3.601  -0.013  0.00  0.00    -0.506 OA
ATOM     34  H   UNL     1       5.461   3.386   0.871  0.00  0.00    +0.292 HD
ENDBRANCH  32  33
ENDBRANCH  22  23
ENDBRANCH   7  21
TORSDOF 5
