REMARK  Name = ZINC05371492
REMARK  6 active torsions:
REMARK  status: ('A' for Active; 'I' for Inactive)
REMARK    1  A    between atoms: C_1  and  C_2
REMARK    2  A    between atoms: C_2  and  C_3
REMARK    3  A    between atoms: C_2  and  C_4
REMARK    4  A    between atoms: C_2  and  N_5
REMARK    5  A    between atoms: C_9  and  C_10
REMARK    6  A    between atoms: C_13  and  C_15
REMARK                            x       y       z     vdW  Elec       q    Type
REMARK                         _______ _______ _______ _____ _____    ______ ____
ROOT
ATOM      1  C   UNL     1      -3.126   0.252   0.374  0.00  0.00    +0.130 A 
ATOM      2  C   UNL     1      -4.441  -0.127   0.579  0.00  0.00    +0.050 A 
ATOM      3  C   UNL     1      -4.426  -1.494   0.866  0.00  0.00    +0.050 A 
ATOM      4  C   UNL     1      -3.122  -1.898   0.836  0.00  0.00    +0.136 A 
ATOM      5  O   UNL     1      -2.348  -0.838   0.538  0.00  0.00    -0.455 OA
ENDROOT
BRANCH   1  10
ATOM      6  N   UNL     1       0.983   1.406  -0.097  0.00  0.00    -0.250 N 
ATOM      7  C   UNL     1      -0.235   0.905   0.020  0.00  0.00    +0.259 C 
ATOM      8  O   UNL     1      -0.410  -0.292   0.164  0.00  0.00    -0.269 OA
ATOM      9  C   UNL     1      -1.339   1.809  -0.034  0.00  0.00    +0.080 C 
ATOM     10  C   UNL     1      -2.677   1.551   0.055  0.00  0.00    +0.066 C 
ATOM     11  S   UNL     1      -0.493   3.369  -0.245  0.00  0.00    -0.061 S 
ATOM     12  C   UNL     1       1.177   2.733  -0.256  0.00  0.00    +0.121 C 
ATOM     13  S   UNL     1       2.649   3.590  -0.425  0.00  0.00    -0.027 S 
BRANCH   6  15
ATOM     14  C   UNL     1       1.659  -0.935   0.116  0.00  0.00    +0.031 C 
ATOM     15  C   UNL     1       2.140   0.508  -0.053  0.00  0.00    +0.035 C 
ATOM     16  C   UNL     1       2.932   0.632  -1.356  0.00  0.00    +0.031 C 
ATOM     17  C   UNL     1       3.036   0.888   1.127  0.00  0.00    +0.031 C 
ENDBRANCH   6  15
ENDBRANCH   1  10
BRANCH   4  18
ATOM     18  C   UNL     1      -2.641  -3.270   1.087  0.00  0.00    +0.019 A 
ATOM     19  C   UNL     1      -1.274  -3.557   1.026  0.00  0.00    +0.013 A 
ATOM     20  C   UNL     1      -0.831  -4.841   1.263  0.00  0.00    +0.022 A 
ATOM     21  C   UNL     1      -1.736  -5.846   1.560  0.00  0.00    +0.059 A 
ATOM     22  C   UNL     1      -3.093  -5.569   1.623  0.00  0.00    +0.060 A 
ATOM     23  C   UNL     1      -3.549  -4.286   1.394  0.00  0.00    +0.033 A 
ATOM     24 CL   UNL     1      -4.219  -6.835   1.997  0.00  0.00    -0.082 Cl
ATOM     25 CL   UNL     1      -1.169  -7.460   1.856  0.00  0.00    -0.082 Cl
ENDBRANCH   4  18
TORSDOF 3
