REMARK  Name = ZINC38705535
REMARK  14 active torsions:
REMARK  status: ('A' for Active; 'I' for Inactive)
REMARK    1  A    between atoms: C_1  and  C_2
REMARK    2  A    between atoms: C_2  and  C_3
REMARK    3  A    between atoms: C_3  and  O_4
REMARK    4  A    between atoms: O_4  and  C_5
REMARK    5  A    between atoms: C_9  and  C_11
REMARK    6  A    between atoms: C_14  and  C_32
REMARK    7  A    between atoms: N_21  and  C_22
REMARK    8  A    between atoms: C_22  and  C_23
REMARK    9  A    between atoms: C_23  and  C_24
REMARK   10  A    between atoms: C_27  and  O_30
REMARK   11  A    between atoms: O_30  and  C_31
REMARK   12  A    between atoms: C_33  and  C_40
REMARK   13  A    between atoms: C_35  and  C_39
REMARK   14  A    between atoms: C_37  and  O_38
REMARK                            x       y       z     vdW  Elec       q    Type
REMARK                         _______ _______ _______ _____ _____    ______ ____
ROOT
ATOM      1  C   UNL     1       2.049  -5.698  -3.750  0.00  0.00    +0.141 C 
ATOM      2  C   UNL     1       0.933  -6.385  -4.488  0.00  0.00    +0.035 A 
ATOM      3  C   UNL     1      -0.442  -6.623  -4.591  0.00  0.00    +0.102 A 
ATOM      4  N   UNL     1      -0.627  -7.424  -5.622  0.00  0.00    -0.173 NA
ATOM      5  N   UNL     1       0.494  -7.715  -6.180  0.00  0.00    -0.272 N 
ATOM      6  H   UNL     1       0.598  -8.288  -6.955  0.00  0.00    +0.189 HD
ATOM      7  C   UNL     1       1.517  -7.096  -5.519  0.00  0.00    +0.126 A 
ATOM      8  C   UNL     1       2.968  -6.887  -5.467  0.00  0.00    +0.265 C 
ATOM      9  O   UNL     1       3.768  -7.378  -6.240  0.00  0.00    -0.268 OA
ATOM     10  N   UNL     1       3.289  -6.076  -4.441  0.00  0.00    -0.285 N 
ENDROOT
BRANCH   3  11
ATOM     11  C   UNL     1      -1.497  -6.076  -3.703  0.00  0.00    +0.047 A 
ATOM     12  C   UNL     1      -2.640  -5.498  -4.249  0.00  0.00    -0.037 A 
ATOM     13  C   UNL     1      -3.619  -4.990  -3.419  0.00  0.00    +0.007 A 
ATOM     14  C   UNL     1      -3.469  -5.053  -2.045  0.00  0.00    -0.047 A 
ATOM     15  C   UNL     1      -2.338  -5.624  -1.493  0.00  0.00    +0.049 A 
ATOM     16  C   UNL     1      -1.351  -6.143  -2.315  0.00  0.00    +0.127 A 
ATOM     17  C   UNL     1      -4.543  -4.495  -1.147  0.00  0.00    +0.044 C 
ATOM     18  C   UNL     1      -2.808  -5.426  -5.745  0.00  0.00    +0.044 C 
BRANCH  16  19
ATOM     19  O   UNL     1      -0.242  -6.711  -1.773  0.00  0.00    -0.506 OA
ATOM     20  H   UNL     1       0.458  -6.079  -1.557  0.00  0.00    +0.292 HD
ENDBRANCH  16  19
ENDBRANCH   3  11
BRANCH   1  25
ATOM     21  C   UNL     1       1.325  -2.138  -2.710  0.00  0.00    +0.121 A 
ATOM     22  C   UNL     1       1.519  -1.458  -3.904  0.00  0.00    +0.045 A 
ATOM     23  C   UNL     1       1.884  -2.152  -5.042  0.00  0.00    +0.004 A 
ATOM     24  C   UNL     1       2.055  -3.524  -4.990  0.00  0.00    +0.006 A 
ATOM     25  C   UNL     1       1.862  -4.203  -3.802  0.00  0.00    -0.019 A 
ATOM     26  C   UNL     1       1.503  -3.512  -2.661  0.00  0.00    +0.051 A 
BRANCH  21  27
ATOM     27  O   UNL     1       0.967  -1.457  -1.590  0.00  0.00    -0.492 OA
BRANCH  27  28
ATOM     28  C   UNL     1       0.802  -0.043  -1.716  0.00  0.00    +0.229 C 
BRANCH  28  30
ATOM     29  C   UNL     1       0.224   2.060  -0.495  0.00  0.00    +0.007 C 
ATOM     30  C   UNL     1       0.401   0.546  -0.361  0.00  0.00    +0.038 C 
ENDBRANCH  28  30
ENDBRANCH  27  28
ENDBRANCH  21  27
ENDBRANCH   1  25
BRANCH  10  31
ATOM     31  C   UNL     1       4.641  -5.644  -4.077  0.00  0.00    +0.114 C 
BRANCH  31  32
ATOM     32  C   UNL     1       5.244  -6.639  -3.084  0.00  0.00    +0.054 C 
BRANCH  32  33
ATOM     33  C   UNL     1       6.634  -6.195  -2.709  0.00  0.00    -0.046 A 
ATOM     34  C   UNL     1       7.719  -6.623  -3.451  0.00  0.00    +0.007 A 
ATOM     35  C   UNL     1       8.995  -6.217  -3.110  0.00  0.00    +0.046 A 
ATOM     36  C   UNL     1       9.187  -5.379  -2.021  0.00  0.00    +0.120 A 
ATOM     37  C   UNL     1       8.096  -4.950  -1.278  0.00  0.00    +0.046 A 
ATOM     38  C   UNL     1       6.822  -5.355  -1.627  0.00  0.00    +0.007 A 
BRANCH  36  39
ATOM     39  O   UNL     1      10.441  -4.979  -1.682  0.00  0.00    -0.495 OA
ATOM     40  C   UNL     1      10.563  -4.116  -0.550  0.00  0.00    +0.277 C 
ENDBRANCH  36  39
ENDBRANCH  32  33
ENDBRANCH  31  32
ENDBRANCH  10  31
TORSDOF 10
