REMARK  Name = ZINC38688541
REMARK  7 active torsions:
REMARK  status: ('A' for Active; 'I' for Inactive)
REMARK    1  A    between atoms: C_1  and  C_2
REMARK    2  A    between atoms: C_10  and  C_11
REMARK    3  A    between atoms: C_11  and  O_13
REMARK    4  A    between atoms: O_13  and  C_14
REMARK    5  A    between atoms: C_21  and  N_37
REMARK    6  A    between atoms: C_22  and  C_35
REMARK    7  A    between atoms: C_23  and  C_25
REMARK                            x       y       z     vdW  Elec       q    Type
REMARK                         _______ _______ _______ _____ _____    ______ ____
ROOT
ATOM      1  C   UNL     1       0.026  -0.743   4.721  0.00  0.00    +0.136 A 
ATOM      2  C   UNL     1      -0.069   0.634   4.874  0.00  0.00    +0.047 A 
ATOM      3  C   UNL     1      -0.099   1.187   6.138  0.00  0.00    +0.012 A 
ATOM      4  C   UNL     1      -0.035   0.374   7.257  0.00  0.00    +0.008 A 
ATOM      5  C   UNL     1       0.059  -1.001   7.110  0.00  0.00    +0.138 A 
ATOM      6  C   UNL     1       0.085  -1.559   5.838  0.00  0.00    +0.093 A 
ATOM      7  O   UNL     1       0.123  -1.813   8.193  0.00  0.00    -0.441 OA
ATOM      8  C   UNL     1       0.479  -1.312   9.387  0.00  0.00    +0.199 C 
ATOM      9  C   UNL     1       0.411   0.014   9.657  0.00  0.00    +0.098 C 
ATOM     10  C   UNL     1      -0.070   0.997   8.627  0.00  0.00    +0.098 C 
ENDROOT
BRANCH  10  11
ATOM     11  C   UNL     1      -1.482   1.409   8.952  0.00  0.00    -0.027 A 
ATOM     12  C   UNL     1      -2.456   0.468   9.090  0.00  0.00    +0.005 A 
ATOM     13  C   UNL     1      -3.767   0.830   9.390  0.00  0.00    +0.001 A 
ATOM     14  C   UNL     1      -4.113   2.136   9.555  0.00  0.00    +0.008 A 
ATOM     15  C   UNL     1      -3.136   3.136   9.420  0.00  0.00    -0.018 A 
ATOM     16  C   UNL     1      -1.800   2.768   9.121  0.00  0.00    -0.014 A 
ATOM     17  C   UNL     1      -0.821   3.768   8.992  0.00  0.00    +0.009 A 
ATOM     18  C   UNL     1      -1.166   5.073   9.162  0.00  0.00    +0.001 A 
ATOM     19  C   UNL     1      -2.478   5.436   9.463  0.00  0.00    +0.001 A 
ATOM     20  C   UNL     1      -3.455   4.496   9.582  0.00  0.00    +0.008 A 
ENDBRANCH  10  11
BRANCH   8  21
ATOM     21  N   UNL     1       0.925  -2.168  10.363  0.00  0.00    -0.328 N 
ATOM     22  H   UNL     1       0.979  -3.120  10.186  0.00  0.00    +0.145 HD
ATOM     23  H   UNL     1       1.185  -1.821  11.231  0.00  0.00    +0.145 HD
ENDBRANCH   8  21
BRANCH   9  24
ATOM     24  C   UNL     1       0.806   0.488  10.949  0.00  0.00    +0.101 C 
ATOM     25  N   UNL     1       1.119   0.864  11.974  0.00  0.00    -0.191 NA
ENDBRANCH   9  24
BRANCH   1  26
ATOM     26  O   UNL     1       0.055  -1.289   3.476  0.00  0.00    -0.420 OA
BRANCH  26  27
ATOM     27  C   UNL     1      -1.073  -1.864   3.011  0.00  0.00    +0.380 C 
ATOM     28  O   UNL     1      -2.047  -1.964   3.732  0.00  0.00    -0.241 OA
BRANCH  27  38
ATOM     29  C   UNL     1      -3.541  -3.228   1.699  0.00  0.00    +0.048 C 
ATOM     30  C   UNL     1      -2.201  -2.967   1.059  0.00  0.00    +0.010 A 
ATOM     31  C   UNL     1      -1.800  -3.299  -0.307  0.00  0.00    +0.024 A 
ATOM     32  C   UNL     1      -2.440  -3.908  -1.389  0.00  0.00    +0.012 A 
ATOM     33  C   UNL     1      -1.767  -4.075  -2.567  0.00  0.00    +0.001 A 
ATOM     34  C   UNL     1      -0.453  -3.644  -2.694  0.00  0.00    +0.004 A 
ATOM     35  C   UNL     1       0.196  -3.042  -1.638  0.00  0.00    +0.047 A 
ATOM     36  C   UNL     1      -0.468  -2.860  -0.430  0.00  0.00    +0.136 A 
ATOM     37  O   UNL     1      -0.106  -2.318   0.749  0.00  0.00    -0.448 OA
ATOM     38  C   UNL     1      -1.123  -2.371   1.634  0.00  0.00    +0.216 A 
ENDBRANCH  27  38
ENDBRANCH  26  27
ENDBRANCH   1  26
TORSDOF 6
