REMARK  Name = ZINC11691866
REMARK  8 active torsions:
REMARK  status: ('A' for Active; 'I' for Inactive)
REMARK    1  A    between atoms: C_1  and  C_2
REMARK    2  A    between atoms: C_3  and  C_32
REMARK    3  A    between atoms: C_9  and  C_31
REMARK    4  A    between atoms: C_10  and  C_16
REMARK    5  A    between atoms: C_16  and  C_17
REMARK    6  A    between atoms: C_17  and  C_18
REMARK    7  A    between atoms: N_20  and  C_21
REMARK    8  A    between atoms: C_21  and  C_22
REMARK                            x       y       z     vdW  Elec       q    Type
REMARK                         _______ _______ _______ _____ _____    ______ ____
ROOT
ATOM      1  C   UNL     1      14.874   0.829  -4.790  0.00  0.00    +0.048 C 
ATOM      2  C   UNL     1      14.712  -0.650  -4.553  0.00  0.00    -0.002 A 
ATOM      3  C   UNL     1      15.330  -1.641  -5.207  0.00  0.00    +0.106 A 
ATOM      4  O   UNL     1      14.938  -2.834  -4.724  0.00  0.00    -0.460 OA
ATOM      5  C   UNL     1      14.043  -2.681  -3.728  0.00  0.00    +0.139 A 
ATOM      6  C   UNL     1      13.844  -1.295  -3.558  0.00  0.00    +0.024 A 
ATOM      7  C   UNL     1      12.966  -0.824  -2.593  0.00  0.00    +0.023 A 
ATOM      8  C   UNL     1      12.279  -1.735  -1.791  0.00  0.00    +0.022 A 
ATOM      9  C   UNL     1      11.342  -1.272  -0.762  0.00  0.00    -0.030 A 
ATOM     10  C   UNL     1      10.701  -2.203  -0.012  0.00  0.00    +0.041 A 
ATOM     11  C   UNL     1      10.951  -3.574  -0.231  0.00  0.00    +0.341 A 
ATOM     12  O   UNL     1      10.373  -4.399   0.453  0.00  0.00    -0.245 OA
ATOM     13  O   UNL     1      11.805  -3.994  -1.178  0.00  0.00    -0.422 OA
ATOM     14  C   UNL     1      12.477  -3.121  -1.961  0.00  0.00    +0.143 A 
ATOM     15  C   UNL     1      13.356  -3.581  -2.926  0.00  0.00    +0.093 A 
ATOM     16  C   UNL     1      11.098   0.200  -0.544  0.00  0.00    +0.045 C 
ATOM     17  C   UNL     1      16.321  -1.448  -6.326  0.00  0.00    +0.086 C 
ENDROOT
BRANCH  10  18
ATOM     18  C   UNL     1       9.729  -1.774   1.058  0.00  0.00    +0.052 C 
BRANCH  18  19
ATOM     19  C   UNL     1       8.326  -1.665   0.457  0.00  0.00    +0.100 C 
BRANCH  19  20
ATOM     20  C   UNL     1       7.355  -1.236   1.526  0.00  0.00    +0.214 C 
ATOM     21  O   UNL     1       7.746  -1.037   2.657  0.00  0.00    -0.276 OA
ATOM     22  N   UNL     1       6.051  -1.073   1.226  0.00  0.00    -0.311 N 
ATOM     23  H   UNL     1       5.738  -1.231   0.322  0.00  0.00    +0.149 HD
BRANCH  22  24
ATOM     24  C   UNL     1       5.107  -0.655   2.265  0.00  0.00    +0.139 C 
BRANCH  24  25
ATOM     25  C   UNL     1       3.725  -0.548   1.674  0.00  0.00    -0.027 A 
ATOM     26  C   UNL     1       2.885  -1.646   1.677  0.00  0.00    +0.009 A 
ATOM     27  C   UNL     1       1.617  -1.553   1.135  0.00  0.00    +0.050 A 
ATOM     28  C   UNL     1       1.183  -0.356   0.589  0.00  0.00    +0.166 A 
ATOM     29  C   UNL     1       2.028   0.751   0.586  0.00  0.00    +0.167 A 
ATOM     30  C   UNL     1       3.298   0.650   1.131  0.00  0.00    +0.054 A 
ATOM     31  O   UNL     1       1.376   1.797  -0.001  0.00  0.00    -0.453 OA
ATOM     32  C   UNL     1      -0.018   1.436   0.010  0.00  0.00    +0.466 C 
ATOM     33  O   UNL     1       0.002  -0.004   0.002  0.00  0.00    -0.453 OA
ENDBRANCH  24  25
ENDBRANCH  22  24
ENDBRANCH  19  20
ENDBRANCH  18  19
ENDBRANCH  10  18
TORSDOF 5
