REMARK  Name = ZINC05614812
REMARK  7 active torsions:
REMARK  status: ('A' for Active; 'I' for Inactive)
REMARK    1  A    between atoms: C_1  and  C_2
REMARK    2  A    between atoms: C_8  and  C_28
REMARK    3  A    between atoms: C_8  and  C_29
REMARK    4  A    between atoms: N_10  and  C_11
REMARK    5  A    between atoms: C_11  and  C_12
REMARK    6  A    between atoms: C_12  and  C_13
REMARK    7  A    between atoms: C_20  and  N_25
REMARK                            x       y       z     vdW  Elec       q    Type
REMARK                         _______ _______ _______ _____ _____    ______ ____
ROOT
ATOM      1  C   UNL     1       3.158  -1.196  -1.171  0.00  0.00    +0.044 C 
ATOM      2  C   UNL     1       1.954  -0.334  -0.894  0.00  0.00    -0.050 A 
ATOM      3  C   UNL     1       0.733  -0.934  -0.660  0.00  0.00    +0.005 A 
ATOM      4  C   UNL     1      -0.409  -0.194  -0.401  0.00  0.00    +0.024 A 
ATOM      5  C   UNL     1      -0.281   1.197  -0.386  0.00  0.00    +0.037 A 
ATOM      6  C   UNL     1       0.963   1.795  -0.622  0.00  0.00    -0.015 A 
ATOM      7  C   UNL     1       2.096   1.049  -0.879  0.00  0.00    +0.009 A 
ATOM      8  C   UNL     1       0.790   3.287  -0.531  0.00  0.00    +0.053 C 
ATOM      9  C   UNL     1      -0.587   3.429   0.153  0.00  0.00    +0.207 C 
ATOM     10  N   UNL     1      -1.262   2.154  -0.164  0.00  0.00    -0.288 N 
ATOM     11  C   UNL     1      -1.342   4.580  -0.444  0.00  0.00    +0.042 C 
ATOM     12  C   UNL     1      -1.260   5.788   0.113  0.00  0.00    +0.013 C 
ATOM     13  C   UNL     1      -0.421   5.940   1.322  0.00  0.00    +0.019 A 
ATOM     14  C   UNL     1      -0.026   7.194   1.774  0.00  0.00    +0.044 A 
ATOM     15  C   UNL     1       0.760   7.295   2.905  0.00  0.00    +0.127 A 
ATOM     16  C   UNL     1       1.153   6.156   3.587  0.00  0.00    +0.036 A 
ATOM     17  C   UNL     1       0.763   4.904   3.146  0.00  0.00    +0.048 A 
ATOM     18  C   UNL     1      -0.025   4.788   2.015  0.00  0.00    +0.131 A 
ATOM     19  O   UNL     1      -0.425   3.572   1.558  0.00  0.00    -0.463 OA
ATOM     20  C   UNL     1       1.890   3.909   0.332  0.00  0.00    +0.022 C 
ATOM     21  C   UNL     1       0.775   3.917  -1.925  0.00  0.00    +0.022 C 
ENDROOT
BRANCH  15  22
ATOM     22  N   UNL     1       1.185   8.627   3.391  0.00  0.00    +0.056 N 
ATOM     23  O   UNL     1       1.877   8.719   4.389  0.00  0.00    -0.126 OA
ATOM     24  O   UNL     1       0.841   9.631   2.794  0.00  0.00    -0.126 OA
ENDBRANCH  15  22
BRANCH  10  25
ATOM     25  C   UNL     1      -2.158   1.747   0.927  0.00  0.00    +0.118 C 
BRANCH  25  26
ATOM     26  C   UNL     1      -3.168   2.862   1.201  0.00  0.00    +0.114 C 
BRANCH  26  27
ATOM     27  C   UNL     1      -4.167   2.395   2.228  0.00  0.00    +0.212 C 
ATOM     28  O   UNL     1      -4.079   1.279   2.695  0.00  0.00    -0.276 OA
ATOM     29  N   UNL     1      -5.158   3.216   2.627  0.00  0.00    -0.329 N 
ATOM     30  H   UNL     1      -5.228   4.109   2.254  0.00  0.00    +0.145 HD
ATOM     31  H   UNL     1      -5.801   2.915   3.288  0.00  0.00    +0.145 HD
ENDBRANCH  26  27
ENDBRANCH  25  26
ENDBRANCH  10  25
TORSDOF 4
