REMARK  Name = ZINC64126880
REMARK  6 active torsions:
REMARK  status: ('A' for Active; 'I' for Inactive)
REMARK    1  A    between atoms: C_1  and  C_2
REMARK    2  A    between atoms: C_4  and  C_22
REMARK    3  A    between atoms: C_5  and  N_9
REMARK    4  A    between atoms: C_6  and  C_8
REMARK    5  A    between atoms: C_10  and  C_12
REMARK    6  A    between atoms: C_14  and  N_19
REMARK                            x       y       z     vdW  Elec       q    Type
REMARK                         _______ _______ _______ _____ _____    ______ ____
ROOT
ATOM      1  N   UNL     1       0.240  -4.137   0.374  0.00  0.00    -0.281 N 
ATOM      2  C   UNL     1       0.789  -4.887  -0.602  0.00  0.00    +0.249 C 
ATOM      3  O   UNL     1       1.117  -4.372  -1.653  0.00  0.00    -0.270 OA
ATOM      4  H   UNL     1      -0.081  -4.558   1.187  0.00  0.00    +0.155 HD
ENDROOT
BRANCH   1   9
ATOM      5  C   UNL     1      -0.197   1.482  -0.272  0.00  0.00    +0.044 C 
ATOM      6  C   UNL     1      -0.081  -0.011  -0.101  0.00  0.00    -0.050 A 
ATOM      7  C   UNL     1      -0.674  -0.859  -1.017  0.00  0.00    +0.008 A 
ATOM      8  C   UNL     1      -0.570  -2.228  -0.863  0.00  0.00    -0.029 A 
ATOM      9  C   UNL     1       0.133  -2.752   0.214  0.00  0.00    +0.040 A 
ATOM     10  C   UNL     1       0.728  -1.897   1.133  0.00  0.00    -0.029 A 
ATOM     11  C   UNL     1       0.625  -0.530   0.970  0.00  0.00    +0.008 A 
ATOM     12  C   UNL     1       1.492  -2.462   2.304  0.00  0.00    +0.045 C 
ATOM     13  C   UNL     1      -1.218  -3.151  -1.862  0.00  0.00    +0.045 C 
ENDBRANCH   1   9
BRANCH   2  14
ATOM     14  C   UNL     1       0.994  -6.336  -0.394  0.00  0.00    +0.053 A 
ATOM     15  C   UNL     1       0.614  -6.932   0.811  0.00  0.00    +0.047 A 
ATOM     16  C   UNL     1       0.807  -8.284   0.998  0.00  0.00    +0.127 A 
ATOM     17  C   UNL     1       1.377  -9.051  -0.003  0.00  0.00    +0.034 A 
ATOM     18  C   UNL     1       1.757  -8.468  -1.198  0.00  0.00    +0.018 A 
ATOM     19  C   UNL     1       1.563  -7.116  -1.403  0.00  0.00    +0.030 A 
ATOM     20 BR   UNL     1       2.075  -6.322  -3.041  0.00  0.00    -0.050 Br
BRANCH  16  21
ATOM     21  N   UNL     1       0.405  -8.917   2.275  0.00  0.00    +0.056 N 
ATOM     22  O   UNL     1      -0.092  -8.248   3.150  0.00  0.00    -0.126 OA
ATOM     23  O   UNL     1       0.574 -10.103   2.441  0.00  0.00    -0.126 OA
ENDBRANCH  16  21
ENDBRANCH   2  14
TORSDOF 3
