REMARK  Name = ZINC02472404
REMARK  8 active torsions:
REMARK  status: ('A' for Active; 'I' for Inactive)
REMARK    1  A    between atoms: C_1  and  C_2
REMARK    2  A    between atoms: C_2  and  O_3
REMARK    3  A    between atoms: O_3  and  C_4
REMARK    4  A    between atoms: C_7  and  C_10
REMARK    5  A    between atoms: C_13  and  C_22
REMARK    6  A    between atoms: C_25  and  C_28
REMARK    7  A    between atoms: C_28  and  C_29
REMARK    8  A    between atoms: C_28  and  C_30
REMARK                            x       y       z     vdW  Elec       q    Type
REMARK                         _______ _______ _______ _____ _____    ______ ____
ROOT
ATOM      1  C   UNL     1      -0.018   1.503   0.010  0.00  0.00    +0.106 C 
ATOM      2  C   UNL     1      -0.740   2.014  -1.242  0.00  0.00    +0.058 C 
ATOM      3  C   UNL     1      -0.048   1.470  -2.497  0.00  0.00    +0.143 C 
ATOM      4  N   UNL     1       1.391   1.704  -2.382  0.00  0.00    -0.224 N 
ATOM      5  C   UNL     1       2.032   1.959  -1.216  0.00  0.00    +0.216 A 
ATOM      6  N   UNL     1       3.302   2.121  -1.477  0.00  0.00    -0.180 NA
ATOM      7  C   UNL     1       3.510   1.975  -2.794  0.00  0.00    +0.233 A 
ATOM      8  N   UNL     1       2.364   1.718  -3.383  0.00  0.00    -0.132 NA
ATOM      9  N   UNL     1       4.745   2.080  -3.435  0.00  0.00    -0.326 N 
ATOM     10  N   UNL     1       1.365   2.017  -0.000  0.00  0.00    -0.307 N 
ATOM     11  H   UNL     1       4.805   1.959  -4.396  0.00  0.00    +0.145 HD
ATOM     12  H   UNL     1       5.545   2.273  -2.920  0.00  0.00    +0.145 HD
ATOM     13  H   UNL     1       1.784   2.376   0.798  0.00  0.00    +0.149 HD
ENDROOT
BRANCH   1  17
ATOM     14  C   UNL     1       0.040  -2.770  -0.013  0.00  0.00    +0.121 A 
ATOM     15  C   UNL     1      -0.882  -2.092   0.771  0.00  0.00    +0.046 A 
ATOM     16  C   UNL     1      -0.899  -0.711   0.777  0.00  0.00    +0.009 A 
ATOM     17  C   UNL     1       0.002  -0.004   0.002  0.00  0.00    -0.027 A 
ATOM     18  C   UNL     1       0.918  -0.677  -0.785  0.00  0.00    +0.009 A 
ATOM     19  C   UNL     1       0.943  -2.059  -0.790  0.00  0.00    +0.046 A 
BRANCH  14  20
ATOM     20  O   UNL     1       0.058  -4.129  -0.020  0.00  0.00    -0.492 OA
BRANCH  20  22
ATOM     21  C   UNL     1       0.903  -6.279  -0.729  0.00  0.00    +0.048 C 
ATOM     22  C   UNL     1       1.034  -4.760  -0.852  0.00  0.00    +0.225 C 
ENDBRANCH  20  22
ENDBRANCH  14  20
ENDBRANCH   1  17
BRANCH   3  23
ATOM     23  C   UNL     1      -0.579   2.177  -3.717  0.00  0.00    -0.023 A 
ATOM     24  C   UNL     1      -0.460   3.550  -3.826  0.00  0.00    +0.006 A 
ATOM     25  C   UNL     1      -0.943   4.199  -4.948  0.00  0.00    +0.004 A 
ATOM     26  C   UNL     1      -1.553   3.475  -5.955  0.00  0.00    -0.045 A 
ATOM     27  C   UNL     1      -1.676   2.103  -5.844  0.00  0.00    +0.004 A 
ATOM     28  C   UNL     1      -1.189   1.454  -4.725  0.00  0.00    +0.006 A 
BRANCH  26  29
ATOM     29  C   UNL     1      -2.085   4.183  -7.175  0.00  0.00    +0.013 C 
ATOM     30  C   UNL     1      -3.148   5.198  -6.752  0.00  0.00    +0.012 C 
ATOM     31  C   UNL     1      -0.940   4.909  -7.883  0.00  0.00    +0.012 C 
ENDBRANCH  26  29
ENDBRANCH   3  23
TORSDOF 5
