REMARK  Name = ZINC18968066
REMARK  7 active torsions:
REMARK  status: ('A' for Active; 'I' for Inactive)
REMARK    1  A    between atoms: C_1  and  C_2
REMARK    2  A    between atoms: C_2  and  C_4
REMARK    3  A    between atoms: C_2  and  O_19
REMARK    4  A    between atoms: N_6  and  C_7
REMARK    5  A    between atoms: C_12  and  C_13
REMARK    6  A    between atoms: O_19  and  C_20
REMARK    7  A    between atoms: C_20  and  C_22
REMARK                            x       y       z     vdW  Elec       q    Type
REMARK                         _______ _______ _______ _____ _____    ______ ____
ROOT
ATOM      1  O   UNL     1       5.304  -2.950  -4.449  0.00  0.00    -0.449 OA
ENDROOT
BRANCH   1   3
ATOM      2  C   UNL     1       3.665  -1.153  -4.587  0.00  0.00    +0.062 C 
ATOM      3  C   UNL     1       4.515  -2.022  -3.658  0.00  0.00    +0.259 C 
BRANCH   3   4
ATOM      4  C   UNL     1       3.615  -2.795  -2.728  0.00  0.00    +0.258 C 
ATOM      5  O   UNL     1       3.635  -4.007  -2.733  0.00  0.00    -0.271 OA
ATOM      6  N   UNL     1       2.786  -2.138  -1.893  0.00  0.00    -0.282 N 
ATOM      7  H   UNL     1       2.722  -1.171  -1.934  0.00  0.00    +0.155 HD
BRANCH   6   8
ATOM      8  C   UNL     1       2.020  -2.850  -0.966  0.00  0.00    +0.041 A 
ATOM      9  C   UNL     1       1.521  -4.103  -1.291  0.00  0.00    +0.024 A 
ATOM     10  C   UNL     1       0.764  -4.805  -0.373  0.00  0.00    +0.002 A 
ATOM     11  C   UNL     1       0.500  -4.265   0.874  0.00  0.00    +0.001 A 
ATOM     12  C   UNL     1       0.994  -3.022   1.212  0.00  0.00    +0.010 A 
ATOM     13  C   UNL     1       1.753  -2.302   0.294  0.00  0.00    +0.003 A 
BRANCH  13  14
ATOM     14  C   UNL     1       2.282  -0.963   0.651  0.00  0.00    -0.016 A 
ATOM     15  C   UNL     1       1.434   0.005   1.185  0.00  0.00    +0.008 A 
ATOM     16  C   UNL     1       1.932   1.248   1.517  0.00  0.00    +0.001 A 
ATOM     17  C   UNL     1       3.270   1.535   1.320  0.00  0.00    +0.000 A 
ATOM     18  C   UNL     1       4.117   0.579   0.790  0.00  0.00    +0.001 A 
ATOM     19  C   UNL     1       3.631  -0.669   0.455  0.00  0.00    +0.008 A 
ENDBRANCH  13  14
ENDBRANCH   6   8
ENDBRANCH   3   4
ENDBRANCH   1   3
BRANCH   1  20
ATOM     20  C   UNL     1       6.524  -2.535  -4.841  0.00  0.00    +0.340 C 
ATOM     21  O   UNL     1       6.918  -1.429  -4.531  0.00  0.00    -0.245 OA
BRANCH  20  22
ATOM     22  C   UNL     1       7.384  -3.427  -5.651  0.00  0.00    +0.061 A 
ATOM     23  C   UNL     1       6.922  -4.697  -6.003  0.00  0.00    +0.016 A 
ATOM     24  C   UNL     1       7.689  -5.532  -6.775  0.00  0.00    +0.016 A 
ATOM     25  C   UNL     1       8.958  -5.121  -7.180  0.00  0.00    +0.065 A 
ATOM     26  C   UNL     1       9.450  -3.850  -6.810  0.00  0.00    +0.079 A 
ATOM     27  C   UNL     1       8.644  -3.002  -6.054  0.00  0.00    +0.043 A 
ATOM     28  N   UNL     1      10.706  -3.522  -7.172  0.00  0.00    -0.233 NA
ATOM     29  C   UNL     1      11.512  -4.351  -7.793  0.00  0.00    +0.113 A 
ATOM     30  N   UNL     1      11.102  -5.551  -8.247  0.00  0.00    -0.296 N 
ATOM     31  C   UNL     1       9.827  -5.967  -8.014  0.00  0.00    +0.262 A 
ATOM     32  O   UNL     1       9.432  -7.012  -8.484  0.00  0.00    -0.267 OA
ATOM     33  C   UNL     1      11.961  -6.460  -9.019  0.00  0.00    +0.126 C 
ATOM     34  C   UNL     1      12.923  -7.173  -8.065  0.00  0.00    +0.022 C 
ATOM     35  C   UNL     1      14.177  -6.336  -7.840  0.00  0.00    +0.002 C 
ATOM     36  C   UNL     1      14.583  -5.419  -8.986  0.00  0.00    +0.000 C 
ATOM     37  C   UNL     1      13.605  -4.261  -9.222  0.00  0.00    +0.008 C 
ATOM     38  C   UNL     1      12.938  -3.888  -7.899  0.00  0.00    +0.074 C 
ENDBRANCH  20  22
ENDBRANCH   1  20
TORSDOF 6
