REMARK  Name = ZINC60622130
REMARK  7 active torsions:
REMARK  status: ('A' for Active; 'I' for Inactive)
REMARK    1  A    between atoms: C_1  and  C_2
REMARK    2  A    between atoms: C_2  and  C_3
REMARK    3  A    between atoms: C_2  and  N_20
REMARK    4  A    between atoms: N_5  and  N_6
REMARK    5  A    between atoms: C_7  and  C_9
REMARK    6  A    between atoms: C_18  and  O_19
REMARK    7  A    between atoms: C_21  and  C_23
REMARK                            x       y       z     vdW  Elec       q    Type
REMARK                         _______ _______ _______ _____ _____    ______ ____
ROOT
ATOM      1  C   UNL     1       0.707  -0.490  -1.238  0.00  0.00    +0.249 C 
ATOM      2  O   UNL     1       1.704  -1.174  -1.140  0.00  0.00    -0.272 OA
ATOM      3  N   UNL     1       0.231  -0.164  -2.456  0.00  0.00    -0.233 N 
ATOM      4  H   UNL     1      -0.566   0.383  -2.534  0.00  0.00    +0.173 HD
ENDROOT
BRANCH   3   5
ATOM      5  N   UNL     1       0.887  -0.616  -3.608  0.00  0.00    -0.230 N 
ATOM      6  C   UNL     1       0.410  -0.290  -4.826  0.00  0.00    +0.264 C 
ATOM      7  O   UNL     1      -0.589   0.396  -4.925  0.00  0.00    -0.269 OA
ATOM      8  H   UNL     1       1.684  -1.163  -3.530  0.00  0.00    +0.173 HD
BRANCH   6   9
ATOM      9  C   UNL     1       1.101  -0.766  -6.040  0.00  0.00    +0.080 A 
ATOM     10  C   UNL     1       2.236  -1.552  -5.923  0.00  0.00    +0.025 A 
ATOM     11  C   UNL     1       2.888  -2.002  -7.080  0.00  0.00    -0.017 A 
ATOM     12  C   UNL     1       4.042  -2.802  -6.999  0.00  0.00    +0.008 A 
ATOM     13  C   UNL     1       4.652  -3.223  -8.139  0.00  0.00    +0.001 A 
ATOM     14  C   UNL     1       4.151  -2.872  -9.392  0.00  0.00    +0.001 A 
ATOM     15  C   UNL     1       3.037  -2.100  -9.511  0.00  0.00    +0.008 A 
ATOM     16  C   UNL     1       2.377  -1.645  -8.356  0.00  0.00    -0.014 A 
ATOM     17  C   UNL     1       1.225  -0.847  -8.447  0.00  0.00    +0.054 A 
ATOM     18  C   UNL     1       0.598  -0.422  -7.313  0.00  0.00    +0.130 A 
BRANCH  18  19
ATOM     19  O   UNL     1      -0.518   0.344  -7.410  0.00  0.00    -0.506 OA
ATOM     20  H   UNL     1      -0.341   1.294  -7.439  0.00  0.00    +0.292 HD
ENDBRANCH  18  19
ENDBRANCH   6   9
ENDBRANCH   3   5
BRANCH   1  22
ATOM     21  C   UNL     1      -0.019   1.526   0.010  0.00  0.00    +0.038 C 
ATOM     22  C   UNL     1       0.002  -0.004   0.002  0.00  0.00    +0.158 C 
BRANCH  22  23
ATOM     23  N   UNL     1       0.711  -0.489   1.189  0.00  0.00    -0.300 N 
ATOM     24  C   UNL     1       0.051  -0.633   2.355  0.00  0.00    +0.245 C 
ATOM     25  O   UNL     1      -1.131  -0.361   2.423  0.00  0.00    -0.270 OA
ATOM     26  H   UNL     1       1.654  -0.707   1.135  0.00  0.00    +0.150 HD
BRANCH  24  27
ATOM     27  C   UNL     1       0.766  -1.123   3.553  0.00  0.00    +0.037 A 
ATOM     28  C   UNL     1       2.126  -1.432   3.481  0.00  0.00    +0.013 A 
ATOM     29  C   UNL     1       2.787  -1.888   4.602  0.00  0.00    +0.001 A 
ATOM     30  C   UNL     1       2.106  -2.040   5.797  0.00  0.00    +0.000 A 
ATOM     31  C   UNL     1       0.758  -1.736   5.875  0.00  0.00    +0.001 A 
ATOM     32  C   UNL     1       0.086  -1.274   4.763  0.00  0.00    +0.013 A 
ENDBRANCH  24  27
ENDBRANCH  22  23
ENDBRANCH   1  22
TORSDOF 6
