REMARK  Name = ZINC01744823
REMARK  5 active torsions:
REMARK  status: ('A' for Active; 'I' for Inactive)
REMARK    1  A    between atoms: C_5  and  C_7
REMARK    2  A    between atoms: N_11  and  C_15
REMARK    3  A    between atoms: C_15  and  C_16
REMARK    4  A    between atoms: N_18  and  C_19
REMARK    5  A    between atoms: C_23  and  O_25
REMARK                            x       y       z     vdW  Elec       q    Type
REMARK                         _______ _______ _______ _____ _____    ______ ____
ROOT
ATOM      1  C   UNL     1      -5.598   8.983   1.669  0.00  0.00    +0.031 C 
ATOM      2  C   UNL     1      -4.734   8.501   0.741  0.00  0.00    +0.077 C 
ATOM      3  C   UNL     1      -3.379   7.940   0.916  0.00  0.00    +0.259 C 
ATOM      4  O   UNL     1      -2.862   7.849   2.014  0.00  0.00    -0.269 OA
ATOM      5  N   UNL     1      -2.756   7.542  -0.180  0.00  0.00    -0.246 N 
ATOM      6  C   UNL     1      -3.330   7.650  -1.395  0.00  0.00    +0.121 C 
ATOM      7  S   UNL     1      -2.688   7.201  -2.918  0.00  0.00    -0.027 S 
ATOM      8  S   UNL     1      -4.923   8.370  -1.032  0.00  0.00    -0.061 S 
ENDROOT
BRANCH   1  13
ATOM      9  C   UNL     1      -8.825   9.098  -0.235  0.00  0.00    +0.001 A 
ATOM     10  C   UNL     1      -9.581   9.937   0.566  0.00  0.00    +0.003 A 
ATOM     11  C   UNL     1      -9.045  10.466   1.726  0.00  0.00    +0.039 A 
ATOM     12  C   UNL     1      -7.749  10.161   2.094  0.00  0.00    +0.131 A 
ATOM     13  C   UNL     1      -6.978   9.313   1.288  0.00  0.00    +0.011 A 
ATOM     14  C   UNL     1      -7.529   8.787   0.113  0.00  0.00    +0.011 A 
ATOM     15  F   UNL     1      -7.226  10.679   3.227  0.00  0.00    -0.205 F 
ENDBRANCH   1  13
BRANCH   5  16
ATOM     16  C   UNL     1      -1.409   6.977  -0.073  0.00  0.00    +0.211 C 
BRANCH  16  17
ATOM     17  C   UNL     1      -1.504   5.485   0.119  0.00  0.00    +0.235 C 
ATOM     18  O   UNL     1      -2.590   4.947   0.162  0.00  0.00    -0.274 OA
ATOM     19  N   UNL     1      -0.382   4.749   0.243  0.00  0.00    -0.284 N 
ATOM     20  H   UNL     1       0.483   5.186   0.284  0.00  0.00    +0.155 HD
BRANCH  19  21
ATOM     21  C   UNL     1      -0.465   3.354   0.313  0.00  0.00    +0.037 A 
ATOM     22  C   UNL     1       0.418   2.644   1.117  0.00  0.00    +0.023 A 
ATOM     23  C   UNL     1       0.333   1.267   1.190  0.00  0.00    +0.005 A 
ATOM     24  C   UNL     1      -0.622   0.591   0.455  0.00  0.00    +0.045 A 
ATOM     25  C   UNL     1      -1.506   1.295  -0.351  0.00  0.00    +0.119 A 
ATOM     26  C   UNL     1      -1.428   2.677  -0.422  0.00  0.00    +0.068 A 
BRANCH  25  27
ATOM     27  O   UNL     1      -2.449   0.630  -1.070  0.00  0.00    -0.507 OA
ATOM     28  H   UNL     1      -3.285   0.504  -0.601  0.00  0.00    +0.292 HD
ENDBRANCH  25  27
ENDBRANCH  19  21
ENDBRANCH  16  17
ENDBRANCH   5  16
TORSDOF 5
