REMARK  Name = ZINC12039962
REMARK  9 active torsions:
REMARK  status: ('A' for Active; 'I' for Inactive)
REMARK    1  A    between atoms: C_1  and  C_2
REMARK    2  A    between atoms: C_2  and  C_33
REMARK    3  A    between atoms: C_3  and  C_4
REMARK    4  A    between atoms: C_4  and  N_63
REMARK    5  A    between atoms: C_7  and  C_10
REMARK    6  A    between atoms: C_7  and  O_32
REMARK    7  A    between atoms: C_17  and  C_19
REMARK    8  A    between atoms: N_21  and  C_22
REMARK    9  A    between atoms: C_22  and  C_23
REMARK                            x       y       z     vdW  Elec       q    Type
REMARK                         _______ _______ _______ _____ _____    ______ ____
ROOT
ATOM      1  C   UNL     1      -3.864   9.623  -7.585  0.00  0.00    -0.015 A 
ATOM      2  C   UNL     1      -3.888   8.391  -8.224  0.00  0.00    +0.010 A 
ATOM      3  C   UNL     1      -3.962   7.222  -7.497  0.00  0.00    +0.047 A 
ATOM      4  C   UNL     1      -4.013   7.272  -6.109  0.00  0.00    +0.136 A 
ATOM      5  C   UNL     1      -3.988   8.524  -5.467  0.00  0.00    +0.021 A 
ATOM      6  C   UNL     1      -3.913   9.697  -6.221  0.00  0.00    +0.018 A 
ATOM      7  C   UNL     1      -4.054   8.236  -4.034  0.00  0.00    +0.063 A 
ATOM      8  C   UNL     1      -4.111   6.884  -3.925  0.00  0.00    +0.190 A 
ATOM      9  O   UNL     1      -4.080   6.325  -5.153  0.00  0.00    -0.450 OA
ENDROOT
BRANCH   1  12
ATOM     10  C   UNL     1      -2.999  11.882 -10.553  0.00  0.00    -0.075 C 
ATOM     11  C   UNL     1      -3.025  10.610  -9.701  0.00  0.00    +0.021 C 
ATOM     12  C   UNL     1      -3.783  10.888  -8.400  0.00  0.00    +0.088 C 
ATOM     13  C   UNL     1      -5.197  11.372  -8.735  0.00  0.00    +0.021 C 
ATOM     14  C   UNL     1      -5.108  12.621  -9.616  0.00  0.00    -0.075 C 
ATOM     15  N   UNL     1      -4.388  12.281 -10.861  0.00  0.00    +0.382 N 
ATOM     16  H   UNL     1      -4.866  11.495 -11.318  0.00  0.00    -0.081 HD
BRANCH  12  17
ATOM     17  O   UNL     1      -3.098  11.895  -7.654  0.00  0.00    -0.384 OA
ATOM     18  H   UNL     1      -3.524  12.123  -6.816  0.00  0.00    +0.211 HD
ENDBRANCH  12  17
BRANCH  15  19
ATOM     19  C   UNL     1      -4.389  13.440 -11.777  0.00  0.00    -0.051 C 
BRANCH  19  22
ATOM     20  C   UNL     1      -4.957  13.581 -14.536  0.00  0.00    +0.038 C 
ATOM     21  C   UNL     1      -6.072  13.687 -13.528  0.00  0.00    -0.081 C 
ATOM     22  C   UNL     1      -5.799  13.687 -12.247  0.00  0.00    -0.047 C 
ATOM     23  C   UNL     1      -7.502  13.794 -13.994  0.00  0.00    +0.038 C 
ENDBRANCH  19  22
ENDBRANCH  15  19
ENDBRANCH   1  12
BRANCH   8  24
ATOM     24  C   UNL     1      -4.189   6.140  -2.660  0.00  0.00    +0.280 C 
ATOM     25  O   UNL     1      -4.205   6.740  -1.601  0.00  0.00    -0.267 OA
ATOM     26  N   UNL     1      -4.241   4.793  -2.672  0.00  0.00    -0.303 N 
ATOM     27  H   UNL     1      -4.228   4.315  -3.515  0.00  0.00    +0.150 HD
BRANCH  26  28
ATOM     28  C   UNL     1      -4.318   4.052  -1.410  0.00  0.00    +0.167 C 
BRANCH  28  29
ATOM     29  C   UNL     1      -4.365   2.574  -1.699  0.00  0.00    +0.097 A 
ATOM     30  N   UNL     1      -3.369   1.740  -1.815  0.00  0.00    -0.242 NA
ATOM     31  C   UNL     1      -3.549   0.429  -2.077  0.00  0.00    +0.079 A 
ATOM     32  C   UNL     1      -2.581  -0.589  -2.230  0.00  0.00    +0.029 A 
ATOM     33  C   UNL     1      -2.956  -1.869  -2.495  0.00  0.00    +0.002 A 
ATOM     34  C   UNL     1      -4.292  -2.225  -2.625  0.00  0.00    +0.001 A 
ATOM     35  C   UNL     1      -5.268  -1.257  -2.488  0.00  0.00    +0.017 A 
ATOM     36  C   UNL     1      -4.900   0.038  -2.215  0.00  0.00    +0.039 A 
ATOM     37  S   UNL     1      -5.758   1.570  -1.957  0.00  0.00    -0.071 S 
ENDBRANCH  28  29
ENDBRANCH  26  28
ENDBRANCH   8  24
TORSDOF 7
