REMARK  Name = ZINC18125085
REMARK  6 active torsions:
REMARK  status: ('A' for Active; 'I' for Inactive)
REMARK    1  A    between atoms: C_1  and  C_2
REMARK    2  A    between atoms: C_7  and  N_8
REMARK    3  A    between atoms: C_9  and  C_11
REMARK    4  A    between atoms: C_12  and  C_29
REMARK    5  A    between atoms: C_20  and  C_22
REMARK    6  A    between atoms: C_25  and  C_27
REMARK                            x       y       z     vdW  Elec       q    Type
REMARK                         _______ _______ _______ _____ _____    ______ ____
ROOT
ATOM      1  C   UNL     1      -0.141   0.005   4.800  0.00  0.00    +0.050 C 
ATOM      2  C   UNL     1      -0.138  -0.652   5.992  0.00  0.00    +0.048 C 
ATOM      3  N   UNL     1      -0.254  -0.028   7.157  0.00  0.00    -0.256 NA
ATOM      4  C   UNL     1      -0.383   1.268   7.319  0.00  0.00    +0.049 C 
ATOM      5  C   UNL     1      -0.506   1.831   8.715  0.00  0.00    +0.056 C 
ATOM      6  C   UNL     1       0.071   3.249   8.739  0.00  0.00    +0.014 C 
ATOM      7  C   UNL     1      -0.670   4.104   7.706  0.00  0.00    +0.080 C 
ATOM      8  C   UNL     1      -0.541   3.465   6.348  0.00  0.00    +0.162 C 
ATOM      9  C   UNL     1      -0.410   2.134   6.214  0.00  0.00    +0.031 C 
ATOM     10  C   UNL     1      -0.278   1.517   4.834  0.00  0.00    +0.127 C 
ATOM     11  O   UNL     1      -0.557   4.243   5.248  0.00  0.00    -0.292 OA
ATOM     12  C   UNL     1       0.001  -2.152   5.989  0.00  0.00    +0.066 C 
ENDROOT
BRANCH  10  13
ATOM     13  C   UNL     1       0.929   2.115   4.159  0.00  0.00    +0.117 A 
ATOM     14  C   UNL     1       0.910   2.910   3.074  0.00  0.00    +0.046 A 
ATOM     15  C   UNL     1       2.254   3.238   2.782  0.00  0.00    +0.044 A 
ATOM     16  C   UNL     1       3.014   2.623   3.706  0.00  0.00    +0.102 A 
ATOM     17  O   UNL     1       2.206   1.950   4.541  0.00  0.00    -0.464 OA
ATOM     18  C   UNL     1       4.517   2.685   3.793  0.00  0.00    +0.086 C 
ENDBRANCH  10  13
BRANCH   1  20
ATOM     19  N   UNL     1      -0.165  -0.037   2.411  0.00  0.00    -0.281 N 
ATOM     20  C   UNL     1      -0.015  -0.692   3.579  0.00  0.00    +0.247 C 
ATOM     21  O   UNL     1       0.229  -1.885   3.581  0.00  0.00    -0.270 OA
ATOM     22  H   UNL     1      -0.329   0.919   2.408  0.00  0.00    +0.155 HD
BRANCH  19  29
ATOM     23  C   UNL     1      -1.788   0.837   0.243  0.00  0.00    +0.045 C 
ATOM     24  C   UNL     1      -0.859  -0.343   0.118  0.00  0.00    -0.029 A 
ATOM     25  C   UNL     1      -0.772  -1.032  -1.076  0.00  0.00    +0.005 A 
ATOM     26  C   UNL     1       0.080  -2.115  -1.191  0.00  0.00    +0.000 A 
ATOM     27  C   UNL     1       0.849  -2.511  -0.112  0.00  0.00    +0.002 A 
ATOM     28  C   UNL     1       0.767  -1.827   1.085  0.00  0.00    +0.023 A 
ATOM     29  C   UNL     1      -0.084  -0.735   1.202  0.00  0.00    +0.037 A 
ENDBRANCH  19  29
ENDBRANCH   1  20
TORSDOF 3
