REMARK  Name = ZINC66177043
REMARK  5 active torsions:
REMARK  status: ('A' for Active; 'I' for Inactive)
REMARK    1  A    between atoms: C_4  and  C_7
REMARK    2  A    between atoms: C_7  and  C_11
REMARK    3  A    between atoms: C_11  and  N_12
REMARK    4  A    between atoms: C_18  and  N_21
REMARK    5  A    between atoms: C_22  and  C_24
REMARK                            x       y       z     vdW  Elec       q    Type
REMARK                         _______ _______ _______ _____ _____    ______ ____
ROOT
ATOM      1  N   UNL     1       4.818   1.185  -1.120  0.00  0.00    -0.298 N 
ATOM      2  C   UNL     1       5.514   1.816  -2.087  0.00  0.00    +0.302 C 
ATOM      3  O   UNL     1       6.054   1.171  -2.965  0.00  0.00    -0.253 OA
ATOM      4  N   UNL     1       5.612   3.160  -2.080  0.00  0.00    -0.286 N 
ATOM      5  C   UNL     1       5.072   3.944  -0.961  0.00  0.00    +0.111 C 
ATOM      6  C   UNL     1       6.177   4.855  -0.417  0.00  0.00    +0.041 C 
ATOM      7  C   UNL     1       6.744   5.699  -1.561  0.00  0.00    +0.076 C 
ATOM      8  C   UNL     1       7.354   4.781  -2.622  0.00  0.00    +0.041 C 
ATOM      9  C   UNL     1       6.267   3.869  -3.188  0.00  0.00    +0.111 C 
ATOM     10  H   UNL     1       4.448   1.692  -0.380  0.00  0.00    +0.150 HD
ENDROOT
BRANCH   7  11
ATOM     11  N   UNL     1       7.779   6.595  -1.038  0.00  0.00    -0.312 N 
ATOM     12  C   UNL     1       8.065   7.743  -1.684  0.00  0.00    +0.216 C 
ATOM     13  O   UNL     1       7.465   8.034  -2.698  0.00  0.00    -0.276 OA
ATOM     14  H   UNL     1       8.258   6.362  -0.228  0.00  0.00    +0.149 HD
BRANCH  12  15
ATOM     15  C   UNL     1       9.129   8.665  -1.147  0.00  0.00    +0.075 C 
ATOM     16  C   UNL     1       8.632   9.594  -0.027  0.00  0.00    +0.013 C 
ATOM     17  C   UNL     1       9.482  10.700  -0.674  0.00  0.00    +0.001 C 
ATOM     18  C   UNL     1       9.335   9.930  -1.997  0.00  0.00    +0.013 C 
ENDBRANCH  12  15
ENDBRANCH   7  11
BRANCH   1  19
ATOM     19  C   UNL     1       4.619  -0.264  -1.187  0.00  0.00    +0.117 C 
BRANCH  19  20
ATOM     20  C   UNL     1       3.698  -0.706  -0.048  0.00  0.00    +0.011 C 
ATOM     21  C   UNL     1       4.389  -0.744   1.326  0.00  0.00    +0.013 C 
ATOM     22  C   UNL     1       4.776  -2.197   1.003  0.00  0.00    +0.002 C 
ATOM     23  C   UNL     1       3.554  -2.233   0.071  0.00  0.00    +0.013 C 
BRANCH  20  27
ATOM     24  C   UNL     1      -0.034   1.372  -0.028  0.00  0.00    +0.000 A 
ATOM     25  C   UNL     1       0.273   0.512  -1.066  0.00  0.00    +0.000 A 
ATOM     26  C   UNL     1       1.481  -0.160  -1.073  0.00  0.00    +0.004 A 
ATOM     27  C   UNL     1       2.382   0.027  -0.041  0.00  0.00    -0.040 A 
ATOM     28  C   UNL     1       2.075   0.887   0.997  0.00  0.00    +0.004 A 
ATOM     29  C   UNL     1       0.867   1.558   1.004  0.00  0.00    +0.000 A 
ENDBRANCH  20  27
ENDBRANCH  19  20
ENDBRANCH   1  19
TORSDOF 5
