REMARK  Name = ZINC09102705
REMARK  7 active torsions:
REMARK  status: ('A' for Active; 'I' for Inactive)
REMARK    1  A    between atoms: C_3  and  C_6
REMARK    2  A    between atoms: C_6  and  C_8
REMARK    3  A    between atoms: C_6  and  S_21
REMARK    4  A    between atoms: C_8  and  N_9
REMARK    5  A    between atoms: N_9  and  S_10
REMARK    6  A    between atoms: S_10  and  C_13
REMARK    7  A    between atoms: S_21  and  C_24
REMARK                            x       y       z     vdW  Elec       q    Type
REMARK                         _______ _______ _______ _____ _____    ______ ____
ROOT
ATOM      1  C   UNL     1       2.565   1.272  -0.015  0.00  0.00    +0.188 C 
ENDROOT
BRANCH   1   4
ATOM      2  C   UNL     1      -1.213   1.761   0.017  0.00  0.00    +0.008 A 
ATOM      3  C   UNL     1      -0.013   1.076   0.008  0.00  0.00    +0.013 A 
ATOM      4  C   UNL     1       1.146   1.780   0.001  0.00  0.00    +0.015 A 
ATOM      5  S   UNL     1       0.555   3.464   0.015  0.00  0.00    -0.100 S 
ATOM      6  C   UNL     1      -1.196   3.116   0.030  0.00  0.00    +0.045 A 
ENDBRANCH   1   4
BRANCH   1   7
ATOM      7  S   UNL     1       3.436   1.865   1.461  0.00  0.00    +0.006 S 
ATOM      8  O   UNL     1       4.715   1.253   1.554  0.00  0.00    -0.169 OA
ATOM      9  O   UNL     1       3.297   3.275   1.577  0.00  0.00    -0.169 OA
BRANCH   7  10
ATOM     10  C   UNL     1       2.524   1.210   2.819  0.00  0.00    +0.093 A 
ATOM     11  C   UNL     1       2.856  -0.027   3.339  0.00  0.00    +0.031 A 
ATOM     12  C   UNL     1       2.143  -0.545   4.404  0.00  0.00    +0.051 A 
ATOM     13  C   UNL     1       1.095   0.175   4.954  0.00  0.00    +0.166 A 
ATOM     14  C   UNL     1       0.761   1.421   4.430  0.00  0.00    +0.168 A 
ATOM     15  C   UNL     1       1.484   1.937   3.366  0.00  0.00    +0.076 A 
ATOM     16  O   UNL     1      -0.293   1.924   5.136  0.00  0.00    -0.453 OA
ATOM     17  C   UNL     1      -0.340   1.158   6.354  0.00  0.00    +0.466 C 
ATOM     18  O   UNL     1       0.249  -0.104   5.988  0.00  0.00    -0.453 OA
ENDBRANCH   7  10
ENDBRANCH   1   7
BRANCH   1  19
ATOM     19  C   UNL     1       3.276   1.785  -1.269  0.00  0.00    +0.137 C 
BRANCH  19  20
ATOM     20  N   UNL     1       4.655   1.292  -1.284  0.00  0.00    -0.192 NA
ATOM     21  H   UNL     1       5.046   0.919  -0.478  0.00  0.00    +0.148 HD
BRANCH  20  22
ATOM     22  S   UNL     1       5.547   1.369  -2.677  0.00  0.00    +0.034 S 
ATOM     23  O   UNL     1       6.801   0.792  -2.338  0.00  0.00    -0.158 OA
ATOM     24  O   UNL     1       4.721   0.776  -3.670  0.00  0.00    -0.158 OA
BRANCH  22  25
ATOM     25  C   UNL     1       5.744   3.142  -3.007  0.00  0.00    +0.170 C 
ATOM     26  C   UNL     1       6.485   3.800  -1.831  0.00  0.00    +0.052 C 
ATOM     27  C   UNL     1       6.914   5.230  -2.268  0.00  0.00    +0.168 C 
ATOM     28  S   UNL     1       7.461   4.902  -3.997  0.00  0.00    -0.029 S 
ATOM     29  O   UNL     1       8.857   4.635  -3.998  0.00  0.00    -0.174 OA
ATOM     30  O   UNL     1       6.942   5.917  -4.846  0.00  0.00    -0.174 OA
ATOM     31  C   UNL     1       6.551   3.335  -4.313  0.00  0.00    +0.193 C 
ENDBRANCH  22  25
ENDBRANCH  20  22
ENDBRANCH  19  20
ENDBRANCH   1  19
TORSDOF 7
