REMARK  Name = ZINC59513530
REMARK  8 active torsions:
REMARK  status: ('A' for Active; 'I' for Inactive)
REMARK    1  A    between atoms: C_1  and  O_2
REMARK    2  A    between atoms: O_2  and  C_3
REMARK    3  A    between atoms: C_8  and  N_9
REMARK    4  A    between atoms: C_13  and  N_29
REMARK    5  A    between atoms: C_15  and  S_16
REMARK    6  A    between atoms: S_16  and  C_17
REMARK    7  A    between atoms: C_17  and  C_18
REMARK    8  A    between atoms: C_21  and  C_23
REMARK                            x       y       z     vdW  Elec       q    Type
REMARK                         _______ _______ _______ _____ _____    ______ ____
ROOT
ATOM      1  N   UNL     1       0.097  -2.779   0.084  0.00  0.00    -0.252 N 
ATOM      2  C   UNL     1       0.824  -3.136  -0.996  0.00  0.00    +0.261 A 
ATOM      3  O   UNL     1       1.992  -2.796  -1.098  0.00  0.00    -0.267 OA
ATOM      4  C   UNL     1       0.218  -3.904  -1.994  0.00  0.00    +0.114 A 
ATOM      5  C   UNL     1      -1.112  -4.271  -1.840  0.00  0.00    +0.124 A 
ATOM      6  N   UNL     1      -1.784  -3.888  -0.749  0.00  0.00    -0.208 NA
ATOM      7  C   UNL     1      -1.205  -3.170   0.191  0.00  0.00    +0.178 A 
ENDROOT
BRANCH   1  13
ATOM      8  C   UNL     1       0.626  -0.619   1.042  0.00  0.00    +0.144 A 
ATOM      9  C   UNL     1       1.202   0.137   2.051  0.00  0.00    +0.048 A 
ATOM     10  C   UNL     1       1.836  -0.489   3.107  0.00  0.00    +0.004 A 
ATOM     11  C   UNL     1       1.897  -1.870   3.162  0.00  0.00    +0.002 A 
ATOM     12  C   UNL     1       1.325  -2.631   2.160  0.00  0.00    +0.030 A 
ATOM     13  C   UNL     1       0.683  -2.009   1.099  0.00  0.00    +0.093 A 
BRANCH   8  15
ATOM     14  C   UNL     1      -0.017   1.425   0.010  0.00  0.00    +0.277 C 
ATOM     15  O   UNL     1       0.002  -0.004   0.002  0.00  0.00    -0.493 OA
ENDBRANCH   8  15
ENDBRANCH   1  13
BRANCH   5  16
ATOM     16  N   UNL     1      -1.739  -5.028  -2.810  0.00  0.00    -0.343 N 
ATOM     17  H   UNL     1      -1.250  -5.305  -3.600  0.00  0.00    +0.144 HD
ATOM     18  H   UNL     1      -2.668  -5.284  -2.700  0.00  0.00    +0.144 HD
ENDBRANCH   5  16
BRANCH   7  19
ATOM     19  S   UNL     1      -2.134  -2.698   1.613  0.00  0.00    -0.079 S 
BRANCH  19  20
ATOM     20  C   UNL     1      -3.772  -3.424   1.328  0.00  0.00    +0.153 C 
BRANCH  20  21
ATOM     21  C   UNL     1      -4.677  -3.092   2.486  0.00  0.00    +0.136 A 
ATOM     22  C   UNL     1      -5.473  -2.013   2.591  0.00  0.00    +0.157 A 
ATOM     23  N   UNL     1      -6.113  -2.087   3.768  0.00  0.00    -0.217 NA
ATOM     24  C   UNL     1      -5.730  -3.180   4.385  0.00  0.00    +0.227 A 
ATOM     25  O   UNL     1      -4.843  -3.823   3.606  0.00  0.00    -0.439 OA
BRANCH  24  26
ATOM     26  C   UNL     1      -6.199  -3.632   5.712  0.00  0.00    +0.037 A 
ATOM     27  C   UNL     1      -5.708  -4.816   6.264  0.00  0.00    +0.013 A 
ATOM     28  C   UNL     1      -6.150  -5.232   7.503  0.00  0.00    +0.001 A 
ATOM     29  C   UNL     1      -7.079  -4.478   8.198  0.00  0.00    +0.000 A 
ATOM     30  C   UNL     1      -7.570  -3.304   7.657  0.00  0.00    +0.001 A 
ATOM     31  C   UNL     1      -7.132  -2.874   6.421  0.00  0.00    +0.013 A 
ENDBRANCH  24  26
ENDBRANCH  20  21
ENDBRANCH  19  20
ENDBRANCH   7  19
TORSDOF 7
