REMARK  Name = ZINC15072034
REMARK  5 active torsions:
REMARK  status: ('A' for Active; 'I' for Inactive)
REMARK    1  A    between atoms: C_3  and  C_7
REMARK    2  A    between atoms: C_7  and  N_8
REMARK    3  A    between atoms: C_11  and  N_14
REMARK    4  A    between atoms: C_18  and  N_21
REMARK    5  A    between atoms: N_21  and  C_22
REMARK                            x       y       z     vdW  Elec       q    Type
REMARK                         _______ _______ _______ _____ _____    ______ ____
ROOT
ATOM      1  N   UNL     1       0.376   5.917   5.090  0.00  0.00    +0.383 N 
ATOM      2  C   UNL     1       0.814   7.312   5.221  0.00  0.00    -0.078 C 
ATOM      3  C   UNL     1       1.104   7.621   6.692  0.00  0.00    -0.017 C 
ATOM      4  C   UNL     1      -0.163   7.383   7.518  0.00  0.00    +0.018 C 
ATOM      5  C   UNL     1      -0.625   5.936   7.325  0.00  0.00    +0.054 C 
ATOM      6  C   UNL     1      -0.865   5.677   5.836  0.00  0.00    -0.056 C 
ATOM      7  H   UNL     1       1.159   5.278   5.526  0.00  0.00    -0.081 HD
ENDROOT
BRANCH   1  11
ATOM      8  N   UNL     1       1.136   4.027   1.397  0.00  0.00    -0.298 NA
ATOM      9  C   UNL     1      -0.101   3.644   2.091  0.00  0.00    +0.083 C 
ATOM     10  C   UNL     1      -0.001   4.034   3.567  0.00  0.00    +0.000 C 
ATOM     11  C   UNL     1       0.222   5.545   3.677  0.00  0.00    -0.066 C 
ATOM     12  C   UNL     1       1.489   5.924   2.906  0.00  0.00    +0.000 C 
ATOM     13  C   UNL     1       1.346   5.479   1.449  0.00  0.00    +0.083 C 
BRANCH   8  14
ATOM     14  C   UNL     1       1.133   3.544   0.010  0.00  0.00    +0.121 C 
BRANCH  14  17
ATOM     15  C   UNL     1       2.350  -0.027  -0.020  0.00  0.00    +0.020 A 
ATOM     16  C   UNL     1       2.371   1.359  -0.013  0.00  0.00    +0.008 A 
ATOM     17  C   UNL     1       1.162   2.038   0.002  0.00  0.00    -0.015 A 
ATOM     18  C   UNL     1      -0.016   1.314   0.009  0.00  0.00    +0.115 A 
ATOM     19  N   UNL     1       0.002  -0.004   0.002  0.00  0.00    -0.263 NA
ATOM     20  C   UNL     1       1.133  -0.682  -0.013  0.00  0.00    +0.111 A 
ENDBRANCH  14  17
ENDBRANCH   8  14
ENDBRANCH   1  11
BRANCH   5  21
ATOM     21  N   UNL     1      -1.869   5.717   8.067  0.00  0.00    -0.343 N 
ATOM     22  H   UNL     1      -2.838   5.820   7.558  0.00  0.00    +0.146 HD
BRANCH  21  23
ATOM     23  C   UNL     1      -1.824   5.375   9.423  0.00  0.00    +0.031 A 
ATOM     24  C   UNL     1      -0.600   5.239  10.065  0.00  0.00    +0.027 A 
ATOM     25  C   UNL     1      -0.554   4.906  11.405  0.00  0.00    +0.051 A 
ATOM     26  C   UNL     1      -1.729   4.698  12.110  0.00  0.00    +0.166 A 
ATOM     27  C   UNL     1      -2.958   4.829  11.469  0.00  0.00    +0.168 A 
ATOM     28  C   UNL     1      -3.003   5.168  10.126  0.00  0.00    +0.072 A 
ATOM     29  O   UNL     1      -3.950   4.576  12.370  0.00  0.00    -0.453 OA
ATOM     30  C   UNL     1      -3.332   4.689  13.666  0.00  0.00    +0.466 C 
ATOM     31  O   UNL     1      -1.952   4.362  13.416  0.00  0.00    -0.453 OA
ENDBRANCH  21  23
ENDBRANCH   5  21
TORSDOF 5
