REMARK  Name = ZINC65319826
REMARK  9 active torsions:
REMARK  status: ('A' for Active; 'I' for Inactive)
REMARK    1  A    between atoms: C_1  and  C_2
REMARK    2  A    between atoms: C_2  and  N_3
REMARK    3  A    between atoms: C_9  and  S_10
REMARK    4  A    between atoms: S_10  and  C_11
REMARK    5  A    between atoms: C_11  and  C_12
REMARK    6  A    between atoms: N_14  and  C_15
REMARK    7  A    between atoms: C_18  and  C_21
REMARK    8  A    between atoms: C_21  and  C_22
REMARK    9  A    between atoms: C_21  and  C_23
REMARK                            x       y       z     vdW  Elec       q    Type
REMARK                         _______ _______ _______ _____ _____    ______ ____
ROOT
ATOM      1  N   UNL     1       0.686  -0.488  -1.201  0.00  0.00    -0.287 N 
ATOM      2  C   UNL     1      -0.012  -0.722  -2.339  0.00  0.00    +0.271 A 
ATOM      3  O   UNL     1      -1.218  -0.537  -2.385  0.00  0.00    -0.266 OA
ATOM      4  C   UNL     1       0.681  -1.176  -3.449  0.00  0.00    +0.124 A 
ATOM      5  C   UNL     1       2.072  -1.394  -3.413  0.00  0.00    +0.177 A 
ATOM      6  N   UNL     1       2.694  -1.135  -2.231  0.00  0.00    -0.203 NA
ATOM      7  C   UNL     1       2.034  -0.701  -1.188  0.00  0.00    +0.174 A 
ATOM      8  N   UNL     1       2.577  -1.832  -4.567  0.00  0.00    -0.205 NA
ATOM      9  C   UNL     1       1.826  -2.034  -5.628  0.00  0.00    +0.164 A 
ATOM     10  S   UNL     1       0.276  -1.621  -5.116  0.00  0.00    -0.045 S 
ATOM     11  N   UNL     1       2.217  -2.479  -6.871  0.00  0.00    -0.310 N 
ATOM     12  C   UNL     1       1.331  -2.681  -8.027  0.00  0.00    +0.107 C 
ATOM     13  C   UNL     1       2.203  -3.210  -9.186  0.00  0.00    +0.020 C 
ATOM     14  C   UNL     1       3.428  -3.814  -8.451  0.00  0.00    +0.020 C 
ATOM     15  C   UNL     1       3.595  -2.827  -7.265  0.00  0.00    +0.107 C 
ENDROOT
BRANCH   1  17
ATOM     16  C   UNL     1      -0.018   1.524  -0.001  0.00  0.00    +0.027 C 
ATOM     17  C   UNL     1       0.002  -0.006   0.002  0.00  0.00    +0.124 C 
ENDBRANCH   1  17
BRANCH   7  18
ATOM     18  S   UNL     1       2.924  -0.384   0.299  0.00  0.00    -0.078 S 
BRANCH  18  19
ATOM     19  C   UNL     1       4.641  -0.789  -0.121  0.00  0.00    +0.173 C 
BRANCH  19  20
ATOM     20  C   UNL     1       5.521  -0.559   1.081  0.00  0.00    +0.227 C 
ATOM     21  O   UNL     1       5.036  -0.161   2.119  0.00  0.00    -0.275 OA
ATOM     22  N   UNL     1       6.845  -0.796   1.002  0.00  0.00    -0.285 N 
ATOM     23  H   UNL     1       7.222  -1.178   0.194  0.00  0.00    +0.155 HD
BRANCH  22  24
ATOM     24  C   UNL     1       7.676  -0.491   2.086  0.00  0.00    +0.033 A 
ATOM     25  C   UNL     1       8.964  -0.023   1.865  0.00  0.00    +0.023 A 
ATOM     26  C   UNL     1       9.782   0.277   2.937  0.00  0.00    +0.006 A 
ATOM     27  C   UNL     1       9.319   0.111   4.229  0.00  0.00    -0.045 A 
ATOM     28  C   UNL     1       8.037  -0.355   4.452  0.00  0.00    +0.006 A 
ATOM     29  C   UNL     1       7.212  -0.651   3.385  0.00  0.00    +0.023 A 
BRANCH  27  30
ATOM     30  C   UNL     1      10.214   0.440   5.396  0.00  0.00    +0.013 C 
ATOM     31  C   UNL     1       9.564   1.534   6.245  0.00  0.00    +0.012 C 
ATOM     32  C   UNL     1      10.419  -0.813   6.250  0.00  0.00    +0.012 C 
ENDBRANCH  27  30
ENDBRANCH  22  24
ENDBRANCH  19  20
ENDBRANCH  18  19
ENDBRANCH   7  18
TORSDOF 6
