REMARK  Name = ZINC14145232
REMARK  6 active torsions:
REMARK  status: ('A' for Active; 'I' for Inactive)
REMARK    1  A    between atoms: C_5  and  C_7
REMARK    2  A    between atoms: N_11  and  C_15
REMARK    3  A    between atoms: C_15  and  C_16
REMARK    4  A    between atoms: C_16  and  N_17
REMARK    5  A    between atoms: C_18  and  C_20
REMARK    6  A    between atoms: C_20  and  N_21
REMARK                            x       y       z     vdW  Elec       q    Type
REMARK                         _______ _______ _______ _____ _____    ______ ____
ROOT
ATOM      1  C   UNL     1      -6.223   4.000  -3.840  0.00  0.00    +0.123 C 
ENDROOT
BRANCH   1   2
ATOM      2  N   UNL     1      -5.524   3.625  -2.609  0.00  0.00    -0.312 N 
ATOM      3  C   UNL     1      -4.400   2.883  -2.671  0.00  0.00    +0.233 C 
ATOM      4  O   UNL     1      -3.968   2.525  -3.746  0.00  0.00    -0.274 OA
ATOM      5  H   UNL     1      -5.869   3.911  -1.749  0.00  0.00    +0.149 HD
BRANCH   3   6
ATOM      6  C   UNL     1      -3.681   2.498  -1.404  0.00  0.00    +0.221 C 
BRANCH   6   7
ATOM      7  N   UNL     1      -2.499   1.698  -1.737  0.00  0.00    -0.290 N 
ATOM      8  C   UNL     1      -2.603   0.346  -1.822  0.00  0.00    +0.203 A 
ATOM      9  N   UNL     1      -1.603  -0.430  -2.111  0.00  0.00    -0.237 NA
ATOM     10  C   UNL     1      -0.366   0.068  -2.359  0.00  0.00    +0.079 A 
ATOM     11  C   UNL     1       0.712  -0.765  -2.664  0.00  0.00    +0.048 A 
ATOM     12  C   UNL     1       1.952  -0.212  -2.901  0.00  0.00    +0.043 A 
ATOM     13  C   UNL     1       2.143   1.163  -2.834  0.00  0.00    +0.021 A 
ATOM     14  C   UNL     1       1.103   1.998  -2.531  0.00  0.00    +0.017 A 
ATOM     15  C   UNL     1      -0.161   1.464  -2.287  0.00  0.00    +0.065 A 
ATOM     16  C   UNL     1      -1.314   2.314  -1.957  0.00  0.00    +0.262 A 
ATOM     17  O   UNL     1      -1.207   3.524  -1.884  0.00  0.00    -0.267 OA
ATOM     18 CL   UNL     1       3.293  -1.246  -3.288  0.00  0.00    -0.083 Cl
ENDBRANCH   6   7
ENDBRANCH   3   6
ENDBRANCH   1   2
BRANCH   1  19
ATOM     19  C   UNL     1      -7.457   4.834  -3.492  0.00  0.00    +0.136 C 
BRANCH  19  24
ATOM     20  C   UNL     1     -10.750   4.241  -7.154  0.00  0.00    +0.031 C 
ATOM     21  C   UNL     1      -9.764   4.846  -6.446  0.00  0.00    +0.080 C 
ATOM     22  C   UNL     1      -9.097   4.411  -5.201  0.00  0.00    +0.260 C 
ATOM     23  O   UNL     1      -9.398   3.372  -4.643  0.00  0.00    -0.269 OA
ATOM     24  N   UNL     1      -8.156   5.209  -4.724  0.00  0.00    -0.227 N 
ATOM     25  C   UNL     1      -7.830   6.362  -5.342  0.00  0.00    +0.286 C 
ATOM     26  O   UNL     1      -6.996   7.185  -5.015  0.00  0.00    -0.262 OA
ATOM     27  S   UNL     1      -8.915   6.387  -6.760  0.00  0.00    -0.026 S 
BRANCH  20  32
ATOM     28  C   UNL     1     -10.688   6.152 -10.379  0.00  0.00    +0.001 A 
ATOM     29  C   UNL     1     -11.911   5.799 -10.925  0.00  0.00    +0.003 A 
ATOM     30  C   UNL     1     -12.758   4.940 -10.248  0.00  0.00    +0.039 A 
ATOM     31  C   UNL     1     -12.389   4.427  -9.018  0.00  0.00    +0.131 A 
ATOM     32  C   UNL     1     -11.153   4.780  -8.460  0.00  0.00    +0.011 A 
ATOM     33  C   UNL     1     -10.306   5.655  -9.152  0.00  0.00    +0.011 A 
ATOM     34  F   UNL     1     -13.217   3.589  -8.357  0.00  0.00    -0.205 F 
ENDBRANCH  20  32
ENDBRANCH  19  24
ENDBRANCH   1  19
TORSDOF 6
