REMARK  Name = ZINC09339761
REMARK  7 active torsions:
REMARK  status: ('A' for Active; 'I' for Inactive)
REMARK    1  A    between atoms: C_8  and  N_27
REMARK    2  A    between atoms: C_9  and  C_12
REMARK    3  A    between atoms: N_16  and  C_20
REMARK    4  A    between atoms: C_20  and  C_21
REMARK    5  A    between atoms: N_30  and  C_33
REMARK    6  A    between atoms: C_33  and  C_34
REMARK    7  A    between atoms: C_34  and  O_35
REMARK                            x       y       z     vdW  Elec       q    Type
REMARK                         _______ _______ _______ _____ _____    ______ ____
ROOT
ATOM      1  C   UNL     1       0.427  10.921  -3.218  0.00  0.00    +0.005 A 
ATOM      2  C   UNL     1      -0.135  11.716  -2.209  0.00  0.00    +0.018 A 
ATOM      3  C   UNL     1      -0.832  11.143  -1.203  0.00  0.00    +0.096 A 
ATOM      4  N   UNL     1      -0.999   9.791  -1.152  0.00  0.00    -0.268 N 
ATOM      5  C   UNL     1      -0.463   8.989  -2.121  0.00  0.00    +0.142 A 
ATOM      6  C   UNL     1       0.265   9.568  -3.176  0.00  0.00    +0.047 A 
ATOM      7  N   UNL     1      -0.611   7.665  -2.085  0.00  0.00    -0.214 NA
ATOM      8  C   UNL     1      -1.292   7.067  -1.118  0.00  0.00    +0.136 A 
ATOM      9  C   UNL     1      -1.869   7.846  -0.088  0.00  0.00    +0.081 A 
ATOM     10  C   UNL     1      -1.701   9.250  -0.133  0.00  0.00    +0.267 A 
ATOM     11  O   UNL     1      -2.182   9.960   0.734  0.00  0.00    -0.267 OA
ENDROOT
BRANCH   9  12
ATOM     12  C   UNL     1      -2.597   7.236   0.961  0.00  0.00    +0.037 C 
ATOM     13  C   UNL     1      -3.663   6.432   0.674  0.00  0.00    +0.077 C 
ATOM     14  C   UNL     1      -4.564   5.774   1.558  0.00  0.00    +0.258 C 
ATOM     15  O   UNL     1      -4.449   5.883   2.766  0.00  0.00    -0.269 OA
ATOM     16  N   UNL     1      -5.532   5.045   1.031  0.00  0.00    -0.253 N 
ATOM     17  C   UNL     1      -5.656   4.918  -0.309  0.00  0.00    +0.121 C 
ATOM     18  S   UNL     1      -6.816   4.029  -1.200  0.00  0.00    -0.027 S 
ATOM     19  S   UNL     1      -4.302   5.914  -0.913  0.00  0.00    -0.061 S 
BRANCH  16  20
ATOM     20  C   UNL     1      -6.481   4.359   1.912  0.00  0.00    +0.146 C 
BRANCH  20  21
ATOM     21  C   UNL     1      -5.949   2.965   2.249  0.00  0.00    +0.136 C 
ATOM     22  C   UNL     1      -6.944   2.233   3.170  0.00  0.00    +0.035 C 
ATOM     23  C   UNL     1      -7.315   0.951   2.385  0.00  0.00    +0.031 C 
ATOM     24  C   UNL     1      -6.125   0.818   1.400  0.00  0.00    +0.160 C 
ATOM     25  O   UNL     1      -5.821   2.187   1.048  0.00  0.00    -0.375 OA
ENDBRANCH  20  21
ENDBRANCH  16  20
ENDBRANCH   9  12
BRANCH   8  26
ATOM     26  N   UNL     1      -1.431   5.696  -1.113  0.00  0.00    -0.312 N 
ATOM     27  C   UNL     1      -0.945   5.113  -2.372  0.00  0.00    +0.122 C 
ATOM     28  C   UNL     1      -1.190   3.602  -2.358  0.00  0.00    +0.103 C 
ATOM     29  N   UNL     1      -0.501   3.007  -1.205  0.00  0.00    -0.297 NA
ATOM     30  C   UNL     1      -0.987   3.590   0.054  0.00  0.00    +0.103 C 
ATOM     31  C   UNL     1      -0.742   5.101   0.040  0.00  0.00    +0.122 C 
BRANCH  29  32
ATOM     32  C   UNL     1      -0.650   1.545  -1.199  0.00  0.00    +0.112 C 
BRANCH  32  33
ATOM     33  C   UNL     1       0.273   0.935  -2.256  0.00  0.00    +0.171 C 
BRANCH  33  34
ATOM     34  O   UNL     1       1.633   1.209  -1.915  0.00  0.00    -0.394 OA
ATOM     35  H   UNL     1       2.446   0.847  -2.562  0.00  0.00    +0.209 HD
ENDBRANCH  33  34
ENDBRANCH  32  33
ENDBRANCH  29  32
ENDBRANCH   8  26
TORSDOF 7
