REMARK  Name = ZINC09209663
REMARK  3 active torsions:
REMARK  status: ('A' for Active; 'I' for Inactive)
REMARK    1  A    between atoms: C_1  and  C_2
REMARK    2  A    between atoms: C_16  and  C_18
REMARK    3  A    between atoms: C_27  and  C_31
REMARK                            x       y       z     vdW  Elec       q    Type
REMARK                         _______ _______ _______ _____ _____    ______ ____
ROOT
ATOM      1  C   UNL     1      -2.386  -2.922   0.009  0.00  0.00    +0.044 C 
ATOM      2  C   UNL     1      -1.115  -2.114   0.001  0.00  0.00    -0.050 A 
ATOM      3  C   UNL     1       0.114  -2.760  -0.014  0.00  0.00    +0.007 A 
ATOM      4  C   UNL     1       1.289  -2.041  -0.021  0.00  0.00    +0.047 A 
ATOM      5  C   UNL     1       1.251  -0.649  -0.013  0.00  0.00    +0.139 A 
ATOM      6  C   UNL     1       0.002  -0.004   0.002  0.00  0.00    +0.065 A 
ATOM      7  C   UNL     1      -1.177  -0.748   0.009  0.00  0.00    +0.018 A 
ATOM      8  C   UNL     1      -0.018   1.472   0.010  0.00  0.00    +0.199 A 
ATOM      9  O   UNL     1      -1.063   2.097   0.019  0.00  0.00    -0.287 OA
ATOM     10  C   UNL     1       1.283   2.147   0.001  0.00  0.00    +0.072 A 
ATOM     11  C   UNL     1       2.424   1.415  -0.012  0.00  0.00    +0.199 A 
ATOM     12  O   UNL     1       2.389   0.068  -0.019  0.00  0.00    -0.450 OA
ATOM     13  C   UNL     1       3.577   2.348  -0.018  0.00  0.00    +0.288 C 
ATOM     14  O   UNL     1       4.744   2.010  -0.031  0.00  0.00    -0.266 OA
ATOM     15  N   UNL     1       3.146   3.621  -0.007  0.00  0.00    -0.238 N 
ATOM     16  C   UNL     1       1.678   3.601   0.007  0.00  0.00    +0.151 C 
ATOM     17  C   UNL     1       3.949   4.758  -0.009  0.00  0.00    +0.129 A 
ATOM     18  C   UNL     1       5.329   4.627  -0.122  0.00  0.00    +0.047 A 
ATOM     19  C   UNL     1       6.115   5.765  -0.128  0.00  0.00    -0.046 A 
ATOM     20  C   UNL     1       5.493   7.000  -0.009  0.00  0.00    +0.023 A 
ATOM     21  C   UNL     1       4.118   7.057   0.106  0.00  0.00    +0.113 A 
ATOM     22  N   UNL     1       3.393   5.955   0.103  0.00  0.00    -0.240 NA
ATOM     23  C   UNL     1       7.614   5.666  -0.254  0.00  0.00    +0.044 C 
ENDROOT
BRANCH  16  24
ATOM     24  C   UNL     1       1.161   4.277   1.250  0.00  0.00    -0.021 A 
ATOM     25  C   UNL     1       1.813   4.098   2.456  0.00  0.00    +0.006 A 
ATOM     26  C   UNL     1       1.342   4.722   3.596  0.00  0.00    +0.001 A 
ATOM     27  C   UNL     1       0.214   5.518   3.533  0.00  0.00    +0.015 A 
ATOM     28  C   UNL     1      -0.442   5.694   2.328  0.00  0.00    +0.018 A 
ATOM     29  C   UNL     1       0.033   5.073   1.186  0.00  0.00    +0.021 A 
ATOM     30 BR   UNL     1      -1.986   6.782   2.241  0.00  0.00    -0.050 Br
ENDBRANCH  16  24
TORSDOF 1
