REMARK  Name = ZINC58476064
REMARK  4 active torsions:
REMARK  status: ('A' for Active; 'I' for Inactive)
REMARK    1  A    between atoms: C_4  and  S_8
REMARK    2  A    between atoms: S_8  and  C_9
REMARK    3  A    between atoms: C_12  and  N_25
REMARK    4  A    between atoms: C_14  and  C_15
REMARK                            x       y       z     vdW  Elec       q    Type
REMARK                         _______ _______ _______ _____ _____    ______ ____
ROOT
ATOM      1  C   UNL     1       5.140   0.461  -0.207  0.00  0.00    +0.025 A 
ATOM      2  C   UNL     1       4.746   1.794  -0.171  0.00  0.00    +0.018 A 
ATOM      3  C   UNL     1       5.687   2.795  -0.288  0.00  0.00    +0.034 A 
ATOM      4  C   UNL     1       7.029   2.484  -0.442  0.00  0.00    +0.127 A 
ATOM      5  C   UNL     1       7.439   1.169  -0.480  0.00  0.00    +0.047 A 
ATOM      6  C   UNL     1       6.500   0.142  -0.357  0.00  0.00    +0.053 A 
ENDROOT
BRANCH   6   7
ATOM      7  C   UNL     1       6.932  -1.266  -0.392  0.00  0.00    +0.250 C 
ATOM      8  O   UNL     1       6.110  -2.157  -0.290  0.00  0.00    -0.270 OA
ATOM      9  N   UNL     1       8.238  -1.567  -0.536  0.00  0.00    -0.266 N 
ATOM     10  C   UNL     1       8.636  -2.895  -0.674  0.00  0.00    +0.125 A 
ATOM     11  C   UNL     1       9.970  -3.191  -0.932  0.00  0.00    +0.045 A 
ATOM     12  C   UNL     1      10.352  -4.514  -1.067  0.00  0.00    +0.025 A 
ATOM     13  C   UNL     1       9.382  -5.500  -0.939  0.00  0.00    +0.059 A 
ATOM     14  C   UNL     1       8.074  -5.133  -0.682  0.00  0.00    +0.132 A 
ATOM     15  N   UNL     1       7.741  -3.863  -0.553  0.00  0.00    -0.239 NA
ATOM     16 CL   UNL     1       9.807  -7.176  -1.100  0.00  0.00    -0.082 Cl
ATOM     17  H   UNL     1       8.900  -0.859  -0.544  0.00  0.00    +0.157 HD
ENDBRANCH   6   7
BRANCH   4  18
ATOM     18  N   UNL     1       8.027   3.570  -0.566  0.00  0.00    +0.056 N 
ATOM     19  O   UNL     1       7.671   4.725  -0.533  0.00  0.00    -0.126 OA
ATOM     20  O   UNL     1       9.198   3.302  -0.700  0.00  0.00    -0.126 OA
ENDBRANCH   4  18
BRANCH   1  21
ATOM     21  S   UNL     1       3.941  -0.822  -0.058  0.00  0.00    -0.086 S 
BRANCH  21  25
ATOM     22  C   UNL     1      -0.018   1.380   0.018  0.00  0.00    +0.003 A 
ATOM     23  C   UNL     1       0.387   0.726  -1.131  0.00  0.00    +0.001 A 
ATOM     24  C   UNL     1       1.593   0.054  -1.157  0.00  0.00    +0.018 A 
ATOM     25  C   UNL     1       2.402   0.035  -0.028  0.00  0.00    +0.048 A 
ATOM     26  C   UNL     1       1.993   0.695   1.127  0.00  0.00    +0.137 A 
ATOM     27  C   UNL     1       0.783   1.365   1.146  0.00  0.00    +0.039 A 
ATOM     28  F   UNL     1       2.775   0.679   2.228  0.00  0.00    -0.204 F 
ENDBRANCH  21  25
ENDBRANCH   1  21
TORSDOF 4
