REMARK  Name = ZINC60160465
REMARK  12 active torsions:
REMARK  status: ('A' for Active; 'I' for Inactive)
REMARK    1  A    between atoms: C_1  and  C_2
REMARK    2  A    between atoms: C_2  and  C_3
REMARK    3  A    between atoms: C_2  and  C_4
REMARK    4  A    between atoms: C_4  and  C_6
REMARK    5  A    between atoms: C_4  and  N_14
REMARK    6  A    between atoms: C_9  and  O_12
REMARK    7  A    between atoms: O_12  and  C_13
REMARK    8  A    between atoms: C_15  and  C_17
REMARK    9  A    between atoms: C_17  and  N_18
REMARK   10  A    between atoms: N_18  and  C_19
REMARK   11  A    between atoms: N_18  and  C_25
REMARK   12  A    between atoms: C_19  and  C_20
REMARK                            x       y       z     vdW  Elec       q    Type
REMARK                         _______ _______ _______ _____ _____    ______ ____
ROOT
ATOM      1  N   UNL     1       1.924   0.146   1.503  0.00  0.00    -0.310 N 
ATOM      2  C   UNL     1       2.209   1.408   1.882  0.00  0.00    +0.197 C 
ATOM      3  O   UNL     1       1.323   2.139   2.270  0.00  0.00    -0.278 OA
ATOM      4  H   UNL     1       2.632  -0.439   1.192  0.00  0.00    +0.149 HD
ENDROOT
BRANCH   1   5
ATOM      5  C   UNL     1       0.543  -0.342   1.560  0.00  0.00    +0.106 C 
BRANCH   5   6
ATOM      6  C   UNL     1       0.546  -1.842   1.695  0.00  0.00    -0.027 A 
ATOM      7  C   UNL     1       1.461  -2.598   0.985  0.00  0.00    +0.009 A 
ATOM      8  C   UNL     1       1.466  -3.974   1.107  0.00  0.00    +0.046 A 
ATOM      9  C   UNL     1       0.550  -4.598   1.942  0.00  0.00    +0.120 A 
ATOM     10  C   UNL     1      -0.367  -3.838   2.654  0.00  0.00    +0.046 A 
ATOM     11  C   UNL     1      -0.363  -2.462   2.532  0.00  0.00    +0.009 A 
BRANCH   9  12
ATOM     12  O   UNL     1       0.552  -5.951   2.063  0.00  0.00    -0.495 OA
ATOM     13  C   UNL     1      -0.418  -6.525   2.941  0.00  0.00    +0.277 C 
ENDBRANCH   9  12
ENDBRANCH   5   6
BRANCH   5  15
ATOM     14  C   UNL     1      -0.193   1.578   0.140  0.00  0.00    +0.009 C 
ATOM     15  C   UNL     1      -0.190   0.054   0.277  0.00  0.00    +0.008 C 
ATOM     16  C   UNL     1       0.520  -0.565  -0.929  0.00  0.00    +0.009 C 
ENDBRANCH   5  15
ENDBRANCH   1   5
BRANCH   2  17
ATOM     17  C   UNL     1       3.629   1.909   1.823  0.00  0.00    +0.019 C 
BRANCH  17  18
ATOM     18  N   UNL     1       3.676   3.303   2.285  0.00  0.00    +0.390 N 
ATOM     19  H   UNL     1       3.030   3.858   1.744  0.00  0.00    -0.080 HD
BRANCH  18  20
ATOM     20  C   UNL     1       3.301   3.361   3.704  0.00  0.00    -0.068 C 
ATOM     21  C   UNL     1       2.032   4.133   4.069  0.00  0.00    -0.017 C 
ATOM     22  C   UNL     1       3.405   4.716   4.407  0.00  0.00    -0.017 C 
ENDBRANCH  18  20
BRANCH  18  23
ATOM     23  C   UNL     1       5.036   3.830   2.116  0.00  0.00    -0.041 C 
BRANCH  23  24
ATOM     24  C   UNL     1       5.375   3.884   0.648  0.00  0.00    -0.057 A 
ATOM     25  C   UNL     1       6.068   2.849   0.049  0.00  0.00    +0.009 A 
ATOM     26  C   UNL     1       6.356   2.930  -1.273  0.00  0.00    +0.045 A 
ATOM     27  S   UNL     1       5.639   4.505  -1.712  0.00  0.00    -0.105 S 
ATOM     28  C   UNL     1       4.999   4.947  -0.105  0.00  0.00    +0.047 A 
ENDBRANCH  23  24
ENDBRANCH  18  23
ENDBRANCH  17  18
ENDBRANCH   2  17
TORSDOF 9
