REMARK  Name = ZINC39696070
REMARK  8 active torsions:
REMARK  status: ('A' for Active; 'I' for Inactive)
REMARK    1  A    between atoms: C_1  and  C_2
REMARK    2  A    between atoms: C_2  and  C_3
REMARK    3  A    between atoms: C_6  and  C_9
REMARK    4  A    between atoms: C_9  and  C_11
REMARK    5  A    between atoms: C_9  and  N_12
REMARK    6  A    between atoms: C_13  and  C_15
REMARK    7  A    between atoms: C_26  and  C_28
REMARK    8  A    between atoms: C_28  and  C_34
REMARK                            x       y       z     vdW  Elec       q    Type
REMARK                         _______ _______ _______ _____ _____    ______ ____
ROOT
ATOM      1  C   UNL     1       1.738  -4.942   6.809  0.00  0.00    +0.100 C 
ATOM      2  C   UNL     1       0.860  -4.287   7.899  0.00  0.00    +0.121 C 
ATOM      3  N   UNL     1       0.854  -5.266   9.012  0.00  0.00    -0.300 N 
ATOM      4  C   UNL     1       2.240  -5.789   9.051  0.00  0.00    +0.115 C 
ATOM      5  C   UNL     1       2.643  -5.926   7.569  0.00  0.00    -0.004 C 
ATOM      6  C   UNL     1       4.109  -5.547   7.384  0.00  0.00    -0.010 C 
ATOM      7  C   UNL     1       4.992  -6.573   8.100  0.00  0.00    -0.082 C 
ATOM      8  N   UNL     1       4.738  -7.910   7.548  0.00  0.00    +0.379 N 
ATOM      9  C   UNL     1       3.349  -8.305   7.813  0.00  0.00    -0.082 C 
ATOM     10  C   UNL     1       2.397  -7.352   7.085  0.00  0.00    -0.010 C 
ATOM     11  C   UNL     1      -0.179  -5.604   9.809  0.00  0.00    +0.222 C 
ATOM     12  O   UNL     1      -0.006  -6.365  10.736  0.00  0.00    -0.275 OA
ATOM     13  H   UNL     1       4.898  -7.897   6.552  0.00  0.00    -0.086 HD
ATOM     14  H   UNL     1       5.363  -8.574   7.979  0.00  0.00    -0.086 HD
ENDROOT
BRANCH  11  15
ATOM     15  C   UNL     1      -1.550  -5.035   9.547  0.00  0.00    +0.044 C 
ATOM     16  C   UNL     1      -1.472  -3.507   9.525  0.00  0.00    +0.016 C 
ATOM     17  C   UNL     1      -0.960  -3.002  10.876  0.00  0.00    +0.001 C 
ATOM     18  C   UNL     1      -1.917  -3.448  11.983  0.00  0.00    +0.000 C 
ATOM     19  C   UNL     1      -1.995  -4.976  12.005  0.00  0.00    +0.001 C 
ATOM     20  C   UNL     1      -2.507  -5.480  10.655  0.00  0.00    +0.016 C 
ATOM     21  C   UNL     1      -2.063  -5.539   8.197  0.00  0.00    +0.021 C 
ENDBRANCH  11  15
BRANCH   1  23
ATOM     22  N   UNL     1       3.080  -4.152   4.887  0.00  0.00    -0.308 N 
ATOM     23  C   UNL     1       2.570  -3.899   6.108  0.00  0.00    +0.219 C 
ATOM     24  O   UNL     1       2.780  -2.831   6.644  0.00  0.00    -0.275 OA
ATOM     25  H   UNL     1       2.911  -5.006   4.459  0.00  0.00    +0.149 HD
BRANCH  22  26
ATOM     26  C   UNL     1       3.888  -3.138   4.206  0.00  0.00    +0.100 C 
ATOM     27  C   UNL     1       2.968  -2.170   3.459  0.00  0.00    +0.033 C 
BRANCH  26  31
ATOM     28  C   UNL     1       6.511  -5.043   1.424  0.00  0.00    -0.048 A 
ATOM     29  C   UNL     1       6.962  -3.976   2.180  0.00  0.00    +0.004 A 
ATOM     30  C   UNL     1       6.112  -3.360   3.080  0.00  0.00    +0.006 A 
ATOM     31  C   UNL     1       4.813  -3.809   3.224  0.00  0.00    -0.027 A 
ATOM     32  C   UNL     1       4.363  -4.875   2.467  0.00  0.00    +0.006 A 
ATOM     33  C   UNL     1       5.210  -5.489   1.564  0.00  0.00    +0.004 A 
BRANCH  28  35
ATOM     34  C   UNL     1       7.325  -5.025  -0.919  0.00  0.00    +0.009 C 
ATOM     35  C   UNL     1       7.437  -5.715   0.443  0.00  0.00    +0.032 C 
ENDBRANCH  28  35
ENDBRANCH  26  31
ENDBRANCH  22  26
ENDBRANCH   1  23
TORSDOF 5
