REMARK  Name = ZINC03477067
REMARK  10 active torsions:
REMARK  status: ('A' for Active; 'I' for Inactive)
REMARK    1  A    between atoms: C_1  and  C_2
REMARK    2  A    between atoms: C_3  and  N_9
REMARK    3  A    between atoms: C_10  and  C_30
REMARK    4  A    between atoms: C_13  and  S_14
REMARK    5  A    between atoms: S_14  and  C_15
REMARK    6  A    between atoms: C_15  and  C_17
REMARK    7  A    between atoms: C_15  and  C_18
REMARK    8  A    between atoms: N_20  and  C_21
REMARK    9  A    between atoms: C_24  and  C_27
REMARK   10  A    between atoms: C_27  and  C_29
REMARK                            x       y       z     vdW  Elec       q    Type
REMARK                         _______ _______ _______ _____ _____    ______ ____
ROOT
ATOM      1  N   UNL     1       3.845   1.672   0.062  0.00  0.00    -0.270 N 
ATOM      2  C   UNL     1       4.467   2.172  -1.061  0.00  0.00    +0.169 A 
ATOM      3  N   UNL     1       5.431   2.962  -0.647  0.00  0.00    -0.128 NA
ATOM      4  N   UNL     1       5.455   2.991   0.638  0.00  0.00    -0.122 NA
ATOM      5  C   UNL     1       4.503   2.225   1.125  0.00  0.00    +0.197 A 
ENDROOT
BRANCH   1   8
ATOM      6  C   UNL     1       1.216   2.764   0.088  0.00  0.00    +0.047 C 
ATOM      7  C   UNL     1       1.461   1.277   0.120  0.00  0.00    -0.008 A 
ATOM      8  C   UNL     1       2.759   0.786   0.106  0.00  0.00    +0.055 A 
ATOM      9  C   UNL     1       2.981  -0.584   0.134  0.00  0.00    +0.026 A 
ATOM     10  C   UNL     1       1.909  -1.455   0.177  0.00  0.00    +0.003 A 
ATOM     11  C   UNL     1       0.617  -0.964   0.191  0.00  0.00    +0.020 A 
ATOM     12  C   UNL     1       0.393   0.401   0.163  0.00  0.00    +0.046 A 
ATOM     13 CL   UNL     1      -1.232   1.014   0.173  0.00  0.00    -0.083 Cl
ENDBRANCH   1   8
BRANCH   2  14
ATOM     14  C   UNL     1       4.117   1.875  -2.465  0.00  0.00    +0.022 A 
ATOM     15  C   UNL     1       3.293   0.790  -2.787  0.00  0.00    +0.031 A 
ATOM     16  C   UNL     1       2.988   0.552  -4.111  0.00  0.00    +0.111 A 
ATOM     17  N   UNL     1       3.470   1.324  -5.067  0.00  0.00    -0.263 NA
ATOM     18  C   UNL     1       4.254   2.354  -4.807  0.00  0.00    +0.111 A 
ATOM     19  C   UNL     1       4.606   2.667  -3.512  0.00  0.00    +0.031 A 
ENDBRANCH   2  14
BRANCH   5  20
ATOM     20  S   UNL     1       4.146   1.959   2.830  0.00  0.00    -0.073 S 
BRANCH  20  21
ATOM     21  C   UNL     1       5.414   3.006   3.584  0.00  0.00    +0.137 C 
ATOM     22  C   UNL     1       6.800   2.445   3.258  0.00  0.00    +0.029 C 
BRANCH  21  23
ATOM     23  C   UNL     1       5.222   3.031   5.079  0.00  0.00    +0.230 C 
ATOM     24  O   UNL     1       4.661   2.110   5.633  0.00  0.00    -0.274 OA
ATOM     25  N   UNL     1       5.673   4.077   5.799  0.00  0.00    -0.285 N 
ATOM     26  H   UNL     1       6.189   4.776   5.368  0.00  0.00    +0.155 HD
BRANCH  25  27
ATOM     27  C   UNL     1       5.400   4.153   7.163  0.00  0.00    +0.033 A 
ATOM     28  C   UNL     1       6.332   4.721   8.027  0.00  0.00    +0.024 A 
ATOM     29  C   UNL     1       6.065   4.803   9.369  0.00  0.00    +0.013 A 
ATOM     30  C   UNL     1       4.856   4.304   9.872  0.00  0.00    +0.017 A 
ATOM     31  C   UNL     1       3.924   3.728   9.000  0.00  0.00    +0.013 A 
ATOM     32  C   UNL     1       4.197   3.656   7.659  0.00  0.00    +0.024 A 
BRANCH  30  33
ATOM     33  C   UNL     1       4.568   4.384  11.310  0.00  0.00    +0.160 C 
ATOM     34  O   UNL     1       3.521   3.952  11.743  0.00  0.00    -0.292 OA
ATOM     35  C   UNL     1       5.573   5.004  12.247  0.00  0.00    +0.091 C 
ENDBRANCH  30  33
ENDBRANCH  25  27
ENDBRANCH  21  23
ENDBRANCH  20  21
ENDBRANCH   5  20
TORSDOF 7
