REMARK  Name = ZINC45119200
REMARK  6 active torsions:
REMARK  status: ('A' for Active; 'I' for Inactive)
REMARK    1  A    between atoms: C_1  and  C_2
REMARK    2  A    between atoms: C_2  and  C_4
REMARK    3  A    between atoms: C_2  and  N_6
REMARK    4  A    between atoms: N_6  and  C_7
REMARK    5  A    between atoms: C_10  and  C_11
REMARK    6  A    between atoms: C_10  and  C_12
REMARK                            x       y       z     vdW  Elec       q    Type
REMARK                         _______ _______ _______ _____ _____    ______ ____
ROOT
ATOM      1  N   UNL     1       0.713  -0.491   1.192  0.00  0.00    -0.298 NA
ATOM      2  H   UNL     1       0.492   0.072   2.000  0.00  0.00    +0.123 HD
ENDROOT
BRANCH   1   3
ATOM      3  C   UNL     1       2.162  -0.532   0.959  0.00  0.00    +0.061 C 
ATOM      4  C   UNL     1       3.072  -0.009   2.072  0.00  0.00    +0.027 C 
ATOM      5  C   UNL     1       2.985  -1.512   1.799  0.00  0.00    -0.018 C 
ATOM      6  C   UNL     1       2.234  -2.374   2.816  0.00  0.00    +0.012 C 
ATOM      7  C   UNL     1       4.188  -2.180   1.129  0.00  0.00    +0.012 C 
ENDBRANCH   1   3
BRANCH   1   9
ATOM      8  C   UNL     1      -0.019   1.526   0.010  0.00  0.00    +0.040 C 
ATOM      9  C   UNL     1       0.002  -0.004   0.002  0.00  0.00    +0.155 C 
BRANCH   9  10
ATOM     10  C   UNL     1      -1.379  -0.514   0.013  0.00  0.00    +0.081 C 
ATOM     11  N   UNL     1      -2.445  -0.907   0.021  0.00  0.00    -0.195 NA
ENDBRANCH   9  10
ENDBRANCH   1   9
TORSDOF 3
