REMARK  Name = ZINC20993740
REMARK  6 active torsions:
REMARK  status: ('A' for Active; 'I' for Inactive)
REMARK    1  A    between atoms: C_3  and  C_13
REMARK    2  A    between atoms: C_5  and  C_6
REMARK    3  A    between atoms: C_6  and  N_7
REMARK    4  A    between atoms: C_13  and  N_14
REMARK    5  A    between atoms: C_17  and  N_23
REMARK    6  A    between atoms: C_19  and  O_22
REMARK                            x       y       z     vdW  Elec       q    Type
REMARK                         _______ _______ _______ _____ _____    ______ ____
ROOT
ATOM      1  N   UNL     1       3.012   1.115  -1.406  0.00  0.00    +0.384 N 
ATOM      2  C   UNL     1       3.099   2.416  -2.082  0.00  0.00    -0.077 C 
ATOM      3  C   UNL     1       3.704   2.230  -3.475  0.00  0.00    +0.003 C 
ATOM      4  C   UNL     1       2.826   1.271  -4.284  0.00  0.00    +0.082 C 
ATOM      5  C   UNL     1       2.712  -0.059  -3.535  0.00  0.00    +0.115 C 
ATOM      6  C   UNL     1       2.136   0.193  -2.140  0.00  0.00    -0.045 C 
ATOM      7  H   UNL     1       4.021   0.677  -1.391  0.00  0.00    -0.081 HD
ENDROOT
BRANCH   4   8
ATOM      8  N   UNL     1       3.433   1.043  -5.602  0.00  0.00    -0.293 NA
ATOM      9  C   UNL     1       4.787   0.485  -5.469  0.00  0.00    +0.113 C 
ATOM     10  C   UNL     1       5.358   0.207  -6.862  0.00  0.00    +0.175 C 
ATOM     11  O   UNL     1       5.343   1.416  -7.627  0.00  0.00    -0.377 OA
ATOM     12  C   UNL     1       4.041   1.987  -7.777  0.00  0.00    +0.175 C 
ATOM     13  C   UNL     1       3.456   2.282  -6.393  0.00  0.00    +0.113 C 
ENDBRANCH   4   8
BRANCH   5  14
ATOM     14  O   UNL     1       1.849  -0.940  -4.256  0.00  0.00    -0.392 OA
ATOM     15  H   UNL     1       1.645  -1.950  -3.870  0.00  0.00    +0.210 HD
ENDBRANCH   5  14
BRANCH   1  16
ATOM     16  C   UNL     1       2.565   1.272  -0.016  0.00  0.00    -0.036 C 
BRANCH  16  19
ATOM     17  C   UNL     1      -1.213   1.761   0.017  0.00  0.00    +0.009 A 
ATOM     18  C   UNL     1      -0.013   1.076   0.008  0.00  0.00    +0.009 A 
ATOM     19  C   UNL     1       1.146   1.780   0.001  0.00  0.00    -0.027 A 
ATOM     20  S   UNL     1       0.555   3.464   0.015  0.00  0.00    -0.102 S 
ATOM     21  C   UNL     1      -1.196   3.116   0.030  0.00  0.00    -0.027 A 
BRANCH  21  22
ATOM     22  C   UNL     1      -2.355   4.080   0.047  0.00  0.00    -0.036 C 
BRANCH  22  23
ATOM     23  N   UNL     1      -2.718   4.385   1.438  0.00  0.00    +0.383 N 
ATOM     24  C   UNL     1      -3.237   3.193   2.120  0.00  0.00    -0.078 C 
ATOM     25  C   UNL     1      -3.467   3.510   3.599  0.00  0.00    -0.019 C 
ATOM     26  C   UNL     1      -4.464   4.665   3.720  0.00  0.00    -0.004 C 
ATOM     27  C   UNL     1      -3.921   5.879   2.961  0.00  0.00    -0.019 C 
ATOM     28  C   UNL     1      -3.679   5.494   1.500  0.00  0.00    -0.078 C 
ATOM     29  H   UNL     1      -1.806   4.702   1.965  0.00  0.00    -0.081 HD
ENDBRANCH  22  23
ENDBRANCH  21  22
ENDBRANCH  16  19
ENDBRANCH   1  16
TORSDOF 6
