REMARK  Name = ZINC63865125
REMARK  8 active torsions:
REMARK  status: ('A' for Active; 'I' for Inactive)
REMARK    1  A    between atoms: C_1  and  C_2
REMARK    2  A    between atoms: C_10  and  C_11
REMARK    3  A    between atoms: N_13  and  N_14
REMARK    4  A    between atoms: N_14  and  C_15
REMARK    5  A    between atoms: C_16  and  C_23
REMARK    6  A    between atoms: C_18  and  C_20
REMARK    7  A    between atoms: C_20  and  C_21
REMARK    8  A    between atoms: C_20  and  C_22
REMARK                            x       y       z     vdW  Elec       q    Type
REMARK                         _______ _______ _______ _____ _____    ______ ____
ROOT
ATOM      1  C   UNL     1       0.032  -0.382   2.484  0.00  0.00    +0.296 C 
ATOM      2  O   UNL     1       0.018   0.806   2.745  0.00  0.00    -0.265 OA
ATOM      3  N   UNL     1       0.054  -1.291   3.479  0.00  0.00    -0.228 N 
ATOM      4  H   UNL     1       0.065  -2.238   3.270  0.00  0.00    +0.173 HD
ENDROOT
BRANCH   1  14
ATOM      5  C   UNL     1      -0.018   1.503   0.010  0.00  0.00    +0.048 C 
ATOM      6  C   UNL     1       0.002  -0.004   0.002  0.00  0.00    +0.008 A 
ATOM      7  C   UNL     1       0.009  -0.877  -1.171  0.00  0.00    +0.027 A 
ATOM      8  C   UNL     1      -0.000  -0.653  -2.551  0.00  0.00    +0.050 A 
ATOM      9  C   UNL     1       0.010  -1.727  -3.414  0.00  0.00    +0.124 A 
ATOM     10  C   UNL     1       0.030  -3.025  -2.917  0.00  0.00    +0.042 A 
ATOM     11  C   UNL     1       0.039  -3.259  -1.559  0.00  0.00    +0.050 A 
ATOM     12  C   UNL     1       0.029  -2.191  -0.669  0.00  0.00    +0.136 A 
ATOM     13  O   UNL     1       0.034  -2.113   0.676  0.00  0.00    -0.450 OA
ATOM     14  C   UNL     1       0.024  -0.826   1.083  0.00  0.00    +0.195 A 
ATOM     15  F   UNL     1       0.002  -1.517  -4.749  0.00  0.00    -0.205 F 
ENDBRANCH   1  14
BRANCH   3  16
ATOM     16  N   UNL     1       0.061  -0.867   4.814  0.00  0.00    -0.232 N 
ATOM     17  H   UNL     1       0.051   0.080   5.022  0.00  0.00    +0.173 HD
BRANCH  16  18
ATOM     18  C   UNL     1       0.084  -1.797   5.832  0.00  0.00    +0.241 A 
ATOM     19  C   UNL     1       0.089  -1.536   7.192  0.00  0.00    +0.202 A 
ATOM     20  N   UNL     1       0.113  -2.744   7.824  0.00  0.00    -0.200 NA
ATOM     21  C   UNL     1       0.123  -3.682   6.926  0.00  0.00    +0.202 A 
ATOM     22  O   UNL     1       0.101  -3.136   5.699  0.00  0.00    -0.423 OA
BRANCH  21  23
ATOM     23  C   UNL     1       0.150  -5.160   7.218  0.00  0.00    +0.069 C 
ATOM     24  C   UNL     1       1.410  -5.499   8.016  0.00  0.00    +0.017 C 
ATOM     25  C   UNL     1      -1.088  -5.542   8.031  0.00  0.00    +0.017 C 
ENDBRANCH  21  23
BRANCH  19  26
ATOM     26  C   UNL     1       0.071  -0.247   7.815  0.00  0.00    +0.124 C 
ATOM     27  N   UNL     1       0.058   0.776   8.309  0.00  0.00    -0.189 NA
ENDBRANCH  19  26
ENDBRANCH  16  18
ENDBRANCH   3  16
TORSDOF 5
