REMARK  Name = ZINC13590077
REMARK  7 active torsions:
REMARK  status: ('A' for Active; 'I' for Inactive)
REMARK    1  A    between atoms: C_1  and  C_2
REMARK    2  A    between atoms: C_3  and  N_15
REMARK    3  A    between atoms: N_6  and  C_9
REMARK    4  A    between atoms: N_7  and  C_8
REMARK    5  A    between atoms: C_16  and  C_18
REMARK    6  A    between atoms: C_18  and  N_19
REMARK    7  A    between atoms: C_23  and  C_24
REMARK                            x       y       z     vdW  Elec       q    Type
REMARK                         _______ _______ _______ _____ _____    ______ ____
ROOT
ATOM      1  N   UNL     1       8.001   3.703  -1.384  0.00  0.00    -0.278 N 
ATOM      2  C   UNL     1       6.692   3.872  -1.107  0.00  0.00    +0.235 C 
ATOM      3  O   UNL     1       5.899   4.044  -2.009  0.00  0.00    -0.274 OA
ATOM      4  H   UNL     1       8.623   3.490  -0.672  0.00  0.00    +0.155 HD
ENDROOT
BRANCH   1   7
ATOM      5  C   UNL     1      10.190   5.656  -2.283  0.00  0.00    +0.067 C 
ATOM      6  C   UNL     1       9.423   4.683  -3.142  0.00  0.00    +0.059 A 
ATOM      7  C   UNL     1       8.463   3.836  -2.709  0.00  0.00    +0.121 A 
ATOM      8  C   UNL     1       7.998   3.078  -3.871  0.00  0.00    +0.293 A 
ATOM      9  O   UNL     1       7.140   2.214  -3.877  0.00  0.00    -0.264 OA
ATOM     10  N   UNL     1       8.699   3.521  -4.935  0.00  0.00    -0.216 N 
ATOM     11  N   UNL     1       9.584   4.510  -4.491  0.00  0.00    -0.282 N 
ATOM     12  C   UNL     1      10.531   5.243  -5.335  0.00  0.00    +0.171 C 
BRANCH  10  13
ATOM     13  C   UNL     1       8.568   3.067  -6.251  0.00  0.00    +0.067 A 
ATOM     14  C   UNL     1       8.443   3.978  -7.292  0.00  0.00    +0.028 A 
ATOM     15  C   UNL     1       8.320   3.526  -8.592  0.00  0.00    +0.002 A 
ATOM     16  C   UNL     1       8.310   2.169  -8.856  0.00  0.00    +0.000 A 
ATOM     17  C   UNL     1       8.429   1.259  -7.821  0.00  0.00    +0.002 A 
ATOM     18  C   UNL     1       8.558   1.704  -6.520  0.00  0.00    +0.028 A 
ENDBRANCH  10  13
ENDBRANCH   1   7
BRANCH   2  19
ATOM     19  C   UNL     1       6.216   3.848   0.322  0.00  0.00    +0.213 C 
BRANCH  19  20
ATOM     20  N   UNL     1       4.766   4.053   0.357  0.00  0.00    -0.219 N 
ATOM     21  C   UNL     1       3.963   3.004   0.298  0.00  0.00    +0.261 C 
ATOM     22  O   UNL     1       4.397   1.870   0.216  0.00  0.00    -0.269 OA
ATOM     23  C   UNL     1       2.511   3.278   0.337  0.00  0.00    +0.080 C 
ATOM     24  C   UNL     1       1.467   2.415   0.295  0.00  0.00    +0.028 C 
ATOM     25  S   UNL     1       2.511   5.063   0.449  0.00  0.00    -0.026 S 
ATOM     26  C   UNL     1       4.280   5.308   0.448  0.00  0.00    +0.286 C 
ATOM     27  O   UNL     1       4.897   6.354   0.509  0.00  0.00    -0.262 OA
BRANCH  24  28
ATOM     28  C   UNL     1       1.706   0.967   0.372  0.00  0.00    -0.024 A 
ATOM     29  C   UNL     1       2.722   0.465   1.194  0.00  0.00    +0.009 A 
ATOM     30  C   UNL     1       2.940  -0.894   1.262  0.00  0.00    +0.020 A 
ATOM     31  C   UNL     1       2.158  -1.763   0.519  0.00  0.00    +0.041 A 
ATOM     32  C   UNL     1       1.151  -1.274  -0.298  0.00  0.00    +0.020 A 
ATOM     33  C   UNL     1       0.920   0.083  -0.376  0.00  0.00    +0.009 A 
ATOM     34 CL   UNL     1       2.441  -3.473   0.610  0.00  0.00    -0.084 Cl
ENDBRANCH  24  28
ENDBRANCH  19  20
ENDBRANCH   2  19
TORSDOF 5
