REMARK  Name = ZINC18224252
REMARK  8 active torsions:
REMARK  status: ('A' for Active; 'I' for Inactive)
REMARK    1  A    between atoms: C_1  and  C_2
REMARK    2  A    between atoms: C_2  and  O_3
REMARK    3  A    between atoms: O_3  and  C_4
REMARK    4  A    between atoms: C_4  and  C_6
REMARK    5  A    between atoms: C_7  and  C_19
REMARK    6  A    between atoms: C_12  and  C_14
REMARK    7  A    between atoms: C_19  and  O_20
REMARK    8  A    between atoms: O_20  and  C_21
REMARK                            x       y       z     vdW  Elec       q    Type
REMARK                         _______ _______ _______ _____ _____    ______ ____
ROOT
ATOM      1  C   UNL     1       5.495   4.131   1.079  0.00  0.00    +0.084 C 
ATOM      2  C   UNL     1       4.709   4.047  -0.017  0.00  0.00    +0.061 C 
ATOM      3  N   UNL     1       4.977   4.784  -1.135  0.00  0.00    -0.269 N 
ATOM      4  C   UNL     1       6.005   5.636  -1.234  0.00  0.00    +0.305 C 
ATOM      5  O   UNL     1       6.159   6.253  -2.269  0.00  0.00    -0.252 OA
ATOM      6  N   UNL     1       6.876   5.829  -0.224  0.00  0.00    -0.285 N 
ATOM      7  C   UNL     1       6.679   5.075   1.026  0.00  0.00    +0.179 C 
ATOM      8  H   UNL     1       4.387   4.688  -1.899  0.00  0.00    +0.156 HD
ATOM      9  H   UNL     1       7.616   6.449  -0.318  0.00  0.00    +0.151 HD
ENDROOT
BRANCH   7  10
ATOM     10  C   UNL     1       6.530   6.069   2.149  0.00  0.00    +0.130 A 
ATOM     11  C   UNL     1       7.165   6.018   3.334  0.00  0.00    +0.047 A 
ATOM     12  C   UNL     1       6.734   7.140   4.078  0.00  0.00    +0.041 A 
ATOM     13  C   UNL     1       5.861   7.810   3.304  0.00  0.00    +0.195 A 
ATOM     14  O   UNL     1       5.746   7.160   2.134  0.00  0.00    -0.466 OA
ENDBRANCH   7  10
BRANCH   1  15
ATOM     15  C   UNL     1       5.221   3.365   2.235  0.00  0.00    +0.339 C 
ATOM     16  O   UNL     1       4.326   2.541   2.222  0.00  0.00    -0.245 OA
BRANCH  15  17
ATOM     17  O   UNL     1       5.954   3.547   3.354  0.00  0.00    -0.462 OA
BRANCH  17  19
ATOM     18  C   UNL     1       6.554   3.084   5.649  0.00  0.00    +0.048 C 
ATOM     19  C   UNL     1       5.623   2.738   4.485  0.00  0.00    +0.229 C 
ENDBRANCH  17  19
ENDBRANCH  15  17
ENDBRANCH   1  15
BRANCH   2  20
ATOM     20  C   UNL     1       3.521   3.119  -0.007  0.00  0.00    +0.280 C 
BRANCH  20  21
ATOM     21  O   UNL     1       2.795   3.263  -1.230  0.00  0.00    -0.485 OA
BRANCH  21  22
ATOM     22  C   UNL     1       1.687   2.491  -1.383  0.00  0.00    +0.139 A 
ATOM     23  C   UNL     1       1.306   1.614  -0.378  0.00  0.00    +0.048 A 
ATOM     24  C   UNL     1       0.179   0.831  -0.535  0.00  0.00    +0.019 A 
ATOM     25  C   UNL     1      -0.568   0.917  -1.697  0.00  0.00    +0.019 A 
ATOM     26  C   UNL     1      -0.194   1.794  -2.699  0.00  0.00    +0.039 A 
ATOM     27  C   UNL     1       0.934   2.579  -2.546  0.00  0.00    +0.084 A 
ATOM     28 CL   UNL     1       1.407   3.675  -3.806  0.00  0.00    -0.080 Cl
ATOM     29 BR   UNL     1      -2.106  -0.162  -1.912  0.00  0.00    -0.050 Br
ENDBRANCH  21  22
ENDBRANCH  20  21
ENDBRANCH   2  20
TORSDOF 7
