REMARK  Name = ZINC40404054
REMARK  12 active torsions:
REMARK  status: ('A' for Active; 'I' for Inactive)
REMARK    1  A    between atoms: C_4  and  C_7
REMARK    2  A    between atoms: C_7  and  O_8
REMARK    3  A    between atoms: O_8  and  C_9
REMARK    4  A    between atoms: C_9  and  C_10
REMARK    5  A    between atoms: C_10  and  C_12
REMARK    6  A    between atoms: C_10  and  O_37
REMARK    7  A    between atoms: C_12  and  N_13
REMARK    8  A    between atoms: N_13  and  C_14
REMARK    9  A    between atoms: N_13  and  C_22
REMARK   10  A    between atoms: C_14  and  C_15
REMARK   11  A    between atoms: C_22  and  C_23
REMARK   12  A    between atoms: C_26  and  C_29
REMARK                            x       y       z     vdW  Elec       q    Type
REMARK                         _______ _______ _______ _____ _____    ______ ____
ROOT
ATOM      1  N   UNL     1       7.326  -2.756   4.594  0.00  0.00    +0.387 N 
ATOM      2  H   UNL     1       6.713  -3.319   5.165  0.00  0.00    -0.081 HD
ENDROOT
BRANCH   1   3
ATOM      3  C   UNL     1       6.928  -2.875   3.184  0.00  0.00    -0.044 C 
BRANCH   3   4
ATOM      4  C   UNL     1       6.842  -4.353   2.801  0.00  0.00    +0.124 C 
BRANCH   4   5
ATOM      5  O   UNL     1       8.152  -4.923   2.802  0.00  0.00    -0.391 OA
ATOM      6  H   UNL     1       8.764  -4.503   2.182  0.00  0.00    +0.210 HD
ENDBRANCH   4   5
BRANCH   4   7
ATOM      7  C   UNL     1       6.229  -4.484   1.405  0.00  0.00    +0.189 C 
BRANCH   7   8
ATOM      8  O   UNL     1       6.041  -5.866   1.095  0.00  0.00    -0.373 OA
BRANCH   8   9
ATOM      9  C   UNL     1       5.471  -6.100  -0.194  0.00  0.00    +0.195 C 
BRANCH   9  13
ATOM     10  C   UNL     1       5.036 -10.303  -0.821  0.00  0.00    +0.000 A 
ATOM     11  C   UNL     1       4.010  -9.580  -0.241  0.00  0.00    +0.000 A 
ATOM     12  C   UNL     1       4.150  -8.220  -0.038  0.00  0.00    +0.006 A 
ATOM     13  C   UNL     1       5.318  -7.582  -0.414  0.00  0.00    -0.022 A 
ATOM     14  C   UNL     1       6.344  -8.305  -0.993  0.00  0.00    +0.006 A 
ATOM     15  C   UNL     1       6.203  -9.665  -1.197  0.00  0.00    +0.000 A 
ENDBRANCH   9  13
ENDBRANCH   8   9
ENDBRANCH   7   8
ENDBRANCH   4   7
ENDBRANCH   3   4
ENDBRANCH   1   3
BRANCH   1  16
ATOM     16  C   UNL     1       7.232  -1.351   5.012  0.00  0.00    -0.040 C 
BRANCH  16  17
ATOM     17  C   UNL     1       5.792  -0.910   4.973  0.00  0.00    -0.029 A 
ATOM     18  C   UNL     1       5.337  -0.124   3.932  0.00  0.00    +0.004 A 
ATOM     19  C   UNL     1       4.016   0.280   3.896  0.00  0.00    +0.000 A 
ATOM     20  C   UNL     1       3.148  -0.101   4.902  0.00  0.00    +0.003 A 
ATOM     21  C   UNL     1       3.600  -0.887   5.944  0.00  0.00    +0.038 A 
ATOM     22  C   UNL     1       4.922  -1.297   5.979  0.00  0.00    +0.125 A 
ATOM     23  F   UNL     1       5.364  -2.070   6.995  0.00  0.00    -0.205 F 
ENDBRANCH  16  17
ENDBRANCH   1  16
BRANCH   1  24
ATOM     24  C   UNL     1       8.710  -3.224   4.753  0.00  0.00    -0.030 C 
BRANCH  24  25
ATOM     25  C   UNL     1       9.103  -3.160   6.230  0.00  0.00    +0.194 C 
ATOM     26  C   UNL     1      10.572  -3.600   6.432  0.00  0.00    +0.104 C 
ATOM     27  C   UNL     1      10.509  -4.370   7.737  0.00  0.00    +0.091 C 
ATOM     28  N   UNL     1       9.272  -4.639   7.990  0.00  0.00    -0.089 NA
ATOM     29  O   UNL     1       8.390  -4.152   6.997  0.00  0.00    -0.392 OA
BRANCH  27  30
ATOM     30  C   UNL     1      11.665  -4.748   8.575  0.00  0.00    +0.001 A 
ATOM     31  C   UNL     1      12.958  -4.390   8.188  0.00  0.00    +0.011 A 
ATOM     32  C   UNL     1      14.033  -4.745   8.975  0.00  0.00    +0.022 A 
ATOM     33  C   UNL     1      13.834  -5.456  10.146  0.00  0.00    +0.059 A 
ATOM     34  C   UNL     1      12.553  -5.815  10.536  0.00  0.00    +0.060 A 
ATOM     35  C   UNL     1      11.468  -5.460   9.760  0.00  0.00    +0.031 A 
ATOM     36 CL   UNL     1      12.312  -6.706  12.006  0.00  0.00    -0.082 Cl
ATOM     37 CL   UNL     1      15.193  -5.900  11.131  0.00  0.00    -0.082 Cl
ENDBRANCH  27  30
ENDBRANCH  24  25
ENDBRANCH   1  24
TORSDOF 12
