REMARK  Name = ZINC33270843
REMARK  10 active torsions:
REMARK  status: ('A' for Active; 'I' for Inactive)
REMARK    1  A    between atoms: C_1  and  C_2
REMARK    2  A    between atoms: C_5  and  N_9
REMARK    3  A    between atoms: C_6  and  C_8
REMARK    4  A    between atoms: C_10  and  C_12
REMARK    5  A    between atoms: C_12  and  C_13
REMARK    6  A    between atoms: C_13  and  C_14
REMARK    7  A    between atoms: C_16  and  C_19
REMARK    8  A    between atoms: C_19  and  S_20
REMARK    9  A    between atoms: S_20  and  C_21
REMARK   10  A    between atoms: C_24  and  C_27
REMARK                            x       y       z     vdW  Elec       q    Type
REMARK                         _______ _______ _______ _____ _____    ______ ____
ROOT
ATOM      1  C   UNL     1      -2.065   1.768  -2.863  0.00  0.00    +0.228 A 
ATOM      2  N   UNL     1      -1.725   0.986  -1.867  0.00  0.00    -0.195 NA
ATOM      3  C   UNL     1      -0.730   1.626  -1.228  0.00  0.00    +0.182 A 
ATOM      4  N   UNL     1      -0.515   2.740  -1.860  0.00  0.00    -0.060 NA
ATOM      5  O   UNL     1      -1.271   2.841  -2.803  0.00  0.00    -0.338 OA
ENDROOT
BRANCH   1   6
ATOM      6  C   UNL     1      -3.142   1.504  -3.884  0.00  0.00    +0.108 C 
BRANCH   6   7
ATOM      7  C   UNL     1      -4.469   2.080  -3.386  0.00  0.00    +0.105 C 
BRANCH   7   9
ATOM      8  N   UNL     1      -6.806   2.236  -4.181  0.00  0.00    -0.285 N 
ATOM      9  C   UNL     1      -5.546   1.816  -4.407  0.00  0.00    +0.218 C 
ATOM     10  O   UNL     1      -5.278   1.226  -5.432  0.00  0.00    -0.275 OA
ATOM     11  H   UNL     1      -7.070   2.689  -3.214  0.00  0.00    +0.155 HD
BRANCH   8  16
ATOM     12  C   UNL     1     -10.754   1.664  -8.215  0.00  0.00    +0.044 C 
ATOM     13  C   UNL     1      -9.705   1.816  -7.143  0.00  0.00    -0.050 A 
ATOM     14  C   UNL     1      -8.368   1.886  -7.491  0.00  0.00    +0.005 A 
ATOM     15  C   UNL     1      -7.405   2.025  -6.511  0.00  0.00    +0.024 A 
ATOM     16  C   UNL     1      -7.780   2.095  -5.176  0.00  0.00    +0.036 A 
ATOM     17  C   UNL     1      -9.123   2.019  -4.830  0.00  0.00    -0.029 A 
ATOM     18  C   UNL     1     -10.082   1.885  -5.815  0.00  0.00    +0.008 A 
ATOM     19  C   UNL     1      -9.533   2.087  -3.381  0.00  0.00    +0.045 C 
ENDBRANCH   8  16
ENDBRANCH   7   9
ENDBRANCH   6   7
ENDBRANCH   1   6
BRANCH   3  20
ATOM     20  C   UNL     1       0.004   1.137  -0.006  0.00  0.00    +0.157 C 
BRANCH  20  21
ATOM     21  S   UNL     1      -0.840   1.728   1.482  0.00  0.00    -0.079 S 
BRANCH  21  22
ATOM     22  C   UNL     1       0.200   1.031   2.721  0.00  0.00    +0.185 A 
ATOM     23  N   UNL     1       0.046   1.156   4.073  0.00  0.00    -0.201 NA
ATOM     24  H   UNL     1       1.732  -0.034   1.575  0.00  0.00    +0.191 HD
ATOM     25  C   UNL     1       1.085   0.447   4.632  0.00  0.00    +0.182 A 
ATOM     26  N   UNL     1       1.787  -0.053   3.642  0.00  0.00    -0.152 NA
ATOM     27  N   UNL     1       1.269   0.293   2.518  0.00  0.00    -0.253 N 
BRANCH  25  28
ATOM     28  C   UNL     1       1.358   0.280   6.075  0.00  0.00    +0.021 A 
ATOM     29  C   UNL     1       0.517   0.870   7.020  0.00  0.00    +0.013 A 
ATOM     30  C   UNL     1       0.774   0.707   8.366  0.00  0.00    +0.021 A 
ATOM     31  C   UNL     1       1.870  -0.032   8.779  0.00  0.00    +0.041 A 
ATOM     32  C   UNL     1       2.711  -0.615   7.846  0.00  0.00    +0.021 A 
ATOM     33  C   UNL     1       2.461  -0.463   6.498  0.00  0.00    +0.013 A 
ATOM     34 CL   UNL     1       2.192  -0.227  10.474  0.00  0.00    -0.084 Cl
ENDBRANCH  25  28
ENDBRANCH  21  22
ENDBRANCH  20  21
ENDBRANCH   3  20
TORSDOF 8
