REMARK  Name = ZINC38684712
REMARK  16 active torsions:
REMARK  status: ('A' for Active; 'I' for Inactive)
REMARK    1  A    between atoms: C_1  and  C_2
REMARK    2  A    between atoms: C_2  and  C_3
REMARK    3  A    between atoms: C_6  and  O_9
REMARK    4  A    between atoms: O_9  and  C_10
REMARK    5  A    between atoms: C_10  and  C_11
REMARK    6  A    between atoms: C_11  and  O_13
REMARK    7  A    between atoms: O_13  and  C_14
REMARK    8  A    between atoms: C_21  and  N_39
REMARK    9  A    between atoms: C_22  and  C_37
REMARK   10  A    between atoms: C_23  and  C_25
REMARK   11  A    between atoms: C_29  and  O_31
REMARK   12  A    between atoms: O_31  and  C_32
REMARK   13  A    between atoms: C_32  and  C_33
REMARK   14  A    between atoms: C_33  and  C_34
REMARK   15  A    between atoms: C_34  and  C_35
REMARK   16  A    between atoms: C_34  and  C_36
REMARK                            x       y       z     vdW  Elec       q    Type
REMARK                         _______ _______ _______ _____ _____    ______ ____
ROOT
ATOM      1  C   UNL     1       6.404  -3.238  -7.177  0.00  0.00    +0.135 A 
ATOM      2  C   UNL     1       5.587  -3.391  -8.289  0.00  0.00    +0.047 A 
ATOM      3  C   UNL     1       6.114  -3.868  -9.472  0.00  0.00    +0.012 A 
ATOM      4  C   UNL     1       7.456  -4.196  -9.556  0.00  0.00    +0.008 A 
ATOM      5  C   UNL     1       8.276  -4.045  -8.449  0.00  0.00    +0.138 A 
ATOM      6  C   UNL     1       7.749  -3.558  -7.260  0.00  0.00    +0.093 A 
ATOM      7  O   UNL     1       9.594  -4.360  -8.511  0.00  0.00    -0.441 OA
ATOM      8  C   UNL     1      10.205  -4.451  -9.704  0.00  0.00    +0.199 C 
ATOM      9  C   UNL     1       9.511  -4.620 -10.854  0.00  0.00    +0.098 C 
ATOM     10  C   UNL     1       8.011  -4.716 -10.855  0.00  0.00    +0.098 C 
ENDROOT
BRANCH  10  11
ATOM     11  C   UNL     1       7.603  -6.156 -11.032  0.00  0.00    -0.031 A 
ATOM     12  C   UNL     1       7.982  -7.101 -10.097  0.00  0.00    +0.005 A 
ATOM     13  C   UNL     1       7.609  -8.423 -10.256  0.00  0.00    +0.004 A 
ATOM     14  C   UNL     1       6.857  -8.802 -11.351  0.00  0.00    +0.045 A 
ATOM     15  C   UNL     1       6.476  -7.856 -12.291  0.00  0.00    +0.121 A 
ATOM     16  C   UNL     1       6.846  -6.529 -12.125  0.00  0.00    +0.050 A 
BRANCH  15  17
ATOM     17  O   UNL     1       5.736  -8.227 -13.369  0.00  0.00    -0.492 OA
BRANCH  17  18
ATOM     18  C   UNL     1       5.386  -9.608 -13.471  0.00  0.00    +0.229 C 
BRANCH  18  19
ATOM     19  C   UNL     1       4.559  -9.832 -14.739  0.00  0.00    +0.044 C 
BRANCH  19  20
ATOM     20  C   UNL     1       4.185 -11.312 -14.849  0.00  0.00    -0.014 C 
ATOM     21  C   UNL     1       3.260 -11.691 -13.691  0.00  0.00    +0.007 C 
ATOM     22  C   UNL     1       3.467 -11.559 -16.177  0.00  0.00    +0.007 C 
ENDBRANCH  19  20
ENDBRANCH  18  19
ENDBRANCH  17  18
ENDBRANCH  15  17
ENDBRANCH  10  11
BRANCH   8  23
ATOM     23  N   UNL     1      11.574  -4.370  -9.758  0.00  0.00    -0.328 N 
ATOM     24  H   UNL     1      12.085  -4.248  -8.943  0.00  0.00    +0.145 HD
ATOM     25  H   UNL     1      12.030  -4.434 -10.612  0.00  0.00    +0.145 HD
ENDBRANCH   8  23
BRANCH   9  26
ATOM     26  C   UNL     1      10.220  -4.709 -12.095  0.00  0.00    +0.101 C 
ATOM     27  N   UNL     1      10.783  -4.780 -13.079  0.00  0.00    -0.191 NA
ENDBRANCH   9  26
BRANCH   1  28
ATOM     28  O   UNL     1       5.886  -2.768  -6.012  0.00  0.00    -0.423 OA
BRANCH  28  29
ATOM     29  C   UNL     1       5.167  -3.613  -5.256  0.00  0.00    +0.350 C 
ATOM     30  O   UNL     1       4.920  -4.724  -5.660  0.00  0.00    -0.247 OA
BRANCH  29  31
ATOM     31  C   UNL     1       4.666  -3.174  -3.904  0.00  0.00    +0.349 C 
BRANCH  31  32
ATOM     32  O   UNL     1       3.932  -4.241  -3.299  0.00  0.00    -0.481 OA
BRANCH  32  36
ATOM     33  C   UNL     1       2.344  -3.534   0.443  0.00  0.00    -0.047 A 
ATOM     34  C   UNL     1       2.154  -4.760  -0.167  0.00  0.00    +0.007 A 
ATOM     35  C   UNL     1       2.685  -4.999  -1.420  0.00  0.00    +0.046 A 
ATOM     36  C   UNL     1       3.409  -4.008  -2.066  0.00  0.00    +0.121 A 
ATOM     37  C   UNL     1       3.597  -2.778  -1.452  0.00  0.00    +0.046 A 
ATOM     38  C   UNL     1       3.060  -2.542  -0.202  0.00  0.00    +0.007 A 
BRANCH  33  40
ATOM     39  C   UNL     1       0.351  -2.705   1.665  0.00  0.00    +0.009 C 
ATOM     40  C   UNL     1       1.764  -3.276   1.810  0.00  0.00    +0.032 C 
ENDBRANCH  33  40
ENDBRANCH  32  36
ENDBRANCH  31  32
ENDBRANCH  29  31
ENDBRANCH  28  29
ENDBRANCH   1  28
TORSDOF 13
