REMARK  Name = ZINC38965300
REMARK  7 active torsions:
REMARK  status: ('A' for Active; 'I' for Inactive)
REMARK    1  A    between atoms: C_1  and  C_2
REMARK    2  A    between atoms: C_2  and  O_3
REMARK    3  A    between atoms: O_3  and  C_4
REMARK    4  A    between atoms: C_8  and  C_10
REMARK    5  A    between atoms: N_16  and  N_17
REMARK    6  A    between atoms: C_18  and  C_19
REMARK    7  A    between atoms: C_24  and  O_25
REMARK                            x       y       z     vdW  Elec       q    Type
REMARK                         _______ _______ _______ _____ _____    ______ ____
ROOT
ATOM      1  C   UNL     1      -4.444  -4.421  -0.067  0.00  0.00    +0.264 C 
ATOM      2  N   UNL     1      -5.232  -3.514   0.782  0.00  0.00    -0.189 NA
ATOM      3  N   UNL     1      -5.460  -4.089   1.849  0.00  0.00    -0.219 N 
ATOM      4  C   UNL     1      -4.932  -5.341   1.912  0.00  0.00    +0.174 C 
ATOM      5  S   UNL     1      -5.070  -6.398   3.252  0.00  0.00    -0.015 S 
ATOM      6  N   UNL     1      -4.283  -5.632   0.759  0.00  0.00    -0.172 N 
ATOM      7  H   UNL     1      -5.965  -3.688   2.573  0.00  0.00    +0.176 HD
ENDROOT
BRANCH   1  12
ATOM      8  C   UNL     1      -1.743  -1.891  -0.827  0.00  0.00    +0.121 A 
ATOM      9  C   UNL     1      -0.633  -2.710  -0.972  0.00  0.00    +0.045 A 
ATOM     10  C   UNL     1      -0.760  -4.077  -0.824  0.00  0.00    +0.004 A 
ATOM     11  C   UNL     1      -1.994  -4.630  -0.531  0.00  0.00    +0.007 A 
ATOM     12  C   UNL     1      -3.102  -3.816  -0.386  0.00  0.00    +0.001 A 
ATOM     13  C   UNL     1      -2.978  -2.447  -0.528  0.00  0.00    +0.053 A 
BRANCH   8  14
ATOM     14  O   UNL     1      -1.620  -0.545  -0.972  0.00  0.00    -0.492 OA
BRANCH  14  16
ATOM     15  C   UNL     1      -0.377   1.482  -1.404  0.00  0.00    +0.048 C 
ATOM     16  C   UNL     1      -0.319  -0.042  -1.280  0.00  0.00    +0.225 C 
ENDBRANCH  14  16
ENDBRANCH   8  14
ENDBRANCH   1  12
BRANCH   6  17
ATOM     17  N   UNL     1      -3.610  -6.815   0.425  0.00  0.00    -0.183 NA
ATOM     18  C   UNL     1      -3.654  -7.836   1.227  0.00  0.00    +0.142 C 
BRANCH  18  19
ATOM     19  C   UNL     1      -2.818  -9.019   0.960  0.00  0.00    +0.038 A 
ATOM     20  C   UNL     1      -2.867 -10.122   1.816  0.00  0.00    +0.028 A 
ATOM     21  C   UNL     1      -2.081 -11.227   1.560  0.00  0.00    +0.020 A 
ATOM     22  C   UNL     1      -1.244 -11.248   0.457  0.00  0.00    +0.034 A 
ATOM     23  C   UNL     1      -1.186 -10.162  -0.398  0.00  0.00    +0.061 A 
ATOM     24  C   UNL     1      -1.973  -9.047  -0.158  0.00  0.00    +0.139 A 
ATOM     25 BR   UNL     1      -0.038 -10.203  -1.899  0.00  0.00    -0.046 Br
ATOM     26 BR   UNL     1      -2.148 -12.719   2.720  0.00  0.00    -0.050 Br
BRANCH  24  27
ATOM     27  O   UNL     1      -1.921  -7.982  -1.000  0.00  0.00    -0.505 OA
ATOM     28  H   UNL     1      -1.255  -7.323  -0.761  0.00  0.00    +0.292 HD
ENDBRANCH  24  27
ENDBRANCH  18  19
ENDBRANCH   6  17
TORSDOF 6
