REMARK  Name = ZINC06894662
REMARK  5 active torsions:
REMARK  status: ('A' for Active; 'I' for Inactive)
REMARK    1  A    between atoms: C_1  and  C_2
REMARK    2  A    between atoms: C_2  and  C_3
REMARK    3  A    between atoms: C_2  and  C_4
REMARK    4  A    between atoms: C_7  and  N_10
REMARK    5  A    between atoms: C_11  and  C_13
REMARK                            x       y       z     vdW  Elec       q    Type
REMARK                         _______ _______ _______ _____ _____    ______ ____
ROOT
ATOM      1  C   UNL     1      -0.015   1.091   0.019  0.00  0.00    +0.076 C 
ATOM      2  C   UNL     1      -0.816   1.629  -1.185  0.00  0.00    -0.003 C 
ATOM      3  C   UNL     1      -2.180   2.046  -0.622  0.00  0.00    -0.066 C 
ATOM      4  C   UNL     1      -3.300   1.215  -1.264  0.00  0.00    -0.017 C 
ATOM      5  C   UNL     1      -3.988   0.490  -0.084  0.00  0.00    -0.020 C 
ATOM      6  C   UNL     1      -2.879   0.458   0.995  0.00  0.00    -0.077 C 
ATOM      7  C   UNL     1      -0.775   1.612   1.244  0.00  0.00    +0.052 C 
ATOM      8  C   UNL     1      -0.637   0.674   2.411  0.00  0.00    -0.027 A 
ATOM      9  C   UNL     1      -0.970  -0.648   2.608  0.00  0.00    +0.004 A 
ATOM     10  C   UNL     1      -0.712  -1.253   3.825  0.00  0.00    +0.000 A 
ATOM     11  C   UNL     1      -0.118  -0.527   4.842  0.00  0.00    +0.002 A 
ATOM     12  C   UNL     1       0.217   0.797   4.649  0.00  0.00    +0.023 A 
ATOM     13  C   UNL     1      -0.040   1.414   3.427  0.00  0.00    +0.036 A 
ATOM     14  N   UNL     1       0.202   2.720   2.995  0.00  0.00    -0.286 N 
ATOM     15  C   UNL     1      -0.201   2.918   1.726  0.00  0.00    +0.212 C 
ATOM     16  O   UNL     1      -0.117   3.949   1.093  0.00  0.00    -0.277 OA
ATOM     17  H   UNL     1       0.613   3.404   3.546  0.00  0.00    +0.155 HD
ATOM     18  N   UNL     1      -2.172   1.739   0.800  0.00  0.00    +0.394 N 
ATOM     19  H   UNL     1      -2.641   2.484   1.329  0.00  0.00    -0.079 HD
ENDROOT
BRANCH   1  21
ATOM     20  N   UNL     1       2.382   0.953   0.611  0.00  0.00    -0.285 N 
ATOM     21  C   UNL     1       1.391   1.633   0.002  0.00  0.00    +0.220 C 
ATOM     22  O   UNL     1       1.631   2.680  -0.561  0.00  0.00    -0.275 OA
ATOM     23  H   UNL     1       2.208   0.079   0.994  0.00  0.00    +0.155 HD
BRANCH  20  27
ATOM     24  C   UNL     1       6.199   2.607   0.854  0.00  0.00    -0.045 A 
ATOM     25  C   UNL     1       5.087   3.425   0.927  0.00  0.00    +0.006 A 
ATOM     26  C   UNL     1       3.820   2.880   0.847  0.00  0.00    +0.023 A 
ATOM     27  C   UNL     1       3.664   1.509   0.692  0.00  0.00    +0.033 A 
ATOM     28  C   UNL     1       4.783   0.689   0.625  0.00  0.00    +0.023 A 
ATOM     29  C   UNL     1       6.047   1.241   0.701  0.00  0.00    +0.006 A 
BRANCH  24  31
ATOM     30  C   UNL     1       8.315   2.612   2.146  0.00  0.00    +0.012 C 
ATOM     31  C   UNL     1       7.579   3.204   0.943  0.00  0.00    +0.013 C 
ATOM     32  C   UNL     1       8.356   2.887  -0.337  0.00  0.00    +0.012 C 
ENDBRANCH  24  31
ENDBRANCH  20  27
ENDBRANCH   1  21
TORSDOF 3
