REMARK  Name = ZINC25026261
REMARK  7 active torsions:
REMARK  status: ('A' for Active; 'I' for Inactive)
REMARK    1  A    between atoms: C_1  and  C_2
REMARK    2  A    between atoms: C_2  and  C_4
REMARK    3  A    between atoms: C_2  and  S_14
REMARK    4  A    between atoms: N_10  and  C_11
REMARK    5  A    between atoms: N_10  and  C_12
REMARK    6  A    between atoms: S_14  and  C_15
REMARK    7  A    between atoms: C_18  and  C_20
REMARK                            x       y       z     vdW  Elec       q    Type
REMARK                         _______ _______ _______ _____ _____    ______ ____
ROOT
ATOM      1  C   UNL     1      -0.019   1.526   0.010  0.00  0.00    +0.028 C 
ATOM      2  C   UNL     1       0.002  -0.004   0.002  0.00  0.00    +0.121 C 
ENDROOT
BRANCH   2   3
ATOM      3  C   UNL     1      -1.412  -0.526   0.013  0.00  0.00    +0.149 A 
ATOM      4  N   UNL     1      -2.124  -0.477   1.125  0.00  0.00    -0.198 NA
ATOM      5  C   UNL     1      -3.373  -0.936   1.138  0.00  0.00    +0.217 A 
ATOM      6  N   UNL     1      -3.904  -1.444   0.031  0.00  0.00    -0.181 NA
ATOM      7  C   UNL     1      -3.185  -1.492  -1.085  0.00  0.00    +0.222 A 
ATOM      8  N   UNL     1      -1.938  -1.026  -1.091  0.00  0.00    -0.198 NA
ATOM      9  N   UNL     1      -3.732  -2.019  -2.237  0.00  0.00    -0.306 N 
ATOM     10  C   UNL     1      -5.106  -2.527  -2.229  0.00  0.00    +0.132 C 
ATOM     11  C   UNL     1      -2.938  -2.071  -3.467  0.00  0.00    +0.132 C 
ATOM     12  N   UNL     1      -4.116  -0.885   2.300  0.00  0.00    -0.327 N 
ATOM     13  H   UNL     1      -3.728  -0.514   3.108  0.00  0.00    +0.145 HD
ATOM     14  H   UNL     1      -5.026  -1.220   2.309  0.00  0.00    +0.145 HD
ENDBRANCH   2   3
BRANCH   2  15
ATOM     15  S   UNL     1       0.879  -0.605   1.472  0.00  0.00    -0.055 S 
BRANCH  15  16
ATOM     16  C   UNL     1       2.533  -0.042   1.241  0.00  0.00    +0.278 A 
ATOM     17  N   UNL     1       2.983   0.656   0.226  0.00  0.00    -0.101 NA
ATOM     18  N   UNL     1       4.237   0.888   0.391  0.00  0.00    -0.111 NA
ATOM     19  C   UNL     1       4.636   0.353   1.508  0.00  0.00    +0.221 A 
ATOM     20  O   UNL     1       3.569  -0.243   2.076  0.00  0.00    -0.415 OA
BRANCH  19  21
ATOM     21  C   UNL     1       6.034   0.397   2.067  0.00  0.00    +0.077 C 
ATOM     22  C   UNL     1       6.449   1.852   2.290  0.00  0.00    +0.013 C 
ATOM     23  C   UNL     1       7.869   1.897   2.857  0.00  0.00    +0.001 C 
ATOM     24  C   UNL     1       8.834   1.237   1.869  0.00  0.00    +0.000 C 
ATOM     25  C   UNL     1       8.419  -0.218   1.646  0.00  0.00    +0.001 C 
ATOM     26  C   UNL     1       6.999  -0.263   1.079  0.00  0.00    +0.013 C 
ENDBRANCH  19  21
ENDBRANCH  15  16
ENDBRANCH   2  15
TORSDOF 4
