REMARK  Name = ZINC40061838
REMARK  8 active torsions:
REMARK  status: ('A' for Active; 'I' for Inactive)
REMARK    1  A    between atoms: C_1  and  C_2
REMARK    2  A    between atoms: C_4  and  C_34
REMARK    3  A    between atoms: C_13  and  C_25
REMARK    4  A    between atoms: C_20  and  C_24
REMARK    5  A    between atoms: C_21  and  C_23
REMARK    6  A    between atoms: C_28  and  C_31
REMARK    7  A    between atoms: C_31  and  C_32
REMARK    8  A    between atoms: C_31  and  C_33
REMARK                            x       y       z     vdW  Elec       q    Type
REMARK                         _______ _______ _______ _____ _____    ______ ____
ROOT
ATOM      1  C   UNL     1      -0.523   1.450   0.038  0.00  0.00    +0.044 C 
ATOM      2  C   UNL     1      -0.237  -0.029   0.015  0.00  0.00    -0.047 A 
ATOM      3  C   UNL     1      -0.233  -0.708  -1.195  0.00  0.00    +0.007 A 
ATOM      4  C   UNL     1       0.028  -2.050  -1.231  0.00  0.00    -0.036 A 
ATOM      5  C   UNL     1       0.290  -2.735  -0.045  0.00  0.00    +0.067 A 
ATOM      6  C   UNL     1       0.283  -2.060   1.186  0.00  0.00    +0.140 A 
ATOM      7  C   UNL     1       0.022  -0.690   1.195  0.00  0.00    +0.050 A 
ATOM      8  O   UNL     1       0.519  -2.692   2.358  0.00  0.00    -0.450 OA
ATOM      9  C   UNL     1       1.001  -3.950   2.351  0.00  0.00    +0.199 A 
ATOM     10  C   UNL     1       1.051  -4.714   1.220  0.00  0.00    +0.072 A 
ATOM     11  C   UNL     1       0.583  -4.191  -0.067  0.00  0.00    +0.199 A 
ATOM     12  O   UNL     1       0.446  -4.884  -1.060  0.00  0.00    -0.287 OA
ATOM     13  C   UNL     1       1.631  -6.040   1.590  0.00  0.00    +0.151 C 
ATOM     14  N   UNL     1       1.915  -5.964   3.033  0.00  0.00    -0.232 N 
ATOM     15  C   UNL     1       1.545  -4.742   3.467  0.00  0.00    +0.289 C 
ATOM     16  O   UNL     1       1.646  -4.351   4.614  0.00  0.00    -0.266 OA
ATOM     17  C   UNL     1       2.467  -6.973   3.810  0.00  0.00    +0.169 A 
ATOM     18  N   UNL     1       2.849  -8.176   3.437  0.00  0.00    -0.229 NA
ATOM     19  C   UNL     1       3.360  -9.029   4.304  0.00  0.00    +0.050 A 
ATOM     20  C   UNL     1       3.471  -8.609   5.589  0.00  0.00    +0.011 A 
ATOM     21  S   UNL     1       2.816  -6.953   5.456  0.00  0.00    -0.057 S 
ATOM     22  C   UNL     1       4.006  -9.337   6.795  0.00  0.00    +0.053 C 
ATOM     23  C   UNL     1       3.799 -10.408   3.886  0.00  0.00    +0.066 C 
ATOM     24  C   UNL     1       0.032  -2.784  -2.547  0.00  0.00    +0.044 C 
ENDROOT
BRANCH  13  25
ATOM     25  C   UNL     1       2.903  -6.284   0.821  0.00  0.00    -0.022 A 
ATOM     26  C   UNL     1       4.087  -5.705   1.239  0.00  0.00    +0.006 A 
ATOM     27  C   UNL     1       5.254  -5.929   0.532  0.00  0.00    +0.004 A 
ATOM     28  C   UNL     1       5.237  -6.734  -0.592  0.00  0.00    -0.045 A 
ATOM     29  C   UNL     1       4.054  -7.314  -1.009  0.00  0.00    +0.004 A 
ATOM     30  C   UNL     1       2.888  -7.093  -0.300  0.00  0.00    +0.006 A 
BRANCH  28  31
ATOM     31  C   UNL     1       6.510  -6.978  -1.362  0.00  0.00    +0.013 C 
ATOM     32  C   UNL     1       6.818  -8.476  -1.375  0.00  0.00    +0.012 C 
ATOM     33  C   UNL     1       6.339  -6.479  -2.798  0.00  0.00    +0.012 C 
ENDBRANCH  28  31
ENDBRANCH  13  25
TORSDOF 2
