REMARK  Name = ZINC09575746
REMARK  5 active torsions:
REMARK  status: ('A' for Active; 'I' for Inactive)
REMARK    1  A    between atoms: C_6  and  C_7
REMARK    2  A    between atoms: C_12  and  O_18
REMARK    3  A    between atoms: O_18  and  C_19
REMARK    4  A    between atoms: C_19  and  C_20
REMARK    5  A    between atoms: N_22  and  C_23
REMARK                            x       y       z     vdW  Elec       q    Type
REMARK                         _______ _______ _______ _____ _____    ______ ____
ROOT
ATOM      1  C   UNL     1       2.252   5.417   0.008  0.00  0.00    +0.064 A 
ATOM      2  C   UNL     1       1.005   5.956   0.023  0.00  0.00    +0.208 A 
ATOM      3  O   UNL     1      -0.101   5.207   0.030  0.00  0.00    -0.462 OA
ATOM      4  C   UNL     1      -0.082   3.859   0.024  0.00  0.00    +0.142 A 
ATOM      5  C   UNL     1      -1.268   3.136   0.031  0.00  0.00    +0.092 A 
ATOM      6  C   UNL     1      -1.230   1.753   0.017  0.00  0.00    +0.125 A 
ATOM      7  C   UNL     1      -0.013   1.076   0.008  0.00  0.00    +0.046 A 
ATOM      8  C   UNL     1       1.163   1.771   0.001  0.00  0.00    +0.019 A 
ATOM      9  C   UNL     1       1.141   3.167   0.008  0.00  0.00    +0.065 A 
ATOM     10  C   UNL     1       2.390   3.951  -0.000  0.00  0.00    +0.200 A 
ATOM     11  O   UNL     1       3.483   3.412  -0.013  0.00  0.00    -0.286 OA
ENDROOT
BRANCH   1  17
ATOM     12  C   UNL     1       4.479   6.072   0.918  0.00  0.00    +0.010 A 
ATOM     13  C   UNL     1       5.595   6.883   0.904  0.00  0.00    +0.020 A 
ATOM     14  C   UNL     1       5.691   7.918  -0.010  0.00  0.00    +0.041 A 
ATOM     15  C   UNL     1       4.671   8.141  -0.920  0.00  0.00    +0.020 A 
ATOM     16  C   UNL     1       3.553   7.332  -0.918  0.00  0.00    +0.010 A 
ATOM     17  C   UNL     1       3.452   6.289   0.001  0.00  0.00    -0.011 A 
ATOM     18 CL   UNL     1       7.095   8.939  -0.017  0.00  0.00    -0.084 Cl
ENDBRANCH   1  17
BRANCH   6  19
ATOM     19  O   UNL     1      -2.391   1.049   0.019  0.00  0.00    -0.483 OA
BRANCH  19  20
ATOM     20  C   UNL     1      -2.286  -0.376   0.010  0.00  0.00    +0.324 C 
BRANCH  20  21
ATOM     21  C   UNL     1      -3.665  -0.982   0.013  0.00  0.00    +0.251 C 
ATOM     22  O   UNL     1      -4.643  -0.265   0.021  0.00  0.00    -0.272 OA
ATOM     23  N   UNL     1      -3.813  -2.322   0.006  0.00  0.00    -0.308 N 
ATOM     24  H   UNL     1      -3.031  -2.896  -0.001  0.00  0.00    +0.149 HD
BRANCH  23  25
ATOM     25  C   UNL     1      -5.154  -2.911   0.009  0.00  0.00    +0.095 C 
ATOM     26  C   UNL     1      -5.684  -2.982  -1.433  0.00  0.00    +0.046 C 
ATOM     27  C   UNL     1      -6.952  -3.883  -1.440  0.00  0.00    +0.168 C 
ATOM     28  S   UNL     1      -6.420  -5.221  -0.291  0.00  0.00    -0.029 S 
ATOM     29  O   UNL     1      -5.838  -6.275  -1.047  0.00  0.00    -0.174 OA
ATOM     30  O   UNL     1      -7.482  -5.508   0.608  0.00  0.00    -0.174 OA
ATOM     31  C   UNL     1      -5.090  -4.333   0.617  0.00  0.00    +0.188 C 
ENDBRANCH  23  25
ENDBRANCH  20  21
ENDBRANCH  19  20
ENDBRANCH   6  19
TORSDOF 5
