REMARK  Name = ZINC44460406
REMARK  6 active torsions:
REMARK  status: ('A' for Active; 'I' for Inactive)
REMARK    1  A    between atoms: C_1  and  C_2
REMARK    2  A    between atoms: C_13  and  O_15
REMARK    3  A    between atoms: N_21  and  N_22
REMARK    4  A    between atoms: N_22  and  C_23
REMARK    5  A    between atoms: C_23  and  N_25
REMARK    6  A    between atoms: C_28  and  C_29
REMARK                            x       y       z     vdW  Elec       q    Type
REMARK                         _______ _______ _______ _____ _____    ______ ____
ROOT
ATOM      1  C   UNL     1      -0.019   1.526   0.010  0.00  0.00    +0.014 C 
ATOM      2  C   UNL     1       0.002  -0.004   0.002  0.00  0.00    -0.003 C 
ATOM      3  C   UNL     1       0.639  -0.483  -1.283  0.00  0.00    +0.010 C 
ATOM      4  C   UNL     1       0.751  -2.005  -1.285  0.00  0.00    +0.005 C 
ATOM      5  C   UNL     1       1.632  -2.446  -0.106  0.00  0.00    +0.002 C 
ATOM      6  C   UNL     1       0.999  -2.006   1.202  0.00  0.00    -0.003 C 
ATOM      7  C   UNL     1       0.747  -0.502   1.250  0.00  0.00    +0.001 C 
ATOM      8  C   UNL     1      -0.326  -0.290   2.360  0.00  0.00    +0.007 C 
ATOM      9  C   UNL     1      -1.649  -0.704   1.678  0.00  0.00    +0.032 C 
ATOM     10  C   UNL     1      -1.432  -0.525   0.161  0.00  0.00    +0.121 C 
ATOM     11  C   UNL     1       1.857  -2.351   2.416  0.00  0.00    +0.008 C 
ATOM     12  C   UNL     1       2.671  -3.622   2.220  0.00  0.00    +0.031 C 
ATOM     13  C   UNL     1       1.976  -4.511   1.219  0.00  0.00    -0.062 C 
ATOM     14  C   UNL     1       1.579  -5.729   1.560  0.00  0.00    +0.024 C 
ATOM     15  C   UNL     1       0.891  -6.596   0.597  0.00  0.00    +0.059 C 
ATOM     16  N   UNL     1       0.534  -7.797   0.942  0.00  0.00    -0.186 NA
ATOM     17  C   UNL     1       0.599  -6.091  -0.794  0.00  0.00    +0.058 C 
ATOM     18  C   UNL     1       0.468  -4.565  -0.751  0.00  0.00    +0.017 C 
ATOM     19  C   UNL     1       1.750  -3.973  -0.181  0.00  0.00    -0.007 C 
ATOM     20  C   UNL     1       2.938  -4.350  -1.069  0.00  0.00    +0.016 C 
ENDROOT
BRANCH  10  21
ATOM     21  O   UNL     1      -1.579  -1.779  -0.508  0.00  0.00    -0.391 OA
ATOM     22  H   UNL     1      -2.466  -2.159  -0.443  0.00  0.00    +0.210 HD
ENDBRANCH  10  21
BRANCH  16  23
ATOM     23  N   UNL     1      -0.123  -8.624   0.022  0.00  0.00    -0.218 N 
ATOM     24  H   UNL     1      -0.311  -8.300  -0.873  0.00  0.00    +0.176 HD
BRANCH  23  25
ATOM     25  C   UNL     1      -0.493  -9.870   0.379  0.00  0.00    +0.147 C 
ATOM     26  S   UNL     1      -1.296 -10.880  -0.745  0.00  0.00    -0.017 S 
BRANCH  25  27
ATOM     27  N   UNL     1      -0.231 -10.320   1.623  0.00  0.00    -0.339 N 
ATOM     28  H   UNL     1       0.224  -9.747   2.260  0.00  0.00    +0.144 HD
ATOM     29  H   UNL     1      -0.497 -11.216   1.880  0.00  0.00    +0.144 HD
ENDBRANCH  25  27
ENDBRANCH  23  25
ENDBRANCH  16  23
TORSDOF 4
