REMARK  Name = ZINC14459037
REMARK  6 active torsions:
REMARK  status: ('A' for Active; 'I' for Inactive)
REMARK    1  A    between atoms: C_1  and  O_2
REMARK    2  A    between atoms: O_2  and  C_3
REMARK    3  A    between atoms: C_5  and  C_10
REMARK    4  A    between atoms: C_8  and  O_9
REMARK    5  A    between atoms: C_21  and  S_26
REMARK    6  A    between atoms: S_26  and  N_29
REMARK                            x       y       z     vdW  Elec       q    Type
REMARK                         _______ _______ _______ _____ _____    ______ ____
ROOT
ATOM      1  C   UNL     1       3.675   1.782  -0.003  0.00  0.00    +0.105 C 
ATOM      2  C   UNL     1       3.620   3.068   0.801  0.00  0.00    +0.029 C 
ATOM      3  C   UNL     1       4.851   3.984   0.778  0.00  0.00    +0.033 C 
ATOM      4  C   UNL     1       4.216   5.359   0.997  0.00  0.00    -0.030 C 
ATOM      5  C   UNL     1       2.957   5.349   0.577  0.00  0.00    -0.023 C 
ATOM      6  C   UNL     1       2.653   4.007   0.019  0.00  0.00    +0.049 C 
ATOM      7  C   UNL     1       1.298   3.420   0.082  0.00  0.00    -0.018 A 
ATOM      8  C   UNL     1       0.159   4.193   0.147  0.00  0.00    +0.034 A 
ATOM      9  C   UNL     1      -1.089   3.597   0.169  0.00  0.00    +0.106 A 
ATOM     10  C   UNL     1      -1.198   2.219   0.121  0.00  0.00    +0.030 A 
ATOM     11  C   UNL     1      -0.063   1.436   0.069  0.00  0.00    +0.025 A 
ATOM     12  C   UNL     1       1.196   2.025   0.053  0.00  0.00    +0.031 A 
ATOM     13  N   UNL     1       2.333   1.209   0.030  0.00  0.00    -0.336 N 
ATOM     14  H   UNL     1       2.228   0.245   0.043  0.00  0.00    +0.147 HD
ENDROOT
BRANCH   1  17
ATOM     15  C   UNL     1       5.727   2.378  -3.119  0.00  0.00    +0.162 A 
ATOM     16  C   UNL     1       5.381   2.107  -1.805  0.00  0.00    +0.054 A 
ATOM     17  C   UNL     1       4.050   2.077  -1.433  0.00  0.00    -0.023 A 
ATOM     18  C   UNL     1       3.062   2.313  -2.370  0.00  0.00    +0.009 A 
ATOM     19  C   UNL     1       3.400   2.591  -3.682  0.00  0.00    +0.049 A 
ATOM     20  C   UNL     1       4.732   2.621  -4.061  0.00  0.00    +0.158 A 
BRANCH  15  22
ATOM     21  C   UNL     1       8.003   2.150  -2.466  0.00  0.00    +0.277 C 
ATOM     22  O   UNL     1       7.036   2.408  -3.486  0.00  0.00    -0.491 OA
ENDBRANCH  15  22
BRANCH  20  23
ATOM     23  O   UNL     1       5.067   2.888  -5.352  0.00  0.00    -0.503 OA
ATOM     24  H   UNL     1       5.130   2.103  -5.912  0.00  0.00    +0.292 HD
ENDBRANCH  20  23
ENDBRANCH   1  17
BRANCH   9  25
ATOM     25  S   UNL     1      -2.540   4.593   0.250  0.00  0.00    +0.061 S 
ATOM     26  O   UNL     1      -3.561   3.778   0.809  0.00  0.00    -0.153 OA
ATOM     27  O   UNL     1      -2.151   5.831   0.830  0.00  0.00    -0.153 OA
BRANCH  25  28
ATOM     28  N   UNL     1      -2.996   4.923  -1.307  0.00  0.00    -0.177 NA
ATOM     29  C   UNL     1      -2.491   6.117  -1.999  0.00  0.00    +0.109 C 
ATOM     30  C   UNL     1      -1.861   5.681  -3.330  0.00  0.00    +0.017 C 
ATOM     31  C   UNL     1      -2.885   4.876  -4.133  0.00  0.00    +0.003 C 
ATOM     32  C   UNL     1      -3.276   3.620  -3.352  0.00  0.00    +0.017 C 
ATOM     33  C   UNL     1      -3.918   4.030  -2.022  0.00  0.00    +0.109 C 
ENDBRANCH  25  28
ENDBRANCH   9  25
TORSDOF 5
