REMARK  Name = ZINC43490054
REMARK  6 active torsions:
REMARK  status: ('A' for Active; 'I' for Inactive)
REMARK    1  A    between atoms: C_6  and  N_7
REMARK    2  A    between atoms: N_7  and  CA_8
REMARK    3  A    between atoms: CA_8  and  C_10
REMARK    4  A    between atoms: CA_8  and  C_12
REMARK    5  A    between atoms: C_10  and  O_11
REMARK    6  A    between atoms: C_15  and  O_19
REMARK                            x       y       z     vdW  Elec       q    Type
REMARK                         _______ _______ _______ _____ _____    ______ ____
ROOT
ATOM      1  CA  UNL     1      -1.176  -2.185   0.002  0.00  0.00    +0.126 C 
ENDROOT
BRANCH   1   2
ATOM      2  C   UNL     1      -2.462  -2.703  -0.589  0.00  0.00    -0.024 A 
ATOM      3  C   UNL     1      -3.660  -2.084  -0.284  0.00  0.00    +0.009 A 
ATOM      4  C   UNL     1      -4.841  -2.557  -0.823  0.00  0.00    +0.047 A 
ATOM      5  C   UNL     1      -4.824  -3.654  -1.672  0.00  0.00    +0.135 A 
ATOM      6  C   UNL     1      -3.620  -4.274  -1.977  0.00  0.00    +0.083 A 
ATOM      7  C   UNL     1      -2.441  -3.794  -1.438  0.00  0.00    +0.029 A 
ATOM      8 CL   UNL     1      -3.595  -5.648  -3.038  0.00  0.00    -0.080 Cl
BRANCH   5   9
ATOM      9  O   UNL     1      -5.985  -4.121  -2.203  0.00  0.00    -0.505 OA
ATOM     10  H   UNL     1      -6.220  -3.718  -3.051  0.00  0.00    +0.292 HD
ENDBRANCH   5   9
ENDBRANCH   1   2
BRANCH   1  11
ATOM     11  N   UNL     1      -1.198  -0.720   0.010  0.00  0.00    -0.335 N 
ATOM     12  H   UNL     1      -2.045  -0.248   0.021  0.00  0.00    +0.147 HD
BRANCH  11  18
ATOM     13  C   UNL     1      -0.017   1.385   0.010  0.00  0.00    +0.024 A 
ATOM     14  C   UNL     1       1.171   2.090   0.002  0.00  0.00    +0.017 A 
ATOM     15  C   UNL     1       2.378   1.415  -0.013  0.00  0.00    +0.018 A 
ATOM     16  C   UNL     1       2.400   0.031  -0.021  0.00  0.00    +0.017 A 
ATOM     17  C   UNL     1       1.216  -0.679  -0.014  0.00  0.00    +0.024 A 
ATOM     18  C   UNL     1       0.002  -0.004   0.002  0.00  0.00    +0.028 A 
ATOM     19 BR   UNL     1       4.002   2.384  -0.025  0.00  0.00    -0.050 Br
ENDBRANCH  11  18
ENDBRANCH   1  11
BRANCH   1  20
ATOM     20  C   UNL     1      -1.028  -2.701   1.435  0.00  0.00    +0.182 C 
BRANCH  20  21
ATOM     21  O   UNL     1      -2.187  -2.344   2.191  0.00  0.00    -0.393 OA
ATOM     22  H   UNL     1      -2.163  -2.640   3.112  0.00  0.00    +0.209 HD
ENDBRANCH  20  21
ENDBRANCH   1  20
TORSDOF 6
