REMARK  Name = ZINC02086966
REMARK  5 active torsions:
REMARK  status: ('A' for Active; 'I' for Inactive)
REMARK    1  A    between atoms: C_1  and  C_2
REMARK    2  A    between atoms: C_2  and  S_3
REMARK    3  A    between atoms: S_3  and  C_4
REMARK    4  A    between atoms: C_17  and  C_20
REMARK    5  A    between atoms: C_23  and  C_25
REMARK                            x       y       z     vdW  Elec       q    Type
REMARK                         _______ _______ _______ _____ _____    ______ ____
ROOT
ATOM      1  C   UNL     1       3.639  12.562   2.143  0.00  0.00    +0.212 A 
ATOM      2  N   UNL     1       2.604  11.748   1.950  0.00  0.00    -0.184 NA
ATOM      3  C   UNL     1       2.824  10.499   1.580  0.00  0.00    +0.248 A 
ATOM      4  C   UNL     1       4.158  10.069   1.395  0.00  0.00    +0.156 A 
ATOM      5  N   UNL     1       5.143  10.929   1.606  0.00  0.00    -0.141 NA
ATOM      6  N   UNL     1       4.884  12.137   1.969  0.00  0.00    -0.122 NA
ATOM      7  C   UNL     1       4.426   8.680   0.969  0.00  0.00    +0.029 A 
ATOM      8  C   UNL     1       5.378   7.894   1.605  0.00  0.00    +0.027 A 
ATOM      9  C   UNL     1       5.609   6.604   1.165  0.00  0.00    +0.019 A 
ATOM     10  C   UNL     1       4.897   6.092   0.093  0.00  0.00    +0.017 A 
ATOM     11  C   UNL     1       3.943   6.863  -0.546  0.00  0.00    +0.025 A 
ATOM     12  C   UNL     1       3.695   8.152  -0.112  0.00  0.00    +0.040 A 
ATOM     13  N   UNL     1       2.719   8.950  -0.719  0.00  0.00    -0.303 N 
ATOM     14  C   UNL     1       1.509   9.269   0.032  0.00  0.00    +0.329 C 
ATOM     15  O   UNL     1       1.802   9.633   1.377  0.00  0.00    -0.445 OA
ATOM     16 BR   UNL     1       6.903   5.532   2.032  0.00  0.00    -0.050 Br
ATOM     17  H   UNL     1       2.844   9.284  -1.621  0.00  0.00    +0.150 HD
ENDROOT
BRANCH  14  18
ATOM     18  C   UNL     1       0.601   8.066   0.036  0.00  0.00    +0.165 A 
ATOM     19  C   UNL     1      -0.745   8.099   0.050  0.00  0.00    +0.051 A 
ATOM     20  C   UNL     1      -1.191   6.762   0.043  0.00  0.00    +0.050 A 
ATOM     21  C   UNL     1      -0.079   5.979   0.034  0.00  0.00    +0.135 A 
ATOM     22  O   UNL     1       1.001   6.784   0.026  0.00  0.00    -0.454 OA
BRANCH  21  23
ATOM     23  C   UNL     1      -0.059   4.501   0.026  0.00  0.00    +0.017 A 
ATOM     24  C   UNL     1       1.158   3.817   0.011  0.00  0.00    +0.013 A 
ATOM     25  C   UNL     1       1.170   2.438   0.004  0.00  0.00    +0.021 A 
ATOM     26  C   UNL     1      -0.021   1.732   0.012  0.00  0.00    +0.041 A 
ATOM     27  C   UNL     1      -1.232   2.405   0.021  0.00  0.00    +0.021 A 
ATOM     28  C   UNL     1      -1.257   3.784   0.034  0.00  0.00    +0.013 A 
ATOM     29 CL   UNL     1       0.002  -0.004   0.002  0.00  0.00    -0.084 Cl
ENDBRANCH  21  23
ENDBRANCH  14  18
BRANCH   1  30
ATOM     30  S   UNL     1       3.352  14.228   2.637  0.00  0.00    -0.085 S 
BRANCH  30  32
ATOM     31  C   UNL     1       5.060  16.294   3.164  0.00  0.00    +0.016 C 
ATOM     32  C   UNL     1       5.058  14.824   2.739  0.00  0.00    +0.074 C 
ENDBRANCH  30  32
ENDBRANCH   1  30
TORSDOF 4
