REMARK  Name = ZINC21629195
REMARK  14 active torsions:
REMARK  status: ('A' for Active; 'I' for Inactive)
REMARK    1  A    between atoms: C_1  and  C_2
REMARK    2  A    between atoms: C_6  and  C_32
REMARK    3  A    between atoms: C_7  and  O_8
REMARK    4  A    between atoms: O_8  and  C_9
REMARK    5  A    between atoms: C_9  and  C_10
REMARK    6  A    between atoms: C_13  and  S_16
REMARK    7  A    between atoms: N_14  and  N_15
REMARK    8  A    between atoms: S_16  and  C_17
REMARK    9  A    between atoms: C_17  and  C_19
REMARK   10  A    between atoms: C_17  and  C_20
REMARK   11  A    between atoms: N_22  and  C_23
REMARK   12  A    between atoms: C_28  and  C_29
REMARK   13  A    between atoms: C_29  and  C_30
REMARK   14  A    between atoms: C_29  and  C_31
REMARK                            x       y       z     vdW  Elec       q    Type
REMARK                         _______ _______ _______ _____ _____    ______ ____
ROOT
ATOM      1  C   UNL     1       9.497   0.746  -1.119  0.00  0.00    +0.189 A 
ATOM      2  N   UNL     1       8.665  -0.214  -0.833  0.00  0.00    -0.128 NA
ATOM      3  N   UNL     1       7.500   0.271  -0.585  0.00  0.00    -0.121 NA
ATOM      4  C   UNL     1       7.526   1.577  -0.710  0.00  0.00    +0.209 A 
ATOM      5  N   UNL     1       8.802   1.922  -1.052  0.00  0.00    -0.225 N 
ENDROOT
BRANCH   5   6
ATOM      6  N   UNL     1       9.284   3.179  -1.279  0.00  0.00    -0.295 N 
ATOM      7  H   UNL     1       8.616   4.049  -1.191  0.00  0.00    +0.163 HD
ATOM      8  H   UNL     1      10.340   3.323  -1.550  0.00  0.00    +0.163 HD
ENDBRANCH   5   6
BRANCH   1   9
ATOM      9  C   UNL     1      10.957   0.590  -1.462  0.00  0.00    +0.306 C 
BRANCH   9  10
ATOM     10  O   UNL     1      11.736   0.654  -0.267  0.00  0.00    -0.484 OA
BRANCH  10  17
ATOM     11  C   UNL     1      12.825  -1.948  -0.118  0.00  0.00    +0.047 C 
ATOM     12  C   UNL     1      13.675  -0.723  -0.337  0.00  0.00    -0.009 A 
ATOM     13  C   UNL     1      15.043  -0.847  -0.478  0.00  0.00    +0.007 A 
ATOM     14  C   UNL     1      15.824   0.277  -0.674  0.00  0.00    +0.001 A 
ATOM     15  C   UNL     1      15.237   1.528  -0.733  0.00  0.00    +0.007 A 
ATOM     16  C   UNL     1      13.869   1.657  -0.597  0.00  0.00    -0.009 A 
ATOM     17  C   UNL     1      13.083   0.530  -0.401  0.00  0.00    +0.127 A 
ATOM     18  C   UNL     1      13.230   3.020  -0.661  0.00  0.00    +0.047 C 
ENDBRANCH  10  17
ENDBRANCH   9  10
ENDBRANCH   1   9
BRANCH   4  19
ATOM     19  S   UNL     1       6.171   2.679  -0.474  0.00  0.00    -0.072 S 
BRANCH  19  20
ATOM     20  C   UNL     1       4.870   1.492  -0.054  0.00  0.00    +0.137 C 
ATOM     21  C   UNL     1       5.212   0.809   1.272  0.00  0.00    +0.029 C 
BRANCH  20  22
ATOM     22  C   UNL     1       3.554   2.214   0.078  0.00  0.00    +0.230 C 
ATOM     23  O   UNL     1       3.536   3.412   0.267  0.00  0.00    -0.274 OA
ATOM     24  N   UNL     1       2.397   1.529  -0.015  0.00  0.00    -0.284 N 
ATOM     25  H   UNL     1       2.414   0.434  -0.122  0.00  0.00    +0.155 HD
BRANCH  24  26
ATOM     26  C   UNL     1       1.176   2.210   0.024  0.00  0.00    +0.037 A 
ATOM     27  C   UNL     1       1.084   3.439   0.665  0.00  0.00    +0.023 A 
ATOM     28  C   UNL     1      -0.123   4.109   0.701  0.00  0.00    +0.002 A 
ATOM     29  C   UNL     1      -1.240   3.558   0.100  0.00  0.00    +0.000 A 
ATOM     30  C   UNL     1      -1.151   2.337  -0.544  0.00  0.00    +0.006 A 
ATOM     31  C   UNL     1       0.052   1.659  -0.579  0.00  0.00    -0.024 A 
BRANCH  31  32
ATOM     32  C   UNL     1       0.147   0.326  -1.275  0.00  0.00    +0.015 C 
ATOM     33  C   UNL     1      -0.715  -0.698  -0.535  0.00  0.00    +0.012 C 
ATOM     34  C   UNL     1      -0.350   0.466  -2.715  0.00  0.00    +0.012 C 
ENDBRANCH  31  32
ENDBRANCH  24  26
ENDBRANCH  20  22
ENDBRANCH  19  20
ENDBRANCH   4  19
TORSDOF 9
