REMARK  Name = ZINC02330183
REMARK  9 active torsions:
REMARK  status: ('A' for Active; 'I' for Inactive)
REMARK    1  A    between atoms: C_6  and  C_7
REMARK    2  A    between atoms: C_10  and  S_18
REMARK    3  A    between atoms: N_11  and  C_12
REMARK    4  A    between atoms: S_18  and  C_19
REMARK    5  A    between atoms: C_19  and  C_20
REMARK    6  A    between atoms: N_22  and  N_23
REMARK    7  A    between atoms: C_24  and  C_25
REMARK    8  A    between atoms: C_28  and  O_32
REMARK    9  A    between atoms: C_30  and  O_31
REMARK                            x       y       z     vdW  Elec       q    Type
REMARK                         _______ _______ _______ _____ _____    ______ ____
ROOT
ATOM      1  C   UNL     1      -6.968   9.863   0.088  0.00  0.00    +0.165 A 
ATOM      2  N   UNL     1      -7.287   8.645   0.459  0.00  0.00    -0.128 NA
ATOM      3  N   UNL     1      -6.277   7.864   0.315  0.00  0.00    -0.122 NA
ATOM      4  C   UNL     1      -5.248   8.538  -0.148  0.00  0.00    +0.193 A 
ATOM      5  N   UNL     1      -5.652   9.832  -0.312  0.00  0.00    -0.299 N 
ENDROOT
BRANCH   1  11
ATOM      6  C   UNL     1      -7.327  12.316   0.333  0.00  0.00    +0.013 A 
ATOM      7  C   UNL     1      -8.160  13.416   0.336  0.00  0.00    +0.021 A 
ATOM      8  C   UNL     1      -9.518  13.261   0.118  0.00  0.00    +0.041 A 
ATOM      9  C   UNL     1     -10.049  12.002  -0.111  0.00  0.00    +0.021 A 
ATOM     10  C   UNL     1      -9.226  10.895  -0.121  0.00  0.00    +0.013 A 
ATOM     11  C   UNL     1      -7.856  11.046   0.098  0.00  0.00    +0.019 A 
ATOM     12 CL   UNL     1     -10.560  14.649   0.131  0.00  0.00    -0.084 Cl
ENDBRANCH   1  11
BRANCH   5  13
ATOM     13  C   UNL     1      -4.852  10.953  -0.810  0.00  0.00    +0.091 C 
ATOM     14  C   UNL     1      -4.257  10.589  -2.173  0.00  0.00    +0.025 C 
ATOM     15  C   UNL     1      -3.421  11.760  -2.693  0.00  0.00    +0.002 C 
ATOM     16  C   UNL     1      -2.291  12.058  -1.706  0.00  0.00    +0.000 C 
ATOM     17  C   UNL     1      -2.885  12.422  -0.344  0.00  0.00    +0.002 C 
ATOM     18  C   UNL     1      -3.721  11.251   0.176  0.00  0.00    +0.025 C 
ENDBRANCH   5  13
BRANCH   4  19
ATOM     19  S   UNL     1      -3.647   7.890  -0.499  0.00  0.00    -0.077 S 
BRANCH  19  20
ATOM     20  C   UNL     1      -3.899   6.159  -0.035  0.00  0.00    +0.174 C 
BRANCH  20  21
ATOM     21  C   UNL     1      -2.624   5.388  -0.257  0.00  0.00    +0.242 C 
ATOM     22  O   UNL     1      -1.641   5.954  -0.688  0.00  0.00    -0.273 OA
ATOM     23  N   UNL     1      -2.575   4.071   0.022  0.00  0.00    -0.206 N 
ATOM     24  H   UNL     1      -3.361   3.619   0.366  0.00  0.00    +0.177 HD
BRANCH  23  25
ATOM     25  N   UNL     1      -1.389   3.354  -0.185  0.00  0.00    -0.188 NA
ATOM     26  C   UNL     1      -1.343   2.085   0.084  0.00  0.00    +0.142 C 
BRANCH  26  27
ATOM     27  C   UNL     1      -0.096   1.331  -0.134  0.00  0.00    +0.036 A 
ATOM     28  C   UNL     1      -0.042  -0.035   0.154  0.00  0.00    +0.016 A 
ATOM     29  C   UNL     1       1.124  -0.737  -0.056  0.00  0.00    +0.046 A 
ATOM     30  C   UNL     1       2.249  -0.092  -0.556  0.00  0.00    +0.120 A 
ATOM     31  C   UNL     1       2.206   1.264  -0.845  0.00  0.00    +0.091 A 
ATOM     32  C   UNL     1       1.041   1.981  -0.638  0.00  0.00    +0.129 A 
BRANCH  32  33
ATOM     33  O   UNL     1       0.997   3.308  -0.921  0.00  0.00    -0.506 OA
ATOM     34  H   UNL     1       1.244   3.877  -0.179  0.00  0.00    +0.292 HD
ENDBRANCH  32  33
BRANCH  30  35
ATOM     35  O   UNL     1       3.395  -0.791  -0.761  0.00  0.00    -0.507 OA
ATOM     36  H   UNL     1       3.467  -1.178  -1.645  0.00  0.00    +0.292 HD
ENDBRANCH  30  35
ENDBRANCH  26  27
ENDBRANCH  23  25
ENDBRANCH  20  21
ENDBRANCH  19  20
ENDBRANCH   4  19
TORSDOF 9
