REMARK  Name = ZINC06757476
REMARK  12 active torsions:
REMARK  status: ('A' for Active; 'I' for Inactive)
REMARK    1  A    between atoms: C_1  and  C_2
REMARK    2  A    between atoms: C_2  and  C_3
REMARK    3  A    between atoms: C_3  and  O_4
REMARK    4  A    between atoms: O_4  and  C_5
REMARK    5  A    between atoms: C_8  and  C_14
REMARK    6  A    between atoms: C_10  and  N_11
REMARK    7  A    between atoms: C_14  and  N_15
REMARK    8  A    between atoms: N_15  and  C_16
REMARK    9  A    between atoms: C_16  and  N_18
REMARK   10  A    between atoms: N_18  and  N_19
REMARK   11  A    between atoms: C_20  and  C_21
REMARK   12  A    between atoms: C_26  and  O_27
REMARK                            x       y       z     vdW  Elec       q    Type
REMARK                         _______ _______ _______ _____ _____    ______ ____
ROOT
ATOM      1  N   UNL     1      -6.023   2.947   0.046  0.00  0.00    -0.321 N 
ATOM      2  H   UNL     1      -5.188   3.440   0.045  0.00  0.00    +0.148 HD
ENDROOT
BRANCH   1   3
ATOM      3  C   UNL     1      -6.011   1.599   0.038  0.00  0.00    +0.150 C 
ATOM      4  S   UNL     1      -7.485   0.729   0.040  0.00  0.00    -0.017 S 
BRANCH   3   5
ATOM      5  N   UNL     1      -4.837   0.936   0.029  0.00  0.00    -0.218 N 
ATOM      6  H   UNL     1      -4.828  -0.034   0.023  0.00  0.00    +0.176 HD
BRANCH   5   7
ATOM      7  N   UNL     1      -3.630   1.648   0.028  0.00  0.00    -0.188 NA
ATOM      8  C   UNL     1      -2.500   1.010   0.019  0.00  0.00    +0.141 C 
BRANCH   8   9
ATOM      9  C   UNL     1      -1.231   1.759   0.017  0.00  0.00    +0.036 A 
ATOM     10  C   UNL     1      -0.013   1.076   0.008  0.00  0.00    +0.013 A 
ATOM     11  C   UNL     1       1.172   1.783   0.000  0.00  0.00    +0.001 A 
ATOM     12  C   UNL     1       1.158   3.167   0.008  0.00  0.00    +0.004 A 
ATOM     13  C   UNL     1      -0.041   3.854   0.023  0.00  0.00    +0.046 A 
ATOM     14  C   UNL     1      -1.239   3.160   0.031  0.00  0.00    +0.125 A 
BRANCH  14  15
ATOM     15  O   UNL     1      -2.418   3.835   0.047  0.00  0.00    -0.506 OA
ATOM     16  H   UNL     1      -2.769   4.035  -0.832  0.00  0.00    +0.292 HD
ENDBRANCH  14  15
ENDBRANCH   8   9
ENDBRANCH   5   7
ENDBRANCH   3   5
ENDBRANCH   1   3
BRANCH   1  17
ATOM     17  C   UNL     1      -7.299   3.667   0.056  0.00  0.00    +0.138 C 
BRANCH  17  21
ATOM     18  C   UNL     1      -6.557   7.876   0.077  0.00  0.00    +0.151 A 
ATOM     19  C   UNL     1      -6.673   7.184   1.275  0.00  0.00    +0.048 A 
ATOM     20  C   UNL     1      -6.918   5.825   1.265  0.00  0.00    +0.009 A 
ATOM     21  C   UNL     1      -7.037   5.151   0.063  0.00  0.00    -0.028 A 
ATOM     22  C   UNL     1      -6.923   5.838  -1.131  0.00  0.00    +0.041 A 
ATOM     23  C   UNL     1      -6.683   7.199  -1.127  0.00  0.00    +0.168 A 
BRANCH  23  24
ATOM     24  N   UNL     1      -6.561   7.933  -2.406  0.00  0.00    +0.060 N 
ATOM     25  O   UNL     1      -6.671   7.338  -3.463  0.00  0.00    -0.126 OA
ATOM     26  O   UNL     1      -6.349   9.133  -2.402  0.00  0.00    -0.126 OA
ENDBRANCH  23  24
BRANCH  18  27
ATOM     27  O   UNL     1      -6.322   9.214   0.084  0.00  0.00    -0.490 OA
BRANCH  27  28
ATOM     28  C   UNL     1      -6.204   9.846   1.360  0.00  0.00    +0.229 C 
BRANCH  28  30
ATOM     29  C   UNL     1      -5.815  12.017   2.534  0.00  0.00    +0.007 C 
ATOM     30  C   UNL     1      -5.942  11.341   1.167  0.00  0.00    +0.038 C 
ENDBRANCH  28  30
ENDBRANCH  27  28
ENDBRANCH  18  27
ENDBRANCH  17  21
ENDBRANCH   1  17
TORSDOF 11
