REMARK  Name = ZINC63383931
REMARK  11 active torsions:
REMARK  status: ('A' for Active; 'I' for Inactive)
REMARK    1  A    between atoms: C_1  and  C_2
REMARK    2  A    between atoms: C_2  and  C_3
REMARK    3  A    between atoms: C_3  and  C_5
REMARK    4  A    between atoms: C_3  and  C_6
REMARK    5  A    between atoms: C_6  and  C_8
REMARK    6  A    between atoms: C_6  and  N_15
REMARK    7  A    between atoms: N_10  and  C_11
REMARK    8  A    between atoms: C_11  and  C_12
REMARK    9  A    between atoms: C_12  and  C_13
REMARK   10  A    between atoms: C_12  and  C_14
REMARK   11  A    between atoms: C_16  and  C_18
REMARK                            x       y       z     vdW  Elec       q    Type
REMARK                         _______ _______ _______ _____ _____    ______ ____
ROOT
ATOM      1  C   UNL     1      -4.612  -2.995   2.179  0.00  0.00    +0.167 C 
ATOM      2  C   UNL     1      -5.157  -2.405   3.494  0.00  0.00    +0.065 C 
ATOM      3  C   UNL     1      -5.043  -3.483   4.542  0.00  0.00    -0.034 C 
ATOM      4  C   UNL     1      -5.950  -3.965   5.388  0.00  0.00    -0.001 A 
ATOM      5  C   UNL     1      -7.338  -3.562   5.665  0.00  0.00    +0.010 A 
ATOM      6  C   UNL     1      -7.999  -4.297   6.598  0.00  0.00    +0.001 A 
ATOM      7  C   UNL     1      -7.425  -5.377   7.276  0.00  0.00    +0.002 A 
ATOM      8  C   UNL     1      -6.153  -5.811   7.089  0.00  0.00    +0.026 A 
ATOM      9  C   UNL     1      -5.356  -5.114   6.135  0.00  0.00    +0.043 A 
ATOM     10  N   UNL     1      -4.121  -5.300   5.775  0.00  0.00    -0.375 N 
ATOM     11  C   UNL     1      -3.763  -4.265   4.803  0.00  0.00    +0.131 C 
ATOM     12  C   UNL     1      -3.315  -4.860   3.469  0.00  0.00    +0.134 C 
ATOM     13  N   UNL     1      -4.248  -4.396   2.423  0.00  0.00    -0.276 N 
ATOM     14  C   UNL     1      -4.712  -5.470   1.754  0.00  0.00    +0.248 C 
ATOM     15  O   UNL     1      -5.402  -5.424   0.755  0.00  0.00    -0.270 OA
ATOM     16  C   UNL     1      -4.262  -6.700   2.408  0.00  0.00    +0.042 A 
ATOM     17  C   UNL     1      -3.382  -6.352   3.482  0.00  0.00    -0.013 A 
ATOM     18  C   UNL     1      -2.787  -7.293   4.292  0.00  0.00    +0.006 A 
ATOM     19  C   UNL     1      -3.063  -8.629   4.017  0.00  0.00    +0.000 A 
ATOM     20  C   UNL     1      -3.893  -9.002   2.979  0.00  0.00    +0.001 A 
ATOM     21  C   UNL     1      -4.545  -8.039   2.127  0.00  0.00    +0.013 A 
ATOM     22  H   UNL     1      -3.536  -6.004   6.095  0.00  0.00    +0.160 HD
ENDROOT
BRANCH   1  24
ATOM     23  N   UNL     1      -3.493  -0.905   1.473  0.00  0.00    -0.302 N 
ATOM     24  C   UNL     1      -3.395  -2.222   1.740  0.00  0.00    +0.235 C 
ATOM     25  O   UNL     1      -2.327  -2.785   1.628  0.00  0.00    -0.274 OA
ATOM     26  H   UNL     1      -4.348  -0.454   1.563  0.00  0.00    +0.150 HD
BRANCH  23  27
ATOM     27  C   UNL     1      -2.310  -0.153   1.047  0.00  0.00    +0.162 C 
BRANCH  27  28
ATOM     28  C   UNL     1      -2.487   1.302   1.395  0.00  0.00    +0.234 C 
ATOM     29  O   UNL     1      -3.596   1.745   1.606  0.00  0.00    -0.274 OA
ATOM     30  N   UNL     1      -1.412   2.112   1.472  0.00  0.00    -0.314 N 
ATOM     31  H   UNL     1      -0.533   1.774   1.240  0.00  0.00    +0.149 HD
BRANCH  30  32
ATOM     32  C   UNL     1      -1.572   3.502   1.906  0.00  0.00    +0.107 C 
BRANCH  32  33
ATOM     33  C   UNL     1      -0.233   4.232   1.782  0.00  0.00    -0.000 C 
ATOM     34  C   UNL     1       0.198   4.261   0.314  0.00  0.00    +0.009 C 
ATOM     35  C   UNL     1      -0.384   5.665   2.298  0.00  0.00    +0.009 C 
ENDBRANCH  32  33
ENDBRANCH  30  32
ENDBRANCH  27  28
BRANCH  27  36
ATOM     36  C   UNL     1      -2.132  -0.298  -0.466  0.00  0.00    +0.015 C 
ATOM     37  C   UNL     1      -3.424   0.116  -1.173  0.00  0.00    +0.010 C 
BRANCH  36  39
ATOM     38  C   UNL     1      -0.442  -2.122  -0.224  0.00  0.00    +0.004 C 
ATOM     39  C   UNL     1      -1.809  -1.754  -0.805  0.00  0.00    +0.002 C 
ENDBRANCH  36  39
ENDBRANCH  27  36
ENDBRANCH  23  27
ENDBRANCH   1  24
TORSDOF 7
