REMARK  Name = ZINC39566737
REMARK  9 active torsions:
REMARK  status: ('A' for Active; 'I' for Inactive)
REMARK    1  A    between atoms: C_1  and  C_2
REMARK    2  A    between atoms: C_2  and  C_3
REMARK    3  A    between atoms: C_7  and  C_31
REMARK    4  A    between atoms: C_8  and  N_9
REMARK    5  A    between atoms: C_10  and  C_12
REMARK    6  A    between atoms: C_12  and  O_13
REMARK    7  A    between atoms: O_13  and  C_14
REMARK    8  A    between atoms: C_14  and  C_16
REMARK    9  A    between atoms: C_31  and  C_32
REMARK                            x       y       z     vdW  Elec       q    Type
REMARK                         _______ _______ _______ _____ _____    ______ ____
ROOT
ATOM      1  C   UNL     1      -0.064   5.627   5.878  0.00  0.00    +0.340 C 
ATOM      2  O   UNL     1       0.880   6.342   5.607  0.00  0.00    -0.245 OA
ENDROOT
BRANCH   1   3
ATOM      3  C   UNL     1      -1.134   6.122   6.763  0.00  0.00    +0.060 A 
ATOM      4  C   UNL     1      -2.224   5.307   7.087  0.00  0.00    +0.017 A 
ATOM      5  C   UNL     1      -3.223   5.756   7.910  0.00  0.00    +0.025 A 
ATOM      6  C   UNL     1      -3.185   7.054   8.456  0.00  0.00    +0.050 A 
ATOM      7  C   UNL     1      -2.085   7.850   8.117  0.00  0.00    +0.038 A 
ATOM      8  C   UNL     1      -1.075   7.414   7.300  0.00  0.00    +0.032 A 
ATOM      9  S   UNL     1      -2.397   9.372   8.979  0.00  0.00    -0.051 S 
ATOM     10  C   UNL     1      -3.939   8.908   9.733  0.00  0.00    +0.186 C 
ATOM     11  N   UNL     1      -4.671   9.652  10.504  0.00  0.00    -0.110 NA
ATOM     12  S   UNL     1      -6.088   9.029  11.110  0.00  0.00    +0.073 S 
ATOM     13  O   UNL     1      -7.018  10.103  11.054  0.00  0.00    -0.151 OA
ATOM     14  O   UNL     1      -5.731   8.438  12.352  0.00  0.00    -0.151 OA
ATOM     15  C   UNL     1      -6.529   7.745   9.900  0.00  0.00    +0.212 C 
ATOM     16  C   UNL     1      -5.327   6.817   9.714  0.00  0.00    +0.137 C 
ATOM     17  N   UNL     1      -4.144   7.615   9.305  0.00  0.00    -0.276 N 
ENDBRANCH   1   3
BRANCH   1  18
ATOM     18  O   UNL     1      -0.133   4.382   5.368  0.00  0.00    -0.452 OA
BRANCH  18  19
ATOM     19  C   UNL     1       0.938   3.968   4.518  0.00  0.00    +0.328 C 
BRANCH  19  21
ATOM     20  N   UNL     1       1.575   1.956   3.228  0.00  0.00    -0.282 N 
ATOM     21  C   UNL     1       0.690   2.558   4.046  0.00  0.00    +0.255 C 
ATOM     22  O   UNL     1      -0.306   1.966   4.403  0.00  0.00    -0.272 OA
ATOM     23  H   UNL     1       2.412   2.396   3.010  0.00  0.00    +0.155 HD
BRANCH  20  29
ATOM     24  C   UNL     1       0.913   0.574   1.361  0.00  0.00    -0.026 A 
ATOM     25  C   UNL     1       0.636  -0.673   0.834  0.00  0.00    +0.005 A 
ATOM     26  C   UNL     1       0.725  -1.798   1.633  0.00  0.00    +0.001 A 
ATOM     27  C   UNL     1       1.091  -1.680   2.961  0.00  0.00    +0.005 A 
ATOM     28  C   UNL     1       1.370  -0.436   3.494  0.00  0.00    -0.026 A 
ATOM     29  C   UNL     1       1.287   0.695   2.693  0.00  0.00    +0.040 A 
BRANCH  24  31
ATOM     30  C   UNL     1       2.196   2.130  -0.081  0.00  0.00    +0.009 C 
ATOM     31  C   UNL     1       0.816   1.799   0.490  0.00  0.00    +0.033 C 
ENDBRANCH  24  31
BRANCH  28  32
ATOM     32  C   UNL     1       1.769  -0.308   4.941  0.00  0.00    +0.033 C 
ATOM     33  C   UNL     1       1.684  -1.678   5.617  0.00  0.00    +0.009 C 
ENDBRANCH  28  32
ENDBRANCH  20  29
ENDBRANCH  19  21
ENDBRANCH  18  19
ENDBRANCH   1  18
TORSDOF 7
