REMARK  Name = ZINC35399519
REMARK  6 active torsions:
REMARK  status: ('A' for Active; 'I' for Inactive)
REMARK    1  A    between atoms: C_1  and  O_2
REMARK    2  A    between atoms: O_2  and  C_3
REMARK    3  A    between atoms: C_6  and  C_9
REMARK    4  A    between atoms: C_9  and  C_10
REMARK    5  A    between atoms: C_26  and  O_30
REMARK    6  A    between atoms: O_30  and  C_31
REMARK                            x       y       z     vdW  Elec       q    Type
REMARK                         _______ _______ _______ _____ _____    ______ ____
ROOT
ATOM      1  C   UNL     1      -5.436  -2.862  -1.383  0.00  0.00    +0.220 C 
ATOM      2  O   UNL     1      -4.745  -2.493  -2.309  0.00  0.00    -0.275 OA
ATOM      3  N   UNL     1      -6.610  -3.479  -1.621  0.00  0.00    -0.301 N 
ATOM      4  C   UNL     1      -7.460  -3.925  -0.509  0.00  0.00    +0.110 C 
ATOM      5  C   UNL     1      -8.864  -3.341  -0.698  0.00  0.00    +0.051 C 
ATOM      6  C   UNL     1      -9.387  -3.718  -2.083  0.00  0.00    +0.075 C 
ATOM      7  C   UNL     1      -8.473  -3.138  -3.161  0.00  0.00    +0.051 C 
ATOM      8  C   UNL     1      -7.067  -3.713  -2.998  0.00  0.00    +0.110 C 
ATOM      9  C   UNL     1     -10.787  -3.186  -2.261  0.00  0.00    +0.047 A 
ATOM     10  C   UNL     1     -11.325  -2.040  -1.828  0.00  0.00    +0.025 A 
ATOM     11  C   UNL     1     -12.664  -2.006  -2.275  0.00  0.00    +0.020 A 
ATOM     12  C   UNL     1     -12.892  -3.148  -2.964  0.00  0.00    +0.092 A 
ATOM     13  N   UNL     1     -11.754  -3.882  -2.951  0.00  0.00    -0.316 N 
ATOM     14  C   UNL     1     -11.492  -5.151  -3.494  0.00  0.00    +0.067 A 
ATOM     15  C   UNL     1     -12.377  -5.768  -4.356  0.00  0.00    +0.031 A 
ATOM     16  C   UNL     1     -12.068  -7.008  -4.888  0.00  0.00    +0.048 A 
ATOM     17  C   UNL     1     -10.873  -7.630  -4.555  0.00  0.00    +0.122 A 
ATOM     18  C   UNL     1      -9.986  -7.018  -3.682  0.00  0.00    +0.070 A 
ATOM     19  C   UNL     1     -10.295  -5.781  -3.138  0.00  0.00    +0.055 A 
ATOM     20  N   UNL     1      -9.434  -5.181  -2.210  0.00  0.00    -0.331 N 
ATOM     21  H   UNL     1      -8.867  -5.733  -1.650  0.00  0.00    +0.147 HD
ENDROOT
BRANCH  17  22
ATOM     22  O   UNL     1     -10.571  -8.843  -5.087  0.00  0.00    -0.495 OA
ATOM     23  C   UNL     1     -11.528  -9.417  -5.979  0.00  0.00    +0.277 C 
ENDBRANCH  17  22
BRANCH   1  24
ATOM     24  C   UNL     1      -4.981  -2.629   0.035  0.00  0.00    +0.131 C 
BRANCH  24  28
ATOM     25  C   UNL     1      -1.200  -0.637   0.010  0.00  0.00    +0.120 A 
ATOM     26  C   UNL     1      -2.375   0.101   0.019  0.00  0.00    +0.046 A 
ATOM     27  C   UNL     1      -3.596  -0.545   0.027  0.00  0.00    +0.007 A 
ATOM     28  C   UNL     1      -3.648  -1.927   0.026  0.00  0.00    -0.038 A 
ATOM     29  C   UNL     1      -2.479  -2.665   0.017  0.00  0.00    +0.007 A 
ATOM     30  C   UNL     1      -1.255  -2.024   0.003  0.00  0.00    +0.046 A 
BRANCH  25  32
ATOM     31  C   UNL     1      -0.017   1.425   0.010  0.00  0.00    +0.277 C 
ATOM     32  O   UNL     1       0.002  -0.004   0.002  0.00  0.00    -0.495 OA
ENDBRANCH  25  32
ENDBRANCH  24  28
ENDBRANCH   1  24
TORSDOF 4
