REMARK  Name = ZINC05915196
REMARK  8 active torsions:
REMARK  status: ('A' for Active; 'I' for Inactive)
REMARK    1  A    between atoms: C_1  and  C_2
REMARK    2  A    between atoms: C_2  and  C_27
REMARK    3  A    between atoms: C_7  and  C_11
REMARK    4  A    between atoms: C_11  and  S_12
REMARK    5  A    between atoms: S_12  and  N_15
REMARK    6  A    between atoms: N_15  and  C_16
REMARK    7  A    between atoms: C_19  and  O_22
REMARK    8  A    between atoms: O_22  and  C_23
REMARK                            x       y       z     vdW  Elec       q    Type
REMARK                         _______ _______ _______ _____ _____    ______ ____
ROOT
ATOM      1  S   UNL     1       2.420   5.218  -0.984  0.00  0.00    +0.044 S 
ATOM      2  O   UNL     1       3.691   5.838  -1.124  0.00  0.00    -0.155 OA
ATOM      3  O   UNL     1       1.828   4.525  -2.074  0.00  0.00    -0.155 OA
ENDROOT
BRANCH   1   4
ATOM      4  N   UNL     1       2.639   4.063   0.182  0.00  0.00    -0.221 N 
ATOM      5  H   UNL     1       2.408   3.139  -0.001  0.00  0.00    +0.173 HD
BRANCH   4   6
ATOM      6  C   UNL     1       3.159   4.420   1.432  0.00  0.00    +0.048 A 
ATOM      7  C   UNL     1       2.564   3.945   2.593  0.00  0.00    +0.028 A 
ATOM      8  C   UNL     1       3.077   4.298   3.826  0.00  0.00    +0.048 A 
ATOM      9  C   UNL     1       4.183   5.132   3.904  0.00  0.00    +0.130 A 
ATOM     10  C   UNL     1       4.781   5.603   2.744  0.00  0.00    +0.048 A 
ATOM     11  C   UNL     1       4.269   5.250   1.511  0.00  0.00    +0.028 A 
BRANCH   9  12
ATOM     12  O   UNL     1       4.684   5.485   5.118  0.00  0.00    -0.406 OA
BRANCH  12  13
ATOM     13  C   UNL     1       5.824   6.346   5.125  0.00  0.00    +0.575 C 
ATOM     14  F   UNL     1       5.503   7.549   4.487  0.00  0.00    -0.133 F 
ATOM     15  F   UNL     1       6.205   6.605   6.445  0.00  0.00    -0.133 F 
ATOM     16  F   UNL     1       6.880   5.726   4.448  0.00  0.00    -0.133 F 
ENDBRANCH  12  13
ENDBRANCH   9  12
ENDBRANCH   4   6
ENDBRANCH   1   4
BRANCH   1  17
ATOM     17  C   UNL     1       1.231   6.385  -0.266  0.00  0.00    +0.203 C 
BRANCH  17  23
ATOM     18  C   UNL     1      -1.312   8.261  -0.613  0.00  0.00    +0.012 C 
ATOM     19  C   UNL     1       0.139   8.742  -0.680  0.00  0.00    -0.018 C 
ATOM     20  C   UNL     1       0.387   9.703  -1.897  0.00  0.00    +0.003 C 
ATOM     21  C   UNL     1       1.941   9.822  -1.857  0.00  0.00    +0.005 C 
ATOM     22  C   UNL     1       2.423   8.433  -1.380  0.00  0.00    +0.017 C 
ATOM     23  C   UNL     1       1.113   7.614  -1.171  0.00  0.00    +0.055 C 
ATOM     24  C   UNL     1       0.591   7.351  -2.591  0.00  0.00    +0.142 C 
ATOM     25  O   UNL     1       0.574   6.298  -3.182  0.00  0.00    -0.297 OA
ATOM     26  C   UNL     1       0.105   8.728  -3.081  0.00  0.00    +0.079 C 
ATOM     27  C   UNL     1       0.594   9.360   0.643  0.00  0.00    +0.012 C 
ENDBRANCH  17  23
ENDBRANCH   1  17
TORSDOF 6
