REMARK  Name = ZINC05601786
REMARK  5 active torsions:
REMARK  status: ('A' for Active; 'I' for Inactive)
REMARK    1  A    between atoms: C_4  and  C_7
REMARK    2  A    between atoms: C_7  and  C_8
REMARK    3  A    between atoms: C_13  and  N_14
REMARK    4  A    between atoms: N_14  and  S_15
REMARK    5  A    between atoms: S_15  and  C_18
REMARK                            x       y       z     vdW  Elec       q    Type
REMARK                         _______ _______ _______ _____ _____    ______ ____
ROOT
ATOM      1  C   UNL     1      -0.924   1.780   0.977  0.00  0.00    -0.021 A 
ATOM      2  C   UNL     1      -0.592   3.033   1.454  0.00  0.00    +0.006 A 
ATOM      3  C   UNL     1      -1.247   3.550   2.556  0.00  0.00    +0.000 A 
ATOM      4  C   UNL     1      -2.230   2.812   3.190  0.00  0.00    +0.002 A 
ATOM      5  C   UNL     1      -2.563   1.557   2.721  0.00  0.00    +0.025 A 
ATOM      6  C   UNL     1      -1.911   1.036   1.611  0.00  0.00    +0.052 A 
ENDROOT
BRANCH   6   7
ATOM      7  N   UNL     1      -2.246  -0.234   1.134  0.00  0.00    -0.216 N 
ATOM      8  H   UNL     1      -1.559  -0.808   0.761  0.00  0.00    +0.174 HD
BRANCH   7   9
ATOM      9  S   UNL     1      -3.815  -0.757   1.206  0.00  0.00    +0.073 S 
ATOM     10  O   UNL     1      -4.622   0.310   0.728  0.00  0.00    -0.150 OA
ATOM     11  O   UNL     1      -3.838  -2.051   0.618  0.00  0.00    -0.150 OA
BRANCH   9  12
ATOM     12  C   UNL     1      -4.216  -0.970   2.908  0.00  0.00    +0.122 A 
ATOM     13  C   UNL     1      -5.207  -0.198   3.486  0.00  0.00    +0.030 A 
ATOM     14  C   UNL     1      -5.524  -0.368   4.821  0.00  0.00    +0.002 A 
ATOM     15  C   UNL     1      -4.846  -1.303   5.580  0.00  0.00    +0.001 A 
ATOM     16  C   UNL     1      -3.852  -2.071   5.004  0.00  0.00    +0.017 A 
ATOM     17  C   UNL     1      -3.537  -1.905   3.667  0.00  0.00    +0.044 A 
ATOM     18 BR   UNL     1      -2.177  -2.956   2.878  0.00  0.00    -0.048 Br
ENDBRANCH   9  12
ENDBRANCH   7   9
ENDBRANCH   6   7
BRANCH   1  19
ATOM     19  C   UNL     1      -0.213   1.218  -0.228  0.00  0.00    +0.072 C 
BRANCH  19  23
ATOM     20  C   UNL     1      -2.506   2.026  -3.740  0.00  0.00    +0.000 A 
ATOM     21  C   UNL     1      -1.554   2.933  -3.313  0.00  0.00    +0.000 A 
ATOM     22  C   UNL     1      -0.812   2.671  -2.176  0.00  0.00    +0.004 A 
ATOM     23  C   UNL     1      -1.022   1.503  -1.467  0.00  0.00    -0.043 A 
ATOM     24  C   UNL     1      -1.970   0.594  -1.898  0.00  0.00    +0.004 A 
ATOM     25  C   UNL     1      -2.716   0.858  -3.032  0.00  0.00    +0.000 A 
ENDBRANCH  19  23
ENDBRANCH   1  19
TORSDOF 5
