REMARK  Name = ZINC08963868
REMARK  9 active torsions:
REMARK  status: ('A' for Active; 'I' for Inactive)
REMARK    1  A    between atoms: C_1  and  N_2
REMARK    2  A    between atoms: C_9  and  C_11
REMARK    3  A    between atoms: C_11  and  C_13
REMARK    4  A    between atoms: C_11  and  N_59
REMARK    5  A    between atoms: C_13  and  N_14
REMARK    6  A    between atoms: C_15  and  C_17
REMARK    7  A    between atoms: N_19  and  C_20
REMARK    8  A    between atoms: C_26  and  N_59
REMARK    9  A    between atoms: C_27  and  N_59
REMARK                            x       y       z     vdW  Elec       q    Type
REMARK                         _______ _______ _______ _____ _____    ______ ____
ROOT
ATOM      1  C   UNL     1      -3.290   5.990  -0.903  0.00  0.00    -0.021 C 
ENDROOT
BRANCH   1  10
ATOM      2  C   UNL     1      -0.940   0.339   1.197  0.00  0.00    +0.129 C 
ATOM      3  N   UNL     1      -2.077   0.580   0.299  0.00  0.00    -0.332 N 
ATOM      4  C   UNL     1      -1.808   0.043  -1.053  0.00  0.00    +0.109 C 
ATOM      5  C   UNL     1      -2.599   1.006  -1.968  0.00  0.00    +0.056 C 
ATOM      6  C   UNL     1      -2.664   2.276  -1.144  0.00  0.00    -0.025 A 
ATOM      7  C   UNL     1      -2.340   1.952   0.169  0.00  0.00    +0.033 A 
ATOM      8  C   UNL     1      -2.321   2.960   1.131  0.00  0.00    +0.023 A 
ATOM      9  C   UNL     1      -2.626   4.259   0.781  0.00  0.00    +0.004 A 
ATOM     10  C   UNL     1      -2.953   4.570  -0.526  0.00  0.00    -0.059 A 
ATOM     11  C   UNL     1      -2.972   3.575  -1.488  0.00  0.00    +0.007 A 
ENDBRANCH   1  10
BRANCH   1  14
ATOM     12  C   UNL     1      -3.463   7.276   1.141  0.00  0.00    -0.096 C 
ATOM     13  C   UNL     1      -5.200   7.432  -0.538  0.00  0.00    -0.096 C 
ATOM     14  N   UNL     1      -4.219   6.536   0.109  0.00  0.00    +0.382 N 
ATOM     15  H   UNL     1      -4.720   5.759   0.555  0.00  0.00    -0.082 HD
ENDBRANCH   1  14
BRANCH   1  16
ATOM     16  C   UNL     1      -2.007   6.822  -0.951  0.00  0.00    +0.094 C 
BRANCH  16  17
ATOM     17  N   UNL     1      -2.324   8.184  -1.389  0.00  0.00    -0.309 N 
ATOM     18  C   UNL     1      -1.370   9.135  -1.377  0.00  0.00    +0.299 C 
ATOM     19  O   UNL     1      -0.247   8.864  -1.004  0.00  0.00    -0.265 OA
ATOM     20  H   UNL     1      -3.221   8.400  -1.687  0.00  0.00    +0.149 HD
BRANCH  18  21
ATOM     21  C   UNL     1      -1.694  10.524  -1.824  0.00  0.00    +0.299 C 
ATOM     22  O   UNL     1      -2.816  10.795  -2.197  0.00  0.00    -0.265 OA
ATOM     23  N   UNL     1      -0.739  11.475  -1.813  0.00  0.00    -0.305 N 
ATOM     24  H   UNL     1       0.158  11.259  -1.514  0.00  0.00    +0.149 HD
BRANCH  23  25
ATOM     25  C   UNL     1      -1.057  12.837  -2.251  0.00  0.00    +0.073 C 
ATOM     26  C   UNL     1      -0.922  12.928  -3.772  0.00  0.00    +0.022 C 
ATOM     27  C   UNL     1      -1.254  14.350  -4.229  0.00  0.00    +0.002 C 
ATOM     28  C   UNL     1      -0.286  15.335  -3.572  0.00  0.00    +0.000 C 
ATOM     29  C   UNL     1      -0.420  15.245  -2.051  0.00  0.00    +0.002 C 
ATOM     30  C   UNL     1      -0.088  13.823  -1.593  0.00  0.00    +0.022 C 
ENDBRANCH  23  25
ENDBRANCH  18  21
ENDBRANCH  16  17
ENDBRANCH   1  16
TORSDOF 6
