REMARK  Name = ZINC28057805
REMARK  2 active torsions:
REMARK  status: ('A' for Active; 'I' for Inactive)
REMARK    1  A    between atoms: C_5  and  C_7
REMARK    2  A    between atoms: C_18  and  C_20
REMARK                            x       y       z     vdW  Elec       q    Type
REMARK                         _______ _______ _______ _____ _____    ______ ____
ROOT
ATOM      1  C   UNL     1       2.584  -0.310  -2.227  0.00  0.00    +0.177 C 
ATOM      2  C   UNL     1       2.973   0.919  -1.443  0.00  0.00    +0.026 C 
ATOM      3  C   UNL     1       3.720   1.893  -1.966  0.00  0.00    +0.050 C 
ATOM      4  C   UNL     1       4.056   3.060  -1.115  0.00  0.00    +0.039 A 
ATOM      5  C   UNL     1       4.515   4.251  -1.663  0.00  0.00    +0.033 A 
ATOM      6  C   UNL     1       4.819   5.312  -0.829  0.00  0.00    +0.042 A 
ATOM      7  C   UNL     1       4.665   5.188   0.542  0.00  0.00    +0.023 A 
ATOM      8  C   UNL     1       4.207   4.006   1.094  0.00  0.00    +0.048 A 
ATOM      9  C   UNL     1       3.898   2.938   0.272  0.00  0.00    +0.131 A 
ATOM     10  O   UNL     1       3.440   1.763   0.773  0.00  0.00    -0.479 OA
ATOM     11  C   UNL     1       2.490   1.047  -0.016  0.00  0.00    +0.234 C 
ATOM     12 CL   UNL     1       5.393   6.804  -1.503  0.00  0.00    -0.084 Cl
ATOM     13  N   UNL     1       4.202   1.842  -3.280  0.00  0.00    -0.282 N 
ATOM     14  C   UNL     1       4.126   0.625  -3.936  0.00  0.00    +0.240 A 
ATOM     15  N   UNL     1       3.374  -0.396  -3.447  0.00  0.00    -0.201 N 
ATOM     16  N   UNL     1       3.545  -1.447  -4.347  0.00  0.00    -0.042 NA
ATOM     17  N   UNL     1       4.338  -1.014  -5.272  0.00  0.00    -0.021 NA
ATOM     18  N   UNL     1       4.681   0.206  -5.036  0.00  0.00    -0.092 NA
ATOM     19  H   UNL     1       4.618   2.746  -3.748  0.00  0.00    +0.155 HD
ENDROOT
BRANCH   1  24
ATOM     20  C   UNL     1      -0.691   0.884  -3.675  0.00  0.00    +0.001 A 
ATOM     21  C   UNL     1      -1.562  -0.096  -3.237  0.00  0.00    +0.003 A 
ATOM     22  C   UNL     1      -1.093  -1.146  -2.470  0.00  0.00    +0.039 A 
ATOM     23  C   UNL     1       0.252  -1.219  -2.147  0.00  0.00    +0.129 A 
ATOM     24  C   UNL     1       1.122  -0.234  -2.582  0.00  0.00    +0.017 A 
ATOM     25  C   UNL     1       0.650   0.815  -3.348  0.00  0.00    +0.009 A 
ATOM     26  F   UNL     1       0.713  -2.248  -1.403  0.00  0.00    -0.205 F 
ENDBRANCH   1  24
BRANCH  11  27
ATOM     27  C   UNL     1       1.175   1.783   0.000  0.00  0.00    -0.003 A 
ATOM     28  C   UNL     1       1.144   3.147  -0.222  0.00  0.00    +0.008 A 
ATOM     29  C   UNL     1      -0.061   3.823  -0.203  0.00  0.00    +0.015 A 
ATOM     30  C   UNL     1      -1.238   3.134   0.030  0.00  0.00    +0.018 A 
ATOM     31  C   UNL     1      -1.206   1.769   0.252  0.00  0.00    +0.015 A 
ATOM     32  C   UNL     1       0.000   1.094   0.237  0.00  0.00    +0.008 A 
ATOM     33 BR   UNL     1      -2.888   4.057   0.049  0.00  0.00    -0.050 Br
ENDBRANCH  11  27
TORSDOF 2
