REMARK  Name = ZINC12367682
REMARK  5 active torsions:
REMARK  status: ('A' for Active; 'I' for Inactive)
REMARK    1  A    between atoms: C_1  and  C_2
REMARK    2  A    between atoms: C_13  and  O_15
REMARK    3  A    between atoms: O_15  and  C_16
REMARK    4  A    between atoms: C_16  and  C_18
REMARK    5  A    between atoms: C_31  and  O_34
REMARK                            x       y       z     vdW  Elec       q    Type
REMARK                         _______ _______ _______ _____ _____    ______ ____
ROOT
ATOM      1  C   UNL     1      -0.264   5.182  -2.677  0.00  0.00    +0.015 C 
ATOM      2  C   UNL     1      -1.690   5.082  -2.130  0.00  0.00    +0.008 C 
ATOM      3  C   UNL     1      -1.849   5.834  -0.837  0.00  0.00    +0.011 C 
ATOM      4  C   UNL     1      -1.444   4.982   0.376  0.00  0.00    +0.005 C 
ATOM      5  C   UNL     1      -0.681   3.737  -0.047  0.00  0.00    +0.002 C 
ATOM      6  C   UNL     1      -1.572   2.846  -0.912  0.00  0.00    -0.001 C 
ATOM      7  C   UNL     1      -2.204   3.635  -2.011  0.00  0.00    +0.002 C 
ATOM      8  C   UNL     1      -2.115   3.136  -3.453  0.00  0.00    +0.008 C 
ATOM      9  C   UNL     1      -2.517   4.385  -4.287  0.00  0.00    +0.045 C 
ATOM     10  C   UNL     1      -2.629   5.560  -3.273  0.00  0.00    +0.183 C 
ATOM     11  C   UNL     1      -0.799   1.615  -1.357  0.00  0.00    +0.037 C 
ATOM     12  C   UNL     1      -0.071   0.980  -0.165  0.00  0.00    +0.136 C 
ATOM     13  C   UNL     1      -0.656   1.511   1.171  0.00  0.00    +0.063 C 
ATOM     14  C   UNL     1      -0.105   2.949   1.123  0.00  0.00    +0.015 C 
ATOM     15  C   UNL     1      -0.202   3.667   2.439  0.00  0.00    +0.013 C 
ATOM     16  C   UNL     1       0.479   2.877   3.558  0.00  0.00    +0.032 C 
ATOM     17  C   UNL     1      -0.128   1.473   3.624  0.00  0.00    +0.116 C 
ATOM     18  C   UNL     1       0.088   0.757   2.294  0.00  0.00    +0.052 C 
ATOM     19  C   UNL     1       1.365   2.635   0.725  0.00  0.00    +0.168 C 
ATOM     20  O   UNL     1       1.283   1.499  -0.157  0.00  0.00    -0.375 OA
ATOM     21 BR   UNL     1      -2.597   1.348   1.382  0.00  0.00    -0.081 Br
ENDROOT
BRANCH  17  22
ATOM     22  O   UNL     1       0.499   0.731   4.673  0.00  0.00    -0.392 OA
ATOM     23  H   UNL     1       0.398   1.126   5.550  0.00  0.00    +0.210 HD
ENDBRANCH  17  22
BRANCH  10  24
ATOM     24  O   UNL     1      -2.127   6.791  -3.845  0.00  0.00    -0.457 OA
BRANCH  24  25
ATOM     25  C   UNL     1      -3.037   7.644  -4.354  0.00  0.00    +0.339 C 
ATOM     26  O   UNL     1      -4.218   7.364  -4.319  0.00  0.00    -0.245 OA
BRANCH  25  27
ATOM     27  C   UNL     1      -2.598   8.921  -4.955  0.00  0.00    +0.059 A 
ATOM     28  C   UNL     1      -1.241   9.249  -4.991  0.00  0.00    +0.015 A 
ATOM     29  C   UNL     1      -0.838  10.440  -5.557  0.00  0.00    +0.001 A 
ATOM     30  C   UNL     1      -1.775  11.314  -6.079  0.00  0.00    +0.000 A 
ATOM     31  C   UNL     1      -3.122  10.998  -6.042  0.00  0.00    +0.001 A 
ATOM     32  C   UNL     1      -3.539   9.807  -5.483  0.00  0.00    +0.015 A 
ENDBRANCH  25  27
ENDBRANCH  24  25
ENDBRANCH  10  24
TORSDOF 4
