REMARK  Name = ZINC06584796
REMARK  4 active torsions:
REMARK  status: ('A' for Active; 'I' for Inactive)
REMARK    1  A    between atoms: C_1  and  C_2
REMARK    2  A    between atoms: C_2  and  C_10
REMARK    3  A    between atoms: C_5  and  S_8
REMARK    4  A    between atoms: S_8  and  C_9
REMARK                            x       y       z     vdW  Elec       q    Type
REMARK                         _______ _______ _______ _____ _____    ______ ____
ROOT
ATOM      1  C   UNL     1      -0.144   0.849   2.495  0.00  0.00    +0.014 C 
ATOM      2  C   UNL     1      -0.718   1.574   1.275  0.00  0.00    +0.000 C 
ATOM      3  C   UNL     1      -2.216   1.263   1.149  0.00  0.00    +0.111 C 
ATOM      4  N   UNL     1      -2.711   1.965  -0.045  0.00  0.00    -0.323 N 
ATOM      5  C   UNL     1      -1.942   1.952  -1.185  0.00  0.00    +0.149 C 
ATOM      6  N   UNL     1      -0.708   1.564  -1.182  0.00  0.00    -0.263 NA
ATOM      7  C   UNL     1      -0.013   1.086   0.008  0.00  0.00    +0.152 C 
ATOM      8  C   UNL     1      -0.517   3.083   1.427  0.00  0.00    +0.014 C 
ATOM      9  H   UNL     1      -3.564   2.427  -0.029  0.00  0.00    +0.148 HD
ENDROOT
BRANCH   5  10
ATOM     10  S   UNL     1      -2.662   2.482  -2.704  0.00  0.00    -0.094 S 
ATOM     11  C   UNL     1      -1.250   2.263  -3.815  0.00  0.00    +0.093 C 
ENDBRANCH   5  10
TORSDOF 1
