REMARK  Name = ZINC43242033
REMARK  6 active torsions:
REMARK  status: ('A' for Active; 'I' for Inactive)
REMARK    1  A    between atoms: C_1  and  N_2
REMARK    2  A    between atoms: C_10  and  C_11
REMARK    3  A    between atoms: C_11  and  S_12
REMARK    4  A    between atoms: S_12  and  C_13
REMARK    5  A    between atoms: C_16  and  C_19
REMARK    6  A    between atoms: N_17  and  C_18
REMARK                            x       y       z     vdW  Elec       q    Type
REMARK                         _______ _______ _______ _____ _____    ______ ____
ROOT
ATOM      1  C   UNL     1       0.032  -0.341   2.523  0.00  0.00    +0.151 C 
ENDROOT
BRANCH   1  11
ATOM      2  C   UNL     1      -0.018   1.461   0.010  0.00  0.00    +0.150 C 
ATOM      3  N   UNL     1       0.002  -0.004   0.002  0.00  0.00    -0.330 N 
ATOM      4  C   UNL     1       0.008  -0.817  -1.115  0.00  0.00    +0.069 A 
ATOM      5  C   UNL     1      -0.002  -0.578  -2.482  0.00  0.00    +0.029 A 
ATOM      6  C   UNL     1       0.008  -1.637  -3.364  0.00  0.00    +0.022 A 
ATOM      7  C   UNL     1       0.028  -2.944  -2.894  0.00  0.00    +0.043 A 
ATOM      8  C   UNL     1       0.038  -3.199  -1.541  0.00  0.00    +0.050 A 
ATOM      9  C   UNL     1       0.028  -2.136  -0.634  0.00  0.00    +0.091 A 
ATOM     10  N   UNL     1       0.033  -2.063   0.722  0.00  0.00    -0.231 NA
ATOM     11  C   UNL     1       0.024  -0.816   1.093  0.00  0.00    +0.121 A 
ATOM     12 CL   UNL     1       0.039  -4.264  -4.020  0.00  0.00    -0.083 Cl
ENDBRANCH   1  11
BRANCH   1  13
ATOM     13  S   UNL     1      -1.675  -0.173   3.114  0.00  0.00    -0.078 S 
BRANCH  13  14
ATOM     14  C   UNL     1      -1.498   0.383   4.776  0.00  0.00    +0.192 A 
ATOM     15  N   UNL     1      -0.368   0.616   5.404  0.00  0.00    -0.122 NA
ATOM     16  N   UNL     1      -0.601   1.010   6.605  0.00  0.00    -0.125 NA
ATOM     17  C   UNL     1      -1.897   1.051   6.819  0.00  0.00    +0.200 A 
ATOM     18  N   UNL     1      -2.512   0.656   5.652  0.00  0.00    -0.303 N 
ATOM     19  C   UNL     1      -3.951   0.549   5.401  0.00  0.00    +0.153 C 
BRANCH  17  20
ATOM     20  C   UNL     1      -2.565   1.451   8.068  0.00  0.00    +0.172 A 
ATOM     21  C   UNL     1      -1.987   2.116   9.107  0.00  0.00    +0.053 A 
ATOM     22  C   UNL     1      -2.987   2.289  10.084  0.00  0.00    +0.042 A 
ATOM     23  C   UNL     1      -4.113   1.729   9.601  0.00  0.00    +0.196 A 
ATOM     24  O   UNL     1      -3.857   1.228   8.381  0.00  0.00    -0.460 OA
ENDBRANCH  17  20
ENDBRANCH  13  14
ENDBRANCH   1  13
TORSDOF 4
