REMARK  Name = ZINC41431556
REMARK  6 active torsions:
REMARK  status: ('A' for Active; 'I' for Inactive)
REMARK    1  A    between atoms: C_1  and  C_2
REMARK    2  A    between atoms: C_3  and  O_20
REMARK    3  A    between atoms: C_10  and  C_11
REMARK    4  A    between atoms: O_20  and  C_21
REMARK    5  A    between atoms: C_21  and  C_22
REMARK    6  A    between atoms: C_22  and  C_24
REMARK                            x       y       z     vdW  Elec       q    Type
REMARK                         _______ _______ _______ _____ _____    ______ ____
ROOT
ATOM      1  C   UNL     1       0.987   1.400   0.042  0.00  0.00    +0.051 C 
ATOM      2  C   UNL     1       0.927  -0.106   0.056  0.00  0.00    +0.034 A 
ATOM      3  C   UNL     1       1.114  -0.818  -1.118  0.00  0.00    +0.127 A 
ATOM      4  C   UNL     1       1.062  -2.209  -1.119  0.00  0.00    +0.047 A 
ATOM      5  C   UNL     1       0.825  -2.888   0.043  0.00  0.00    +0.019 A 
ATOM      6  C   UNL     1       0.636  -2.184   1.233  0.00  0.00    +0.068 A 
ATOM      7  C   UNL     1       0.692  -0.781   1.247  0.00  0.00    +0.146 A 
ATOM      8  O   UNL     1       0.487  -0.329   2.503  0.00  0.00    -0.451 OA
ATOM      9  C   UNL     1       0.294  -1.344   3.378  0.00  0.00    +0.176 C 
ATOM     10  C   UNL     1       0.064  -1.222   4.710  0.00  0.00    +0.059 C 
ATOM     11  C   UNL     1       0.368  -2.603   2.621  0.00  0.00    +0.231 C 
ATOM     12  O   UNL     1       0.247  -3.739   3.047  0.00  0.00    -0.283 OA
ENDROOT
BRANCH  10  13
ATOM     13  C   UNL     1       0.162   0.095   5.354  0.00  0.00    -0.007 A 
ATOM     14  C   UNL     1       0.140   1.261   4.581  0.00  0.00    +0.009 A 
ATOM     15  C   UNL     1       0.232   2.492   5.194  0.00  0.00    +0.001 A 
ATOM     16  C   UNL     1       0.348   2.578   6.571  0.00  0.00    +0.001 A 
ATOM     17  C   UNL     1       0.371   1.431   7.344  0.00  0.00    +0.016 A 
ATOM     18  C   UNL     1       0.274   0.190   6.747  0.00  0.00    +0.025 A 
ATOM     19 BR   UNL     1       0.299  -1.377   7.806  0.00  0.00    -0.050 Br
ENDBRANCH  10  13
BRANCH   3  20
ATOM     20  O   UNL     1       1.349  -0.153  -2.278  0.00  0.00    -0.487 OA
BRANCH  20  21
ATOM     21  C   UNL     1       1.533  -0.944  -3.454  0.00  0.00    +0.259 C 
BRANCH  21  22
ATOM     22  C   UNL     1       1.781  -0.040  -4.634  0.00  0.00    -0.043 C 
ATOM     23  C   UNL     1       1.800   1.259  -4.471  0.00  0.00    +0.011 C 
ATOM     24  C   UNL     1       2.007  -0.632  -6.002  0.00  0.00    +0.042 C 
ENDBRANCH  21  22
ENDBRANCH  20  21
ENDBRANCH   3  20
TORSDOF 4
