REMARK  Name = ZINC04625042
REMARK  11 active torsions:
REMARK  status: ('A' for Active; 'I' for Inactive)
REMARK    1  A    between atoms: C_1  and  C_2
REMARK    2  A    between atoms: C_2  and  O_3
REMARK    3  A    between atoms: O_3  and  C_4
REMARK    4  A    between atoms: C_4  and  C_6
REMARK    5  A    between atoms: C_7  and  C_22
REMARK    6  A    between atoms: C_12  and  C_14
REMARK    7  A    between atoms: C_16  and  C_21
REMARK    8  A    between atoms: C_19  and  C_20
REMARK    9  A    between atoms: C_22  and  N_62
REMARK   10  A    between atoms: C_24  and  C_31
REMARK   11  A    between atoms: C_27  and  C_30
REMARK                            x       y       z     vdW  Elec       q    Type
REMARK                         _______ _______ _______ _____ _____    ______ ____
ROOT
ATOM      1  C   UNL     1       3.888   3.779   2.708  0.00  0.00    +0.076 C 
ATOM      2  C   UNL     1       3.636   3.496   1.412  0.00  0.00    +0.008 C 
ATOM      3  N   UNL     1       3.217   4.466   0.546  0.00  0.00    -0.274 N 
ATOM      4  C   UNL     1       3.033   5.744   0.897  0.00  0.00    +0.304 C 
ATOM      5  O   UNL     1       2.658   6.537   0.055  0.00  0.00    -0.252 OA
ATOM      6  N   UNL     1       3.248   6.181   2.154  0.00  0.00    -0.288 N 
ATOM      7  C   UNL     1       3.701   5.212   3.165  0.00  0.00    +0.144 C 
ATOM      8  H   UNL     1       3.045   4.214  -0.374  0.00  0.00    +0.156 HD
ATOM      9  H   UNL     1       3.108   7.113   2.387  0.00  0.00    +0.151 HD
ENDROOT
BRANCH   7  10
ATOM     10  C   UNL     1       5.014   5.700   3.722  0.00  0.00    -0.019 A 
ATOM     11  C   UNL     1       6.200   5.136   3.291  0.00  0.00    +0.009 A 
ATOM     12  C   UNL     1       7.404   5.584   3.802  0.00  0.00    -0.050 A 
ATOM     13  C   UNL     1       7.421   6.598   4.742  0.00  0.00    +0.003 A 
ATOM     14  C   UNL     1       6.236   7.162   5.172  0.00  0.00    +0.004 A 
ATOM     15  C   UNL     1       5.032   6.717   4.658  0.00  0.00    -0.045 A 
ATOM     16  C   UNL     1       3.739   7.336   5.123  0.00  0.00    +0.044 C 
ATOM     17  C   UNL     1       8.697   4.969   3.333  0.00  0.00    +0.044 C 
ENDBRANCH   7  10
BRANCH   1  18
ATOM     18  C   UNL     1       4.315   2.774   3.607  0.00  0.00    +0.339 C 
ATOM     19  O   UNL     1       3.552   2.352   4.455  0.00  0.00    -0.245 OA
BRANCH  18  20
ATOM     20  O   UNL     1       5.570   2.284   3.523  0.00  0.00    -0.462 OA
BRANCH  20  22
ATOM     21  C   UNL     1       7.384   0.856   4.237  0.00  0.00    +0.048 C 
ATOM     22  C   UNL     1       5.902   1.200   4.393  0.00  0.00    +0.229 C 
ENDBRANCH  20  22
ENDBRANCH  18  20
ENDBRANCH   1  18
BRANCH   2  23
ATOM     23  C   UNL     1       3.813   2.084   0.914  0.00  0.00    -0.026 C 
BRANCH  23  31
ATOM     24  C   UNL     1       6.184   2.331   0.488  0.00  0.00    -0.075 C 
ATOM     25  C   UNL     1       7.235   2.436  -0.619  0.00  0.00    -0.031 C 
ATOM     26  C   UNL     1       7.275   1.121  -1.403  0.00  0.00    +0.003 C 
ATOM     27  C   UNL     1       5.883   0.832  -1.972  0.00  0.00    -0.031 C 
ATOM     28  C   UNL     1       4.872   0.774  -0.825  0.00  0.00    -0.075 C 
ATOM     29  C   UNL     1       5.488   1.944  -2.946  0.00  0.00    +0.005 C 
ATOM     30  C   UNL     1       8.607   2.703   0.002  0.00  0.00    +0.005 C 
ATOM     31  N   UNL     1       4.863   2.076  -0.126  0.00  0.00    +0.384 N 
ATOM     32  H   UNL     1       4.664   2.819  -0.807  0.00  0.00    -0.081 HD
ENDBRANCH  23  31
ENDBRANCH   2  23
TORSDOF 6
