REMARK  Name = ZINC13039135
REMARK  17 active torsions:
REMARK  status: ('A' for Active; 'I' for Inactive)
REMARK    1  A    between atoms: C_1  and  C_2
REMARK    2  A    between atoms: C_6  and  O_8
REMARK    3  A    between atoms: O_8  and  C_9
REMARK    4  A    between atoms: C_9  and  C_10
REMARK    5  A    between atoms: N_12  and  C_13
REMARK    6  A    between atoms: N_12  and  C_14
REMARK    7  A    between atoms: C_14  and  C_15
REMARK    8  A    between atoms: N_17  and  C_18
REMARK    9  A    between atoms: N_17  and  C_22
REMARK   10  A    between atoms: C_18  and  C_19
REMARK   11  A    between atoms: C_19  and  C_20
REMARK   12  A    between atoms: C_19  and  C_21
REMARK   13  A    between atoms: C_23  and  N_35
REMARK   14  A    between atoms: N_24  and  C_31
REMARK   15  A    between atoms: C_31  and  C_32
REMARK   16  A    between atoms: C_32  and  C_33
REMARK   17  A    between atoms: C_32  and  C_34
REMARK                            x       y       z     vdW  Elec       q    Type
REMARK                         _______ _______ _______ _____ _____    ______ ____
ROOT
ATOM      1  C   UNL     1      -5.864  -3.500  -1.130  0.00  0.00    +0.237 C 
ATOM      2  O   UNL     1      -4.940  -3.603  -1.909  0.00  0.00    -0.274 OA
ATOM      3  N   UNL     1      -7.108  -3.863  -1.507  0.00  0.00    -0.263 N 
ENDROOT
BRANCH   3   4
ATOM      4  C   UNL     1      -7.351  -4.274  -2.834  0.00  0.00    +0.140 A 
ATOM      5  C   UNL     1      -7.128  -3.411  -3.888  0.00  0.00    +0.127 A 
ATOM      6  N   UNL     1      -7.374  -3.840  -5.171  0.00  0.00    -0.280 N 
ATOM      7  C   UNL     1      -7.827  -5.087  -5.397  0.00  0.00    +0.331 A 
ATOM      8  O   UNL     1      -8.039  -5.447  -6.539  0.00  0.00    -0.246 OA
ATOM      9  N   UNL     1      -8.051  -5.941  -4.383  0.00  0.00    -0.273 N 
ATOM     10  H   UNL     1      -8.392  -6.861  -4.578  0.00  0.00    +0.173 HD
ATOM     11  C   UNL     1      -7.821  -5.572  -3.108  0.00  0.00    +0.277 A 
ATOM     12  O   UNL     1      -8.022  -6.356  -2.196  0.00  0.00    -0.266 OA
BRANCH   5  13
ATOM     13  N   UNL     1      -6.665  -2.138  -3.657  0.00  0.00    -0.343 N 
ATOM     14  H   UNL     1      -6.388  -1.876  -2.765  0.00  0.00    +0.144 HD
ATOM     15  H   UNL     1      -6.615  -1.500  -4.387  0.00  0.00    +0.144 HD
ENDBRANCH   5  13
BRANCH   6  16
ATOM     16  C   UNL     1      -7.140  -2.935  -6.299  0.00  0.00    +0.131 C 
BRANCH  16  17
ATOM     17  C   UNL     1      -5.701  -3.096  -6.793  0.00  0.00    +0.003 C 
ATOM     18  C   UNL     1      -5.494  -2.244  -8.047  0.00  0.00    +0.009 C 
ATOM     19  C   UNL     1      -4.733  -2.639  -5.700  0.00  0.00    +0.009 C 
ENDBRANCH  16  17
ENDBRANCH   6  16
ENDBRANCH   3   4
BRANCH   1  20
ATOM     20  C   UNL     1      -5.623  -2.965   0.258  0.00  0.00    +0.203 C 
BRANCH  20  23
ATOM     21  C   UNL     1      -3.750  -1.413   0.110  0.00  0.00    +0.253 C 
ATOM     22  O   UNL     1      -4.519  -0.570  -0.301  0.00  0.00    -0.272 OA
ATOM     23  N   UNL     1      -4.202  -2.645   0.418  0.00  0.00    -0.293 N 
ATOM     24  C   UNL     1      -3.273  -3.663   0.914  0.00  0.00    +0.132 C 
BRANCH  21  25
ATOM     25  C   UNL     1      -2.289  -1.084   0.274  0.00  0.00    +0.324 C 
BRANCH  25  26
ATOM     26  O   UNL     1      -2.059   0.272  -0.115  0.00  0.00    -0.483 OA
BRANCH  26  32
ATOM     27  C   UNL     1       1.129   3.922  -0.692  0.00  0.00    +0.044 C 
ATOM     28  C   UNL     1       0.808   2.503  -0.298  0.00  0.00    -0.047 A 
ATOM     29  C   UNL     1       1.814   1.666   0.149  0.00  0.00    +0.003 A 
ATOM     30  C   UNL     1       1.523   0.364   0.511  0.00  0.00    +0.004 A 
ATOM     31  C   UNL     1       0.226  -0.105   0.427  0.00  0.00    +0.045 A 
ATOM     32  C   UNL     1      -0.784   0.732  -0.026  0.00  0.00    +0.121 A 
ATOM     33  C   UNL     1      -0.490   2.039  -0.384  0.00  0.00    +0.049 A 
ENDBRANCH  26  32
ENDBRANCH  25  26
ENDBRANCH  21  25
ENDBRANCH  20  23
ENDBRANCH   1  20
BRANCH   3  34
ATOM     34  C   UNL     1      -8.205  -3.832  -0.537  0.00  0.00    +0.117 C 
BRANCH  34  35
ATOM     35  C   UNL     1      -8.809  -2.427  -0.495  0.00  0.00    +0.001 C 
ATOM     36  C   UNL     1      -9.463  -2.112  -1.841  0.00  0.00    +0.009 C 
ATOM     37  C   UNL     1      -9.862  -2.357   0.613  0.00  0.00    +0.009 C 
ENDBRANCH  34  35
ENDBRANCH   3  34
TORSDOF 11
