REMARK  Name = ZINC18282658
REMARK  7 active torsions:
REMARK  status: ('A' for Active; 'I' for Inactive)
REMARK    1  A    between atoms: C_4  and  C_7
REMARK    2  A    between atoms: C_10  and  C_12
REMARK    3  A    between atoms: N_14  and  C_15
REMARK    4  A    between atoms: C_20  and  C_21
REMARK    5  A    between atoms: C_26  and  N_27
REMARK    6  A    between atoms: C_28  and  C_30
REMARK    7  A    between atoms: C_33  and  C_35
REMARK                            x       y       z     vdW  Elec       q    Type
REMARK                         _______ _______ _______ _____ _____    ______ ____
ROOT
ATOM      1  C   UNL     1       2.110  -2.768  -4.301  0.00  0.00    +0.041 A 
ATOM      2  C   UNL     1       0.919  -2.059  -4.246  0.00  0.00    +0.024 A 
ATOM      3  C   UNL     1      -0.055  -2.266  -5.205  0.00  0.00    +0.002 A 
ATOM      4  C   UNL     1       0.152  -3.179  -6.224  0.00  0.00    +0.001 A 
ATOM      5  C   UNL     1       1.332  -3.891  -6.292  0.00  0.00    +0.010 A 
ATOM      6  C   UNL     1       2.323  -3.688  -5.334  0.00  0.00    +0.005 A 
ENDROOT
BRANCH   6   7
ATOM      7  C   UNL     1       3.595  -4.446  -5.406  0.00  0.00    +0.005 A 
ATOM      8  C   UNL     1       4.470  -4.245  -6.471  0.00  0.00    +0.010 A 
ATOM      9  C   UNL     1       5.653  -4.954  -6.533  0.00  0.00    +0.001 A 
ATOM     10  C   UNL     1       5.974  -5.864  -5.541  0.00  0.00    +0.002 A 
ATOM     11  C   UNL     1       5.114  -6.072  -4.480  0.00  0.00    +0.024 A 
ATOM     12  C   UNL     1       3.925  -5.363  -4.401  0.00  0.00    +0.041 A 
BRANCH  12  13
ATOM     13  N   UNL     1       3.056  -5.567  -3.325  0.00  0.00    -0.285 N 
ATOM     14  C   UNL     1       3.079  -6.735  -2.653  0.00  0.00    +0.221 C 
ATOM     15  O   UNL     1       3.778  -7.646  -3.043  0.00  0.00    -0.275 OA
ATOM     16  H   UNL     1       2.437  -4.868  -3.062  0.00  0.00    +0.155 HD
BRANCH  14  17
ATOM     17  C   UNL     1       2.234  -6.910  -1.418  0.00  0.00    +0.083 C 
ATOM     18  C   UNL     1       1.053  -7.879  -1.501  0.00  0.00    +0.022 C 
ATOM     19  C   UNL     1       2.301  -8.260  -0.701  0.00  0.00    +0.032 C 
BRANCH  19  20
ATOM     20  C   UNL     1       2.193  -8.257   0.802  0.00  0.00    -0.044 A 
ATOM     21  C   UNL     1       1.058  -7.755   1.412  0.00  0.00    +0.004 A 
ATOM     22  C   UNL     1       0.959  -7.751   2.791  0.00  0.00    +0.000 A 
ATOM     23  C   UNL     1       1.994  -8.250   3.559  0.00  0.00    +0.000 A 
ATOM     24  C   UNL     1       3.128  -8.753   2.950  0.00  0.00    +0.000 A 
ATOM     25  C   UNL     1       3.225  -8.760   1.571  0.00  0.00    +0.004 A 
ENDBRANCH  19  20
ENDBRANCH  14  17
ENDBRANCH  12  13
ENDBRANCH   6   7
BRANCH   1  28
ATOM     26  C   UNL     1       2.743  -2.291  -2.060  0.00  0.00    +0.221 C 
ATOM     27  O   UNL     1       1.574  -2.144  -1.772  0.00  0.00    -0.275 OA
ATOM     28  N   UNL     1       3.096  -2.560  -3.333  0.00  0.00    -0.285 N 
ATOM     29  H   UNL     1       4.033  -2.609  -3.576  0.00  0.00    +0.155 HD
BRANCH  26  32
ATOM     30  C   UNL     1       3.338  -1.865   0.431  0.00  0.00    +0.032 C 
ATOM     31  C   UNL     1       3.851  -3.263   0.079  0.00  0.00    +0.022 C 
ATOM     32  C   UNL     1       3.802  -2.172  -0.994  0.00  0.00    +0.083 C 
BRANCH  30  36
ATOM     33  C   UNL     1      -0.859  -1.410   1.083  0.00  0.00    +0.000 A 
ATOM     34  C   UNL     1       0.002  -0.367   1.369  0.00  0.00    +0.000 A 
ATOM     35  C   UNL     1       1.361  -0.514   1.158  0.00  0.00    +0.004 A 
ATOM     36  C   UNL     1       1.858  -1.705   0.662  0.00  0.00    -0.044 A 
ATOM     37  C   UNL     1       0.997  -2.748   0.377  0.00  0.00    +0.004 A 
ATOM     38  C   UNL     1      -0.361  -2.600   0.587  0.00  0.00    +0.000 A 
ENDBRANCH  30  36
ENDBRANCH  26  32
ENDBRANCH   1  28
TORSDOF 7
