REMARK  Name = ZINC48253469
REMARK  7 active torsions:
REMARK  status: ('A' for Active; 'I' for Inactive)
REMARK    1  A    between atoms: C_1  and  C_2
REMARK    2  A    between atoms: C_2  and  O_3
REMARK    3  A    between atoms: O_3  and  C_4
REMARK    4  A    between atoms: C_7  and  C_10
REMARK    5  A    between atoms: N_15  and  C_16
REMARK    6  A    between atoms: C_16  and  C_17
REMARK    7  A    between atoms: C_20  and  C_22
REMARK                            x       y       z     vdW  Elec       q    Type
REMARK                         _______ _______ _______ _____ _____    ______ ____
ROOT
ATOM      1  C   UNL     1       1.109  -6.040  -1.847  0.00  0.00    -0.037 C 
ATOM      2  C   UNL     1       2.528  -6.505  -1.459  0.00  0.00    -0.013 C 
ATOM      3  C   UNL     1       2.837  -7.601  -2.514  0.00  0.00    -0.020 C 
ATOM      4  C   UNL     1       2.140  -7.028  -3.773  0.00  0.00    -0.077 C 
ATOM      5  N   UNL     1       0.902  -6.392  -3.264  0.00  0.00    +0.388 N 
ATOM      6  H   UNL     1       0.705  -5.557  -3.796  0.00  0.00    -0.080 HD
ENDROOT
BRANCH   1  10
ATOM      7  C   UNL     1       0.777  -1.810  -1.336  0.00  0.00    +0.121 A 
ATOM      8  C   UNL     1       0.243  -2.669  -0.386  0.00  0.00    +0.046 A 
ATOM      9  C   UNL     1       0.351  -4.036  -0.554  0.00  0.00    +0.005 A 
ATOM     10  C   UNL     1       0.992  -4.548  -1.667  0.00  0.00    -0.061 A 
ATOM     11  C   UNL     1       1.525  -3.694  -2.615  0.00  0.00    +0.005 A 
ATOM     12  C   UNL     1       1.414  -2.327  -2.455  0.00  0.00    +0.046 A 
BRANCH   7  13
ATOM     13  O   UNL     1       0.671  -0.465  -1.174  0.00  0.00    -0.492 OA
BRANCH  13  15
ATOM     14  C   UNL     1      -0.019   1.526   0.010  0.00  0.00    +0.048 C 
ATOM     15  C   UNL     1       0.002  -0.004   0.002  0.00  0.00    +0.225 C 
ENDBRANCH  13  15
ENDBRANCH   7  13
ENDBRANCH   1  10
BRANCH   5  16
ATOM     16  C   UNL     1      -0.223  -7.328  -3.382  0.00  0.00    -0.018 C 
BRANCH  16  17
ATOM     17  C   UNL     1      -0.509  -7.589  -4.838  0.00  0.00    +0.064 A 
ATOM     18  C   UNL     1      -0.043  -8.621  -5.564  0.00  0.00    +0.219 A 
ATOM     19  O   UNL     1      -0.531  -8.486  -6.814  0.00  0.00    -0.443 OA
ATOM     20  C   UNL     1      -1.290  -7.375  -6.839  0.00  0.00    +0.234 A 
ATOM     21  N   UNL     1      -1.280  -6.837  -5.639  0.00  0.00    -0.216 NA
BRANCH  20  22
ATOM     22  C   UNL     1      -2.013  -6.855  -8.008  0.00  0.00    +0.074 A 
ATOM     23  C   UNL     1      -2.081  -7.368  -9.290  0.00  0.00    +0.021 A 
ATOM     24  C   UNL     1      -2.832  -6.694 -10.226  0.00  0.00    +0.008 A 
ATOM     25  C   UNL     1      -3.478  -5.555  -9.864  0.00  0.00    +0.046 A 
ATOM     26  S   UNL     1      -3.038  -5.399  -8.142  0.00  0.00    -0.092 S 
ENDBRANCH  20  22
ENDBRANCH  16  17
ENDBRANCH   5  16
TORSDOF 6
