REMARK  Name = ZINC59020070
REMARK  10 active torsions:
REMARK  status: ('A' for Active; 'I' for Inactive)
REMARK    1  A    between atoms: C_1  and  C_2
REMARK    2  A    between atoms: C_5  and  C_7
REMARK    3  A    between atoms: N_8  and  N_9
REMARK    4  A    between atoms: C_12  and  S_15
REMARK    5  A    between atoms: S_15  and  C_16
REMARK    6  A    between atoms: C_16  and  C_17
REMARK    7  A    between atoms: N_19  and  C_20
REMARK    8  A    between atoms: C_25  and  S_26
REMARK    9  A    between atoms: S_26  and  C_27
REMARK   10  A    between atoms: C_27  and  C_28
REMARK                            x       y       z     vdW  Elec       q    Type
REMARK                         _______ _______ _______ _____ _____    ______ ____
ROOT
ATOM      1  C   UNL     1      11.042  -1.538  -0.041  0.00  0.00    +0.228 C 
ATOM      2  O   UNL     1      10.806  -0.348  -0.032  0.00  0.00    -0.275 OA
ATOM      3  N   UNL     1      12.318  -1.972  -0.059  0.00  0.00    -0.284 N 
ATOM      4  H   UNL     1      12.508  -2.921  -0.001  0.00  0.00    +0.155 HD
ENDROOT
BRANCH   3   5
ATOM      5  C   UNL     1      13.370  -1.052  -0.161  0.00  0.00    +0.047 A 
ATOM      6  C   UNL     1      13.266   0.193   0.442  0.00  0.00    +0.024 A 
ATOM      7  C   UNL     1      14.305   1.099   0.341  0.00  0.00    +0.002 A 
ATOM      8  C   UNL     1      15.450   0.769  -0.361  0.00  0.00    +0.001 A 
ATOM      9  C   UNL     1      15.563  -0.469  -0.966  0.00  0.00    +0.016 A 
ATOM     10  C   UNL     1      14.527  -1.387  -0.864  0.00  0.00    +0.029 A 
BRANCH  10  11
ATOM     11  S   UNL     1      14.670  -2.969  -1.628  0.00  0.00    -0.119 S 
BRANCH  11  12
ATOM     12  C   UNL     1      16.310  -2.936  -2.402  0.00  0.00    +0.109 C 
BRANCH  12  13
ATOM     13  C   UNL     1      16.563  -4.247  -3.099  0.00  0.00    -0.037 A 
ATOM     14  C   UNL     1      17.156  -5.291  -2.414  0.00  0.00    +0.007 A 
ATOM     15  C   UNL     1      17.388  -6.495  -3.053  0.00  0.00    +0.038 A 
ATOM     16  C   UNL     1      17.026  -6.654  -4.380  0.00  0.00    +0.123 A 
ATOM     17  C   UNL     1      16.432  -5.608  -5.065  0.00  0.00    +0.038 A 
ATOM     18  C   UNL     1      16.196  -4.407  -4.423  0.00  0.00    +0.007 A 
ATOM     19  F   UNL     1      17.252  -7.830  -5.005  0.00  0.00    -0.205 F 
ENDBRANCH  12  13
ENDBRANCH  11  12
ENDBRANCH  10  11
ENDBRANCH   3   5
BRANCH   1  20
ATOM     20  C   UNL     1       9.908  -2.530  -0.034  0.00  0.00    +0.173 C 
BRANCH  20  21
ATOM     21  S   UNL     1       8.327  -1.642  -0.010  0.00  0.00    -0.075 S 
BRANCH  21  25
ATOM     22  N   UNL     1       3.819  -4.116   0.028  0.00  0.00    -0.205 N 
ATOM     23  C   UNL     1       5.186  -3.910   0.013  0.00  0.00    +0.232 A 
ATOM     24  N   UNL     1       5.793  -2.742   0.013  0.00  0.00    -0.186 NA
ATOM     25  C   UNL     1       7.118  -2.924  -0.003  0.00  0.00    +0.211 A 
ATOM     26  N   UNL     1       7.372  -4.211  -0.014  0.00  0.00    -0.144 NA
ATOM     27  N   UNL     1       6.133  -4.872   0.001  0.00  0.00    -0.245 N 
ATOM     28  H   UNL     1       3.464  -5.019   0.031  0.00  0.00    +0.177 HD
ATOM     29  H   UNL     1       5.987  -5.831   0.002  0.00  0.00    +0.192 HD
BRANCH  22  31
ATOM     30  C   UNL     1       1.660  -3.214   0.054  0.00  0.00    +0.176 C 
ATOM     31  N   UNL     1       2.946  -3.020   0.039  0.00  0.00    -0.184 NA
BRANCH  30  36
ATOM     32  C   UNL     1      -0.017   1.507   0.078  0.00  0.00    +0.086 C 
ATOM     33  C   UNL     1       0.003   0.000   0.076  0.00  0.00    +0.103 A 
ATOM     34  C   UNL     1      -1.082  -0.799   0.087  0.00  0.00    +0.045 A 
ATOM     35  C   UNL     1      -0.617  -2.128   0.081  0.00  0.00    +0.051 A 
ATOM     36  C   UNL     1       0.746  -2.067   0.065  0.00  0.00    +0.148 A 
ATOM     37  O   UNL     1       1.105  -0.768   0.057  0.00  0.00    -0.459 OA
ENDBRANCH  30  36
ENDBRANCH  22  31
ENDBRANCH  21  25
ENDBRANCH  20  21
ENDBRANCH   1  20
TORSDOF 9
