REMARK  Name = ZINC39940597
REMARK  9 active torsions:
REMARK  status: ('A' for Active; 'I' for Inactive)
REMARK    1  A    between atoms: C_1  and  C_2
REMARK    2  A    between atoms: C_4  and  C_12
REMARK    3  A    between atoms: C_7  and  O_8
REMARK    4  A    between atoms: O_8  and  C_9
REMARK    5  A    between atoms: C_9  and  C_10
REMARK    6  A    between atoms: C_13  and  C_23
REMARK    7  A    between atoms: N_15  and  C_17
REMARK    8  A    between atoms: C_24  and  C_25
REMARK    9  A    between atoms: C_24  and  C_27
REMARK                            x       y       z     vdW  Elec       q    Type
REMARK                         _______ _______ _______ _____ _____    ______ ____
ROOT
ATOM      1  C   UNL     1       1.068  -2.768  -3.356  0.00  0.00    +0.100 A 
ATOM      2  C   UNL     1       1.481  -4.170  -3.228  0.00  0.00    +0.022 A 
ATOM      3  C   UNL     1       1.538  -4.678  -4.511  0.00  0.00    +0.123 A 
ATOM      4  N   UNL     1       1.194  -3.691  -5.360  0.00  0.00    -0.239 N 
ATOM      5  N   UNL     1       0.903  -2.530  -4.638  0.00  0.00    -0.166 NA
ENDROOT
BRANCH   1   9
ATOM      6  C   UNL     1       1.337   1.892  -1.589  0.00  0.00    +0.047 C 
ATOM      7  C   UNL     1       0.995   0.437  -1.395  0.00  0.00    -0.008 A 
ATOM      8  C   UNL     1       1.183  -0.457  -2.428  0.00  0.00    +0.017 A 
ATOM      9  C   UNL     1       0.868  -1.804  -2.248  0.00  0.00    +0.003 A 
ATOM     10  C   UNL     1       0.362  -2.241  -1.024  0.00  0.00    +0.014 A 
ATOM     11  C   UNL     1       0.176  -1.341   0.004  0.00  0.00    +0.046 A 
ATOM     12  C   UNL     1       0.497  -0.002  -0.177  0.00  0.00    +0.124 A 
BRANCH  12  13
ATOM     13  O   UNL     1       0.318   0.881   0.840  0.00  0.00    -0.488 OA
BRANCH  13  14
ATOM     14  C   UNL     1      -0.199   0.361   2.067  0.00  0.00    +0.256 C 
BRANCH  14  15
ATOM     15  C   UNL     1      -0.329   1.478   3.071  0.00  0.00    +0.006 C 
ATOM     16  C   UNL     1      -1.416   1.586   3.794  0.00  0.00    +0.007 C 
ENDBRANCH  14  15
ENDBRANCH  13  14
ENDBRANCH  12  13
ENDBRANCH   1   9
BRANCH   4  17
ATOM     17  C   UNL     1       1.131  -3.811  -6.754  0.00  0.00    +0.065 A 
ATOM     18  C   UNL     1       1.431  -5.023  -7.362  0.00  0.00    +0.028 A 
ATOM     19  C   UNL     1       1.368  -5.138  -8.737  0.00  0.00    +0.002 A 
ATOM     20  C   UNL     1       1.005  -4.049  -9.508  0.00  0.00    +0.000 A 
ATOM     21  C   UNL     1       0.705  -2.841  -8.905  0.00  0.00    +0.002 A 
ATOM     22  C   UNL     1       0.761  -2.721  -7.531  0.00  0.00    +0.028 A 
ENDBRANCH   4  17
BRANCH   2  23
ATOM     23  C   UNL     1       1.776  -4.890  -1.982  0.00  0.00    +0.030 C 
ATOM     24  C   UNL     1       1.526  -6.215  -1.892  0.00  0.00    +0.072 C 
BRANCH  24  25
ATOM     25  C   UNL     1       0.769  -6.915  -2.991  0.00  0.00    +0.216 C 
ATOM     26  N   UNL     1      -0.295  -7.749  -2.419  0.00  0.00    -0.359 N 
ATOM     27  C   UNL     1      -0.054  -8.980  -2.764  0.00  0.00    +0.060 A 
ATOM     28  C   UNL     1      -0.751 -10.247  -2.499  0.00  0.00    +0.027 A 
ATOM     29  C   UNL     1      -0.255 -11.396  -3.000  0.00  0.00    +0.002 A 
ATOM     30  C   UNL     1       0.916 -11.441  -3.777  0.00  0.00    +0.002 A 
ATOM     31  C   UNL     1       1.631 -10.339  -4.079  0.00  0.00    +0.027 A 
ATOM     32  C   UNL     1       1.185  -9.028  -3.587  0.00  0.00    +0.060 A 
ATOM     33  N   UNL     1       1.663  -7.825  -3.718  0.00  0.00    -0.359 N 
ATOM     34  H   UNL     1      -1.040  -7.439  -1.881  0.00  0.00    +0.162 HD
ATOM     35  H   UNL     1       2.463  -7.575  -4.207  0.00  0.00    +0.162 HD
ENDBRANCH  24  25
BRANCH  24  36
ATOM     36  C   UNL     1       1.980  -6.953  -0.753  0.00  0.00    +0.099 C 
ATOM     37  N   UNL     1       2.340  -7.539   0.151  0.00  0.00    -0.191 NA
ENDBRANCH  24  36
ENDBRANCH   2  23
TORSDOF 8
