REMARK  Name = ZINC63807615
REMARK  11 active torsions:
REMARK  status: ('A' for Active; 'I' for Inactive)
REMARK    1  A    between atoms: C_1  and  N_2
REMARK    2  A    between atoms: N_2  and  C_3
REMARK    3  A    between atoms: N_2  and  C_4
REMARK    4  A    between atoms: C_4  and  C_6
REMARK    5  A    between atoms: C_4  and  C_32
REMARK    6  A    between atoms: C_6  and  N_7
REMARK    7  A    between atoms: C_8  and  C_10
REMARK    8  A    between atoms: C_10  and  C_12
REMARK    9  A    between atoms: C_10  and  N_22
REMARK   10  A    between atoms: C_12  and  C_13
REMARK   11  A    between atoms: C_23  and  C_25
REMARK                            x       y       z     vdW  Elec       q    Type
REMARK                         _______ _______ _______ _____ _____    ______ ____
ROOT
ATOM      1  C   UNL     1       2.410  -4.221   1.204  0.00  0.00    +0.163 C 
ENDROOT
BRANCH   1   3
ATOM      2  N   UNL     1       0.709  -2.699   0.250  0.00  0.00    -0.315 N 
ATOM      3  C   UNL     1       1.431  -3.831   0.127  0.00  0.00    +0.234 C 
ATOM      4  O   UNL     1       1.293  -4.535  -0.851  0.00  0.00    -0.274 OA
ATOM      5  H   UNL     1       0.820  -2.136   1.032  0.00  0.00    +0.149 HD
BRANCH   2   6
ATOM      6  C   UNL     1      -0.243  -2.320  -0.797  0.00  0.00    +0.094 C 
BRANCH   6   7
ATOM      7  C   UNL     1      -1.013  -1.073  -0.358  0.00  0.00    -0.014 C 
BRANCH   7   8
ATOM      8  C   UNL     1      -1.834  -1.395   0.865  0.00  0.00    -0.022 A 
ATOM      9  C   UNL     1      -1.569  -1.122   2.166  0.00  0.00    +0.009 A 
ATOM     10  C   UNL     1      -2.477  -1.515   3.131  0.00  0.00    +0.008 A 
ATOM     11  C   UNL     1      -3.605  -2.162   2.748  0.00  0.00    +0.045 A 
ATOM     12  S   UNL     1      -3.410  -2.226   0.975  0.00  0.00    -0.103 S 
ENDBRANCH   7   8
BRANCH   7  14
ATOM     13  C   UNL     1      -2.692   0.516  -0.998  0.00  0.00    -0.096 C 
ATOM     14  N   UNL     1      -1.902  -0.639  -1.444  0.00  0.00    +0.382 N 
ATOM     15  C   UNL     1      -1.098  -0.261  -2.613  0.00  0.00    -0.096 C 
ATOM     16  H   UNL     1      -2.522  -1.395  -1.693  0.00  0.00    -0.082 HD
ENDBRANCH   7  14
ENDBRANCH   6   7
ENDBRANCH   2   6
ENDBRANCH   1   3
BRANCH   1  17
ATOM     17  N   UNL     1       3.064  -5.480   0.837  0.00  0.00    -0.300 N 
ATOM     18  C   UNL     1       4.306  -5.750   1.285  0.00  0.00    +0.245 C 
ATOM     19  O   UNL     1       4.884  -4.949   1.993  0.00  0.00    -0.270 OA
ATOM     20  H   UNL     1       2.602  -6.119   0.272  0.00  0.00    +0.150 HD
BRANCH  18  21
ATOM     21  C   UNL     1       4.965  -7.020   0.915  0.00  0.00    +0.037 A 
ATOM     22  C   UNL     1       4.305  -7.939   0.096  0.00  0.00    +0.016 A 
ATOM     23  C   UNL     1       4.924  -9.122  -0.246  0.00  0.00    +0.039 A 
ATOM     24  C   UNL     1       6.199  -9.400   0.222  0.00  0.00    +0.123 A 
ATOM     25  C   UNL     1       6.859  -8.491   1.034  0.00  0.00    +0.039 A 
ATOM     26  C   UNL     1       6.252  -7.302   1.377  0.00  0.00    +0.016 A 
ATOM     27  F   UNL     1       6.801 -10.562  -0.116  0.00  0.00    -0.205 F 
ENDBRANCH  18  21
ENDBRANCH   1  17
BRANCH   1  28
ATOM     28  C   UNL     1       1.667  -4.400   2.529  0.00  0.00    +0.065 C 
BRANCH  28  29
ATOM     29  C   UNL     1       0.609  -5.462   2.372  0.00  0.00    -0.039 C 
ATOM     30  C   UNL     1       0.726  -6.776   2.671  0.00  0.00    -0.001 A 
ATOM     31  C   UNL     1       1.830  -7.579   3.210  0.00  0.00    +0.010 A 
ATOM     32  C   UNL     1       1.642  -8.904   3.406  0.00  0.00    +0.001 A 
ATOM     33  C   UNL     1       0.423  -9.528   3.107  0.00  0.00    +0.002 A 
ATOM     34  C   UNL     1      -0.637  -8.857   2.609  0.00  0.00    +0.026 A 
ATOM     35  C   UNL     1      -0.552  -7.458   2.365  0.00  0.00    +0.043 A 
ATOM     36  N   UNL     1      -1.424  -6.600   1.894  0.00  0.00    -0.380 N 
ATOM     37  C   UNL     1      -0.799  -5.273   1.855  0.00  0.00    +0.144 C 
ATOM     38  H   UNL     1      -2.331  -6.807   1.621  0.00  0.00    +0.160 HD
ENDBRANCH  28  29
ENDBRANCH   1  28
TORSDOF 9
