REMARK  Name = ZINC63571212
REMARK  2 active torsions:
REMARK  status: ('A' for Active; 'I' for Inactive)
REMARK    1  A    between atoms: C_5  and  C_7
REMARK    2  A    between atoms: N_24  and  C_25
REMARK                            x       y       z     vdW  Elec       q    Type
REMARK                         _______ _______ _______ _____ _____    ______ ____
ROOT
ATOM      1  C   UNL     1       1.022  -2.949   0.617  0.00  0.00    +0.137 C 
ATOM      2  C   UNL     1       0.706  -3.397   2.048  0.00  0.00    +0.131 C 
ATOM      3  C   UNL     1      -0.549  -2.644   2.473  0.00  0.00    -0.035 C 
ATOM      4  C   UNL     1      -0.238  -1.997   3.590  0.00  0.00    -0.001 A 
ATOM      5  C   UNL     1      -1.046  -1.165   4.497  0.00  0.00    +0.010 A 
ATOM      6  C   UNL     1      -0.393  -0.636   5.565  0.00  0.00    +0.001 A 
ATOM      7  C   UNL     1       0.966  -0.847   5.818  0.00  0.00    +0.002 A 
ATOM      8  C   UNL     1       1.783  -1.601   5.040  0.00  0.00    +0.026 A 
ATOM      9  C   UNL     1       1.210  -2.215   3.889  0.00  0.00    +0.043 A 
ATOM     10  N   UNL     1       1.760  -3.008   2.986  0.00  0.00    -0.375 N 
ATOM     11  C   UNL     1      -1.814  -2.648   1.649  0.00  0.00    +0.052 C 
ATOM     12  C   UNL     1      -1.407  -2.279   0.211  0.00  0.00    +0.114 C 
ATOM     13  N   UNL     1      -0.216  -3.046  -0.171  0.00  0.00    -0.276 N 
ATOM     14  C   UNL     1      -0.257  -3.849  -1.254  0.00  0.00    +0.307 C 
ATOM     15  O   UNL     1       0.693  -4.561  -1.518  0.00  0.00    -0.252 OA
ATOM     16  N   UNL     1      -1.349  -3.861  -2.043  0.00  0.00    -0.267 N 
ATOM     17  H   UNL     1      -2.085  -3.256  -1.862  0.00  0.00    +0.156 HD
ATOM     18  H   UNL     1       2.689  -3.284   2.941  0.00  0.00    +0.160 HD
ENDROOT
BRANCH  16  19
ATOM     19  C   UNL     1      -1.422  -4.748  -3.125  0.00  0.00    +0.070 A 
ATOM     20  C   UNL     1      -0.263  -5.150  -3.774  0.00  0.00    +0.027 A 
ATOM     21  C   UNL     1      -0.337  -6.025  -4.840  0.00  0.00    +0.017 A 
ATOM     22  C   UNL     1      -1.565  -6.502  -5.262  0.00  0.00    +0.021 A 
ATOM     23  C   UNL     1      -2.723  -6.104  -4.619  0.00  0.00    +0.055 A 
ATOM     24  C   UNL     1      -2.655  -5.233  -3.547  0.00  0.00    +0.146 A 
ATOM     25  F   UNL     1      -3.785  -4.848  -2.915  0.00  0.00    -0.204 F 
ATOM     26 BR   UNL     1      -1.661  -7.699  -6.723  0.00  0.00    -0.050 Br
ENDBRANCH  16  19
BRANCH   1  31
ATOM     27  C   UNL     1       1.161   0.785   1.156  0.00  0.00    +0.000 A 
ATOM     28  C   UNL     1       2.406   1.094   0.640  0.00  0.00    +0.003 A 
ATOM     29  C   UNL     1       3.205   0.095   0.116  0.00  0.00    +0.039 A 
ATOM     30  C   UNL     1       2.757  -1.216   0.108  0.00  0.00    +0.128 A 
ATOM     31  C   UNL     1       1.510  -1.523   0.625  0.00  0.00    +0.010 A 
ATOM     32  C   UNL     1       0.714  -0.522   1.149  0.00  0.00    +0.008 A 
ATOM     33  F   UNL     1       3.537  -2.193  -0.404  0.00  0.00    -0.205 F 
ENDBRANCH   1  31
TORSDOF 2
