REMARK  Name = ZINC46631541
REMARK  7 active torsions:
REMARK  status: ('A' for Active; 'I' for Inactive)
REMARK    1  A    between atoms: C_1  and  C_2
REMARK    2  A    between atoms: C_2  and  C_4
REMARK    3  A    between atoms: C_2  and  N_10
REMARK    4  A    between atoms: C_11  and  C_13
REMARK    5  A    between atoms: C_13  and  N_14
REMARK    6  A    between atoms: C_17  and  C_21
REMARK    7  A    between atoms: C_17  and  C_22
REMARK                            x       y       z     vdW  Elec       q    Type
REMARK                         _______ _______ _______ _____ _____    ______ ____
ROOT
ATOM      1  C   UNL     1       0.780  -1.133   3.576  0.00  0.00    +0.213 C 
ENDROOT
BRANCH   1   2
ATOM      2  N   UNL     1      -0.150  -1.201   4.706  0.00  0.00    -0.215 N 
ATOM      3  C   UNL     1      -0.377  -0.185   5.562  0.00  0.00    +0.247 C 
ATOM      4  O   UNL     1       0.131   0.916   5.543  0.00  0.00    -0.273 OA
ATOM      5  C   UNL     1      -1.399  -0.705   6.553  0.00  0.00    +0.113 C 
ATOM      6  N   UNL     1      -1.654  -2.082   6.098  0.00  0.00    -0.285 N 
ATOM      7  C   UNL     1      -0.883  -2.277   5.013  0.00  0.00    +0.310 C 
ATOM      8  O   UNL     1      -0.854  -3.316   4.383  0.00  0.00    -0.252 OA
ATOM      9  C   UNL     1      -0.824  -0.704   7.971  0.00  0.00    +0.042 C 
ATOM     10  H   UNL     1      -2.261  -2.723   6.500  0.00  0.00    +0.151 HD
BRANCH   5  11
ATOM     11  C   UNL     1      -2.681   0.128   6.491  0.00  0.00    +0.021 C 
ATOM     12  C   UNL     1      -2.953   1.095   7.646  0.00  0.00    +0.006 C 
ATOM     13  C   UNL     1      -3.778  -0.186   7.510  0.00  0.00    +0.006 C 
ENDBRANCH   5  11
ENDBRANCH   1   2
BRANCH   1  15
ATOM     14  N   UNL     1       0.711  -0.489   1.189  0.00  0.00    -0.307 N 
ATOM     15  C   UNL     1       0.051  -0.633   2.355  0.00  0.00    +0.231 C 
ATOM     16  O   UNL     1      -1.129  -0.361   2.423  0.00  0.00    -0.274 OA
ATOM     17  H   UNL     1       1.654  -0.707   1.135  0.00  0.00    +0.149 HD
BRANCH  14  19
ATOM     18  C   UNL     1      -0.019   1.526   0.010  0.00  0.00    +0.033 C 
ATOM     19  C   UNL     1       0.002  -0.004   0.002  0.00  0.00    +0.107 C 
BRANCH  19  20
ATOM     20  C   UNL     1       0.707  -0.490  -1.238  0.00  0.00    +0.011 A 
ATOM     21  C   UNL     1       0.176  -0.943  -2.400  0.00  0.00    +0.014 A 
ATOM     22  C   UNL     1       1.026  -1.341  -3.415  0.00  0.00    +0.028 A 
ATOM     23  C   UNL     1       2.366  -1.267  -3.218  0.00  0.00    +0.078 A 
ATOM     24  S   UNL     1       2.459  -0.612  -1.560  0.00  0.00    -0.080 S 
ATOM     25 CL   UNL     1       3.656  -1.693  -4.299  0.00  0.00    -0.076 Cl
ENDBRANCH  19  20
ENDBRANCH  14  19
ENDBRANCH   1  15
TORSDOF 5
