REMARK  Name = ZINC64043983
REMARK  8 active torsions:
REMARK  status: ('A' for Active; 'I' for Inactive)
REMARK    1  A    between atoms: C_4  and  O_7
REMARK    2  A    between atoms: O_7  and  C_8
REMARK    3  A    between atoms: C_8  and  C_9
REMARK    4  A    between atoms: C_9  and  C_10
REMARK    5  A    between atoms: C_10  and  C_28
REMARK    6  A    between atoms: C_16  and  C_18
REMARK    7  A    between atoms: C_18  and  C_19
REMARK    8  A    between atoms: C_28  and  O_29
REMARK                            x       y       z     vdW  Elec       q    Type
REMARK                         _______ _______ _______ _____ _____    ______ ____
ROOT
ATOM      1  C   UNL     1       4.786  -4.143  -0.129  0.00  0.00    +0.013 C 
ATOM      2  C   UNL     1       6.167  -4.800  -0.088  0.00  0.00    +0.012 C 
ATOM      3  C   UNL     1       6.016  -6.319  -0.196  0.00  0.00    +0.020 C 
ATOM      4  C   UNL     1       5.201  -6.832   0.996  0.00  0.00    +0.108 C 
ATOM      5  N   UNL     1       3.928  -6.101   1.048  0.00  0.00    -0.301 N 
ATOM      6  C   UNL     1       3.957  -4.632   1.063  0.00  0.00    +0.117 C 
ATOM      7  C   UNL     1       2.755  -6.765   1.082  0.00  0.00    +0.220 C 
ATOM      8  O   UNL     1       1.711  -6.149   1.125  0.00  0.00    -0.275 OA
ENDROOT
BRANCH   1   9
ATOM      9  C   UNL     1       4.940  -2.623  -0.055  0.00  0.00    +0.051 C 
BRANCH   9  10
ATOM     10  C   UNL     1       5.671  -2.123  -1.302  0.00  0.00    +0.230 C 
BRANCH  10  11
ATOM     11  O   UNL     1       5.721  -0.695  -1.285  0.00  0.00    -0.492 OA
BRANCH  11  15
ATOM     12  C   UNL     1       7.605   1.152  -4.457  0.00  0.00    +0.000 A 
ATOM     13  C   UNL     1       7.056   1.914  -3.441  0.00  0.00    +0.004 A 
ATOM     14  C   UNL     1       6.425   1.298  -2.378  0.00  0.00    +0.045 A 
ATOM     15  C   UNL     1       6.341  -0.086  -2.330  0.00  0.00    +0.120 A 
ATOM     16  C   UNL     1       6.891  -0.848  -3.351  0.00  0.00    +0.045 A 
ATOM     17  C   UNL     1       7.522  -0.227  -4.411  0.00  0.00    +0.004 A 
ENDBRANCH  11  15
ENDBRANCH  10  11
ENDBRANCH   9  10
ENDBRANCH   1   9
BRANCH   7  18
ATOM     18  C   UNL     1       2.742  -8.271   1.066  0.00  0.00    +0.129 C 
BRANCH  18  19
ATOM     19  C   UNL     1       1.317  -8.761   1.110  0.00  0.00    -0.033 C 
ATOM     20  C   UNL     1       0.543  -9.108   0.056  0.00  0.00    -0.001 A 
ATOM     21  C   UNL     1       0.787  -9.131  -1.391  0.00  0.00    +0.010 A 
ATOM     22  C   UNL     1      -0.205  -9.536  -2.217  0.00  0.00    +0.001 A 
ATOM     23  C   UNL     1      -1.457  -9.933  -1.726  0.00  0.00    +0.002 A 
ATOM     24  C   UNL     1      -1.755  -9.939  -0.409  0.00  0.00    +0.026 A 
ATOM     25  C   UNL     1      -0.786  -9.533   0.549  0.00  0.00    +0.043 A 
ATOM     26  N   UNL     1      -0.833  -9.451   1.857  0.00  0.00    -0.380 N 
ATOM     27  C   UNL     1       0.466  -8.972   2.342  0.00  0.00    +0.145 C 
ATOM     28  H   UNL     1      -1.597  -9.675   2.411  0.00  0.00    +0.160 HD
ENDBRANCH  18  19
ENDBRANCH   7  18
BRANCH   1  29
ATOM     29  C   UNL     1       4.078  -4.521  -1.432  0.00  0.00    +0.164 C 
BRANCH  29  30
ATOM     30  O   UNL     1       2.844  -3.807  -1.529  0.00  0.00    -0.394 OA
ATOM     31  H   UNL     1       2.341  -3.998  -2.332  0.00  0.00    +0.209 HD
ENDBRANCH  29  30
ENDBRANCH   1  29
TORSDOF 8
