REMARK  Name = ZINC09040954
REMARK  9 active torsions:
REMARK  status: ('A' for Active; 'I' for Inactive)
REMARK    1  A    between atoms: C_1  and  C_2
REMARK    2  A    between atoms: C_15  and  S_17
REMARK    3  A    between atoms: S_17  and  C_18
REMARK    4  A    between atoms: C_18  and  C_19
REMARK    5  A    between atoms: N_21  and  C_22
REMARK    6  A    between atoms: C_25  and  O_28
REMARK    7  A    between atoms: O_28  and  C_29
REMARK    8  A    between atoms: C_29  and  C_30
REMARK    9  A    between atoms: C_29  and  C_31
REMARK                            x       y       z     vdW  Elec       q    Type
REMARK                         _______ _______ _______ _____ _____    ______ ____
ROOT
ATOM      1  C   UNL     1       3.530   1.987  -1.702  0.00  0.00    +0.008 C 
ATOM      2  C   UNL     1       2.179   1.296  -1.508  0.00  0.00    -0.009 C 
ATOM      3  C   UNL     1       1.417   1.964  -0.362  0.00  0.00    +0.008 C 
ATOM      4  C   UNL     1      -0.022   1.450  -0.324  0.00  0.00    +0.037 C 
ATOM      5  C   UNL     1      -0.001  -0.076  -0.296  0.00  0.00    -0.023 A 
ATOM      6  C   UNL     1       1.104  -0.756  -0.677  0.00  0.00    -0.004 A 
ATOM      7  S   UNL     1       0.686  -2.470  -0.486  0.00  0.00    -0.073 S 
ATOM      8  C   UNL     1      -0.966  -2.274   0.103  0.00  0.00    +0.117 A 
ATOM      9  C   UNL     1      -1.141  -0.872   0.132  0.00  0.00    +0.075 A 
ATOM     10  C   UNL     1      -2.411  -0.379   0.576  0.00  0.00    +0.261 A 
ATOM     11  O   UNL     1      -2.657   0.814   0.636  0.00  0.00    -0.267 OA
ATOM     12  N   UNL     1      -3.321  -1.319   0.925  0.00  0.00    -0.301 N 
ATOM     13  H   UNL     1      -4.193  -1.027   1.231  0.00  0.00    +0.171 HD
ATOM     14  C   UNL     1      -3.066  -2.655   0.865  0.00  0.00    +0.170 A 
ATOM     15  N   UNL     1      -1.902  -3.145   0.459  0.00  0.00    -0.216 NA
ATOM     16  C   UNL     1       2.401  -0.181  -1.157  0.00  0.00    +0.046 C 
ENDROOT
BRANCH  14  17
ATOM     17  S   UNL     1      -4.334  -3.779   1.347  0.00  0.00    -0.078 S 
BRANCH  17  18
ATOM     18  C   UNL     1      -3.479  -5.352   1.078  0.00  0.00    +0.173 C 
BRANCH  18  19
ATOM     19  C   UNL     1      -4.399  -6.491   1.435  0.00  0.00    +0.227 C 
ATOM     20  O   UNL     1      -5.522  -6.262   1.833  0.00  0.00    -0.275 OA
ATOM     21  N   UNL     1      -3.974  -7.764   1.313  0.00  0.00    -0.285 N 
ATOM     22  H   UNL     1      -3.098  -7.949   0.938  0.00  0.00    +0.155 HD
BRANCH  21  23
ATOM     23  C   UNL     1      -4.796  -8.820   1.728  0.00  0.00    +0.034 A 
ATOM     24  C   UNL     1      -4.234  -9.958   2.291  0.00  0.00    +0.027 A 
ATOM     25  C   UNL     1      -5.045 -10.996   2.704  0.00  0.00    +0.047 A 
ATOM     26  C   UNL     1      -6.420 -10.907   2.546  0.00  0.00    +0.121 A 
ATOM     27  C   UNL     1      -6.982  -9.773   1.979  0.00  0.00    +0.047 A 
ATOM     28  C   UNL     1      -6.172  -8.732   1.570  0.00  0.00    +0.027 A 
BRANCH  26  29
ATOM     29  O   UNL     1      -7.218 -11.932   2.948  0.00  0.00    -0.489 OA
BRANCH  29  30
ATOM     30  C   UNL     1      -8.614 -11.816   2.668  0.00  0.00    +0.167 C 
ATOM     31  C   UNL     1      -8.889 -12.293   1.240  0.00  0.00    +0.051 C 
ATOM     32  C   UNL     1      -9.406 -12.677   3.654  0.00  0.00    +0.051 C 
ENDBRANCH  29  30
ENDBRANCH  26  29
ENDBRANCH  21  23
ENDBRANCH  18  19
ENDBRANCH  17  18
ENDBRANCH  14  17
TORSDOF 6
