REMARK  Name = ZINC59403256
REMARK  4 active torsions:
REMARK  status: ('A' for Active; 'I' for Inactive)
REMARK    1  A    between atoms: C_13  and  N_14
REMARK    2  A    between atoms: C_17  and  N_20
REMARK    3  A    between atoms: N_20  and  S_21
REMARK    4  A    between atoms: S_21  and  C_24
REMARK                            x       y       z     vdW  Elec       q    Type
REMARK                         _______ _______ _______ _____ _____    ______ ____
ROOT
ATOM      1  N   UNL     1       4.381  -0.780   1.159  0.00  0.00    +0.387 N 
ATOM      2  C   UNL     1       5.016   0.543   1.129  0.00  0.00    -0.076 C 
ATOM      3  C   UNL     1       5.822   0.755   2.413  0.00  0.00    +0.002 C 
ATOM      4  C   UNL     1       6.900  -0.327   2.517  0.00  0.00    +0.073 C 
ATOM      5  C   UNL     1       6.232  -1.705   2.472  0.00  0.00    +0.002 C 
ATOM      6  C   UNL     1       5.411  -1.826   1.187  0.00  0.00    -0.076 C 
ATOM      7  H   UNL     1       3.804  -0.856   1.983  0.00  0.00    -0.080 HD
ENDROOT
BRANCH   1  20
ATOM      8  C   UNL     1       1.623  -4.735  -0.275  0.00  0.00    +0.001 A 
ATOM      9  C   UNL     1       1.251  -3.935   0.791  0.00  0.00    +0.000 A 
ATOM     10  C   UNL     1       1.822  -2.685   0.952  0.00  0.00    +0.003 A 
ATOM     11  C   UNL     1       2.764  -2.235   0.051  0.00  0.00    -0.049 A 
ATOM     12  C   UNL     1       3.144  -3.033  -1.024  0.00  0.00    -0.016 A 
ATOM     13  C   UNL     1       2.563  -4.293  -1.181  0.00  0.00    +0.009 A 
ATOM     14  C   UNL     1       4.162  -2.319  -1.834  0.00  0.00    -0.016 A 
ATOM     15  C   UNL     1       4.843  -2.693  -2.994  0.00  0.00    +0.009 A 
ATOM     16  C   UNL     1       5.758  -1.833  -3.564  0.00  0.00    +0.001 A 
ATOM     17  C   UNL     1       6.005  -0.598  -2.991  0.00  0.00    +0.000 A 
ATOM     18  C   UNL     1       5.334  -0.220  -1.841  0.00  0.00    +0.003 A 
ATOM     19  C   UNL     1       4.417  -1.074  -1.265  0.00  0.00    -0.049 A 
ATOM     20  C   UNL     1       3.547  -0.948  -0.038  0.00  0.00    -0.006 C 
ENDBRANCH   1  20
BRANCH   4  21
ATOM     21  N   UNL     1       7.626  -0.176   3.781  0.00  0.00    -0.187 NA
ATOM     22  H   UNL     1       7.157   0.123   4.576  0.00  0.00    +0.148 HD
BRANCH  21  23
ATOM     23  S   UNL     1       9.245  -0.514   3.851  0.00  0.00    +0.059 S 
ATOM     24  O   UNL     1       9.658  -0.248   5.184  0.00  0.00    -0.153 OA
ATOM     25  O   UNL     1       9.422  -1.784   3.238  0.00  0.00    -0.153 OA
BRANCH  23  26
ATOM     26  C   UNL     1      10.068   0.659   2.826  0.00  0.00    +0.105 A 
ATOM     27  C   UNL     1      10.271   0.384   1.486  0.00  0.00    +0.031 A 
ATOM     28  C   UNL     1      10.916   1.303   0.681  0.00  0.00    +0.040 A 
ATOM     29  C   UNL     1      11.357   2.502   1.216  0.00  0.00    +0.124 A 
ATOM     30  C   UNL     1      11.153   2.777   2.557  0.00  0.00    +0.040 A 
ATOM     31  C   UNL     1      10.503   1.858   3.360  0.00  0.00    +0.031 A 
ATOM     32  F   UNL     1      11.988   3.401   0.430  0.00  0.00    -0.205 F 
ENDBRANCH  23  26
ENDBRANCH  21  23
ENDBRANCH   4  21
TORSDOF 4
