REMARK  Name = ZINC14545445
REMARK  9 active torsions:
REMARK  status: ('A' for Active; 'I' for Inactive)
REMARK    1  A    between atoms: C_1  and  C_2
REMARK    2  A    between atoms: C_2  and  O_3
REMARK    3  A    between atoms: O_3  and  C_4
REMARK    4  A    between atoms: C_9  and  C_10
REMARK    5  A    between atoms: C_21  and  S_26
REMARK    6  A    between atoms: S_26  and  N_29
REMARK    7  A    between atoms: N_29  and  C_30
REMARK    8  A    between atoms: C_32  and  C_37
REMARK    9  A    between atoms: C_34  and  C_36
REMARK                            x       y       z     vdW  Elec       q    Type
REMARK                         _______ _______ _______ _____ _____    ______ ____
ROOT
ATOM      1  C   UNL     1       0.522   4.544   0.135  0.00  0.00    +0.108 C 
ATOM      2  C   UNL     1       0.009   4.623   1.576  0.00  0.00    +0.029 C 
ATOM      3  C   UNL     1      -0.460   3.195   1.981  0.00  0.00    +0.033 C 
ATOM      4  C   UNL     1      -1.858   3.106   1.400  0.00  0.00    -0.030 C 
ATOM      5  C   UNL     1      -2.349   4.305   1.200  0.00  0.00    -0.023 C 
ATOM      6  C   UNL     1      -1.346   5.356   1.612  0.00  0.00    +0.049 C 
ATOM      7  C   UNL     1      -1.394   6.542   0.702  0.00  0.00    -0.018 A 
ATOM      8  C   UNL     1      -2.454   7.431   0.821  0.00  0.00    +0.034 A 
ATOM      9  C   UNL     1      -2.535   8.539   0.003  0.00  0.00    +0.109 A 
ATOM     10  C   UNL     1      -1.558   8.779  -0.946  0.00  0.00    +0.030 A 
ATOM     11  C   UNL     1      -0.499   7.902  -1.074  0.00  0.00    +0.025 A 
ATOM     12  C   UNL     1      -0.418   6.785  -0.252  0.00  0.00    +0.031 A 
ATOM     13  N   UNL     1       0.660   5.905  -0.395  0.00  0.00    -0.336 N 
ATOM     14  H   UNL     1       1.478   6.187  -0.834  0.00  0.00    +0.147 HD
ENDROOT
BRANCH   1  20
ATOM     15  C   UNL     1       2.990   4.517   0.579  0.00  0.00    +0.125 A 
ATOM     16  C   UNL     1       4.221   3.879   0.564  0.00  0.00    +0.046 A 
ATOM     17  C   UNL     1       4.323   2.589   0.080  0.00  0.00    +0.004 A 
ATOM     18  C   UNL     1       3.199   1.934  -0.388  0.00  0.00    +0.001 A 
ATOM     19  C   UNL     1       1.971   2.568  -0.374  0.00  0.00    +0.009 A 
ATOM     20  C   UNL     1       1.862   3.856   0.114  0.00  0.00    +0.015 A 
BRANCH  15  21
ATOM     21  O   UNL     1       2.887   5.786   1.054  0.00  0.00    -0.492 OA
BRANCH  21  23
ATOM     22  C   UNL     1       3.776   7.818   2.014  0.00  0.00    +0.048 C 
ATOM     23  C   UNL     1       4.088   6.403   1.522  0.00  0.00    +0.225 C 
ENDBRANCH  21  23
ENDBRANCH  15  21
ENDBRANCH   1  20
BRANCH   9  24
ATOM     24  S   UNL     1      -3.889   9.655   0.169  0.00  0.00    +0.072 S 
ATOM     25  O   UNL     1      -4.088  10.244  -1.109  0.00  0.00    -0.150 OA
ATOM     26  O   UNL     1      -4.916   8.948   0.851  0.00  0.00    -0.150 OA
BRANCH  24  27
ATOM     27  N   UNL     1      -3.399  10.871   1.180  0.00  0.00    -0.216 N 
ATOM     28  H   UNL     1      -3.837  10.995   2.037  0.00  0.00    +0.174 HD
BRANCH  27  29
ATOM     29  C   UNL     1      -2.356  11.719   0.799  0.00  0.00    +0.049 A 
ATOM     30  C   UNL     1      -1.101  11.582   1.379  0.00  0.00    +0.028 A 
ATOM     31  C   UNL     1      -0.071  12.419   0.997  0.00  0.00    -0.048 A 
ATOM     32  C   UNL     1      -0.290  13.399   0.046  0.00  0.00    +0.006 A 
ATOM     33  C   UNL     1      -1.540  13.541  -0.529  0.00  0.00    -0.048 A 
ATOM     34  C   UNL     1      -2.573  12.704  -0.155  0.00  0.00    +0.028 A 
ATOM     35  C   UNL     1      -1.774  14.611  -1.565  0.00  0.00    +0.044 C 
ATOM     36  C   UNL     1       1.292  12.268   1.621  0.00  0.00    +0.044 C 
ENDBRANCH  27  29
ENDBRANCH  24  27
ENDBRANCH   9  24
TORSDOF 6
