REMARK  Name = ZINC20764560
REMARK  7 active torsions:
REMARK  status: ('A' for Active; 'I' for Inactive)
REMARK    1  A    between atoms: C_1  and  O_2
REMARK    2  A    between atoms: O_2  and  C_3
REMARK    3  A    between atoms: C_6  and  C_9
REMARK    4  A    between atoms: C_11  and  C_25
REMARK    5  A    between atoms: C_14  and  C_17
REMARK    6  A    between atoms: C_22  and  O_23
REMARK    7  A    between atoms: C_28  and  C_31
REMARK                            x       y       z     vdW  Elec       q    Type
REMARK                         _______ _______ _______ _____ _____    ______ ____
ROOT
ATOM      1  C   UNL     1      -2.518   3.868   0.044  0.00  0.00    +0.040 C 
ATOM      2  N   UNL     1      -2.497   5.148   0.055  0.00  0.00    -0.299 NA
ATOM      3  C   UNL     1      -3.691   5.985   0.075  0.00  0.00    +0.081 C 
ATOM      4  N   UNL     1      -4.873   5.213  -0.326  0.00  0.00    +0.401 N 
ATOM      5  C   UNL     1      -4.959   3.970   0.458  0.00  0.00    -0.028 C 
ATOM      6  C   UNL     1      -3.790   3.067   0.053  0.00  0.00    +0.044 C 
ATOM      7  H   UNL     1      -5.779   5.813  -0.151  0.00  0.00    -0.081 HD
ATOM      8  H   UNL     1      -4.802   4.961  -1.394  0.00  0.00    -0.081 HD
ENDROOT
BRANCH   5   9
ATOM      9  C   UNL     1      -6.264   3.274   0.167  0.00  0.00    -0.018 A 
ATOM     10  C   UNL     1      -6.928   3.519  -1.020  0.00  0.00    +0.025 A 
ATOM     11  C   UNL     1      -8.122   2.876  -1.291  0.00  0.00    +0.041 A 
ATOM     12  C   UNL     1      -8.661   1.995  -0.369  0.00  0.00    +0.023 A 
ATOM     13  C   UNL     1      -8.003   1.752   0.821  0.00  0.00    +0.047 A 
ATOM     14  C   UNL     1      -6.802   2.392   1.092  0.00  0.00    +0.119 A 
ATOM     15 CL   UNL     1      -8.951   3.179  -2.786  0.00  0.00    -0.084 Cl
BRANCH  14  16
ATOM     16  O   UNL     1      -6.154   2.154   2.263  0.00  0.00    -0.507 OA
ATOM     17  H   UNL     1      -6.581   1.454   2.996  0.00  0.00    +0.292 HD
ENDBRANCH  14  16
ENDBRANCH   5   9
BRANCH   1  21
ATOM     18  C   UNL     1       1.182   1.786   0.000  0.00  0.00    +0.120 A 
ATOM     19  C   UNL     1      -0.013   1.076   0.008  0.00  0.00    +0.046 A 
ATOM     20  C   UNL     1      -1.215   1.747   0.017  0.00  0.00    +0.013 A 
ATOM     21  C   UNL     1      -1.233   3.145   0.029  0.00  0.00    -0.004 A 
ATOM     22  C   UNL     1      -0.029   3.855   0.021  0.00  0.00    +0.013 A 
ATOM     23  C   UNL     1       1.169   3.175   0.007  0.00  0.00    +0.046 A 
BRANCH  18  25
ATOM     24  C   UNL     1       3.555   1.912  -0.021  0.00  0.00    +0.277 C 
ATOM     25  O   UNL     1       2.365   1.120  -0.014  0.00  0.00    -0.495 OA
ENDBRANCH  18  25
ENDBRANCH   1  21
BRANCH   3  26
ATOM     26  C   UNL     1      -3.506   7.140  -0.875  0.00  0.00    -0.040 A 
ATOM     27  C   UNL     1      -4.604   7.710  -1.492  0.00  0.00    +0.004 A 
ATOM     28  C   UNL     1      -4.435   8.773  -2.359  0.00  0.00    +0.012 A 
ATOM     29  C   UNL     1      -3.167   9.259  -2.617  0.00  0.00    +0.055 A 
ATOM     30  C   UNL     1      -2.068   8.686  -2.005  0.00  0.00    +0.012 A 
ATOM     31  C   UNL     1      -2.238   7.627  -1.133  0.00  0.00    +0.004 A 
BRANCH  29  32
ATOM     32  C   UNL     1      -2.982  10.415  -3.567  0.00  0.00    +0.417 C 
ATOM     33  F   UNL     1      -2.805   9.928  -4.866  0.00  0.00    -0.166 F 
ATOM     34  F   UNL     1      -4.114  11.237  -3.527  0.00  0.00    -0.166 F 
ATOM     35  F   UNL     1      -1.856  11.154  -3.188  0.00  0.00    -0.166 F 
ENDBRANCH  29  32
ENDBRANCH   3  26
TORSDOF 6
