REMARK  Name = ZINC45355425
REMARK  4 active torsions:
REMARK  status: ('A' for Active; 'I' for Inactive)
REMARK    1  A    between atoms: C_4  and  C_7
REMARK    2  A    between atoms: C_12  and  S_16
REMARK    3  A    between atoms: S_16  and  C_17
REMARK    4  A    between atoms: C_20  and  C_22
REMARK                            x       y       z     vdW  Elec       q    Type
REMARK                         _______ _______ _______ _____ _____    ______ ____
ROOT
ATOM      1  C   UNL     1       3.698  -0.687  -0.038  0.00  0.00    +0.001 A 
ATOM      2  C   UNL     1       4.618  -0.429  -0.998  0.00  0.00    +0.056 A 
ATOM      3  S   UNL     1       5.964  -1.524  -0.589  0.00  0.00    -0.076 S 
ATOM      4  C   UNL     1       5.270  -2.298   0.848  0.00  0.00    +0.113 A 
ATOM      5  C   UNL     1       4.008  -1.683   0.982  0.00  0.00    +0.048 A 
ATOM      6  C   UNL     1       3.227  -2.127   2.082  0.00  0.00    +0.118 A 
ATOM      7  N   UNL     1       3.716  -3.055   2.890  0.00  0.00    -0.228 NA
ATOM      8  C   UNL     1       4.912  -3.585   2.707  0.00  0.00    +0.223 A 
ATOM      9  N   UNL     1       5.679  -3.220   1.698  0.00  0.00    -0.228 NA
ENDROOT
BRANCH   1  13
ATOM     10  C   UNL     1      -0.016   1.380   0.011  0.00  0.00    +0.000 A 
ATOM     11  C   UNL     1       0.828   1.453   1.105  0.00  0.00    +0.001 A 
ATOM     12  C   UNL     1       2.034   0.784   1.094  0.00  0.00    +0.008 A 
ATOM     13  C   UNL     1       2.403   0.033  -0.021  0.00  0.00    -0.017 A 
ATOM     14  C   UNL     1       1.548  -0.037  -1.121  0.00  0.00    +0.008 A 
ATOM     15  C   UNL     1       0.344   0.637  -1.099  0.00  0.00    +0.001 A 
ENDBRANCH   1  13
BRANCH   6  16
ATOM     16  S   UNL     1       1.625  -1.450   2.369  0.00  0.00    -0.009 S 
BRANCH  16  17
ATOM     17  C   UNL     1       1.060  -2.291   3.811  0.00  0.00    +0.284 A 
ATOM     18  N   UNL     1       1.719  -3.201   4.487  0.00  0.00    -0.100 NA
ATOM     19  N   UNL     1       1.005  -3.599   5.481  0.00  0.00    -0.103 NA
ATOM     20  C   UNL     1      -0.141  -2.957   5.479  0.00  0.00    +0.284 A 
ATOM     21  O   UNL     1      -0.127  -2.111   4.424  0.00  0.00    -0.408 OA
BRANCH  20  22
ATOM     22  C   UNL     1      -1.234  -3.123   6.447  0.00  0.00    +0.191 A 
ATOM     23  C   UNL     1      -1.236  -3.970   7.515  0.00  0.00    +0.055 A 
ATOM     24  C   UNL     1      -2.473  -3.801   8.164  0.00  0.00    +0.042 A 
ATOM     25  C   UNL     1      -3.160  -2.871   7.471  0.00  0.00    +0.196 A 
ATOM     26  O   UNL     1      -2.407  -2.459   6.438  0.00  0.00    -0.458 OA
ENDBRANCH  20  22
ENDBRANCH  16  17
ENDBRANCH   6  16
TORSDOF 4
