REMARK  Name = ZINC40753637
REMARK  7 active torsions:
REMARK  status: ('A' for Active; 'I' for Inactive)
REMARK    1  A    between atoms: C_1  and  C_2
REMARK    2  A    between atoms: C_2  and  O_3
REMARK    3  A    between atoms: O_3  and  C_4
REMARK    4  A    between atoms: C_4  and  C_6
REMARK    5  A    between atoms: C_14  and  N_27
REMARK    6  A    between atoms: C_15  and  O_19
REMARK    7  A    between atoms: O_19  and  C_20
REMARK                            x       y       z     vdW  Elec       q    Type
REMARK                         _______ _______ _______ _____ _____    ______ ____
ROOT
ATOM      1  C   UNL     1       1.428  -2.478   2.157  0.00  0.00    +0.115 C 
ATOM      2  C   UNL     1       0.830  -1.918   3.450  0.00  0.00    +0.018 C 
ATOM      3  C   UNL     1       1.672  -2.376   4.643  0.00  0.00    +0.020 C 
ATOM      4  C   UNL     1       1.649  -3.905   4.723  0.00  0.00    +0.106 C 
ATOM      5  N   UNL     1       2.086  -4.453   3.432  0.00  0.00    -0.313 N 
ATOM      6  C   UNL     1       1.403  -4.009   2.208  0.00  0.00    +0.121 C 
ATOM      7  C   UNL     1       3.125  -5.372   3.368  0.00  0.00    +0.149 A 
ATOM      8  C   UNL     1       2.878  -6.736   3.547  0.00  0.00    +0.128 A 
ATOM      9  C   UNL     1       3.957  -7.616   3.472  0.00  0.00    +0.246 A 
ATOM     10  N   UNL     1       5.171  -7.128   3.235  0.00  0.00    -0.199 NA
ATOM     11  C   UNL     1       5.362  -5.835   3.072  0.00  0.00    +0.227 A 
ATOM     12  N   UNL     1       4.370  -4.969   3.130  0.00  0.00    -0.219 NA
ENDROOT
BRANCH   8  13
ATOM     13  N   UNL     1       1.579  -7.207   3.796  0.00  0.00    -0.351 N 
ATOM     14  H   UNL     1       0.828  -6.594   3.771  0.00  0.00    +0.143 HD
ATOM     15  H   UNL     1       1.433  -8.146   3.992  0.00  0.00    +0.143 HD
ENDBRANCH   8  13
BRANCH   1  16
ATOM     16  C   UNL     1       0.617  -2.001   0.980  0.00  0.00    +0.312 C 
ATOM     17  O   UNL     1       0.076  -2.802   0.255  0.00  0.00    -0.250 OA
BRANCH  16  18
ATOM     18  O   UNL     1       0.497  -0.687   0.737  0.00  0.00    -0.465 OA
BRANCH  18  20
ATOM     19  C   UNL     1      -0.308   1.220  -0.511  0.00  0.00    +0.048 C 
ATOM     20  C   UNL     1      -0.286  -0.305  -0.396  0.00  0.00    +0.229 C 
ENDBRANCH  18  20
ENDBRANCH  16  18
ENDBRANCH   1  16
BRANCH   9  21
ATOM     21  O   UNL     1       3.771  -8.949   3.639  0.00  0.00    -0.436 OA
BRANCH  21  22
ATOM     22  C   UNL     1       4.870  -9.747   3.679  0.00  0.00    +0.130 A 
ATOM     23  C   UNL     1       5.717  -9.710   4.777  0.00  0.00    +0.047 A 
ATOM     24  C   UNL     1       6.833 -10.522   4.815  0.00  0.00    +0.019 A 
ATOM     25  C   UNL     1       7.108 -11.372   3.759  0.00  0.00    +0.018 A 
ATOM     26  C   UNL     1       6.266 -11.410   2.662  0.00  0.00    +0.019 A 
ATOM     27  C   UNL     1       5.145 -10.604   2.622  0.00  0.00    +0.047 A 
ATOM     28 BR   UNL     1       8.638 -12.482   3.813  0.00  0.00    -0.050 Br
ENDBRANCH  21  22
ENDBRANCH   9  21
TORSDOF 6
