REMARK  Name = ZINC09430318
REMARK  9 active torsions:
REMARK  status: ('A' for Active; 'I' for Inactive)
REMARK    1  A    between atoms: C_1  and  C_2
REMARK    2  A    between atoms: C_4  and  C_33
REMARK    3  A    between atoms: C_9  and  C_18
REMARK    4  A    between atoms: C_12  and  C_14
REMARK    5  A    between atoms: C_14  and  C_16
REMARK    6  A    between atoms: C_14  and  C_17
REMARK    7  A    between atoms: N_20  and  C_21
REMARK    8  A    between atoms: C_26  and  O_27
REMARK    9  A    between atoms: O_27  and  C_28
REMARK                            x       y       z     vdW  Elec       q    Type
REMARK                         _______ _______ _______ _____ _____    ______ ____
ROOT
ATOM      1  C   UNL     1      -1.252  -0.790  -0.042  0.00  0.00    +0.044 C 
ATOM      2  C   UNL     1       0.043  -0.019  -0.036  0.00  0.00    -0.050 A 
ATOM      3  C   UNL     1       0.027   1.364  -0.038  0.00  0.00    +0.008 A 
ATOM      4  C   UNL     1       1.209   2.075  -0.034  0.00  0.00    -0.029 A 
ATOM      5  C   UNL     1       2.430   1.403  -0.027  0.00  0.00    +0.039 A 
ATOM      6  C   UNL     1       2.434   0.013  -0.024  0.00  0.00    -0.027 A 
ATOM      7  C   UNL     1       1.251  -0.694  -0.029  0.00  0.00    +0.008 A 
ATOM      8  C   UNL     1       3.881  -0.399  -0.015  0.00  0.00    +0.049 C 
ATOM      9  C   UNL     1       4.207  -1.219   1.243  0.00  0.00    +0.076 C 
ATOM     10  C   UNL     1       5.234  -2.259   0.720  0.00  0.00    -0.003 C 
ATOM     11  C   UNL     1       4.708  -2.529  -0.713  0.00  0.00    -0.067 C 
ATOM     12  C   UNL     1       4.649   0.899  -0.018  0.00  0.00    +0.211 C 
ATOM     13  O   UNL     1       5.855   1.025  -0.015  0.00  0.00    -0.277 OA
ATOM     14  N   UNL     1       3.738   1.890  -0.024  0.00  0.00    -0.286 N 
ATOM     15  C   UNL     1       1.179   3.581  -0.036  0.00  0.00    +0.045 C 
ATOM     16  H   UNL     1       3.965   2.833  -0.026  0.00  0.00    +0.155 HD
ATOM     17  N   UNL     1       4.215  -1.218  -1.179  0.00  0.00    +0.394 N 
ATOM     18  H   UNL     1       4.943  -0.752  -1.733  0.00  0.00    -0.083 HD
ATOM     19  H   UNL     1       3.377  -1.352  -1.758  0.00  0.00    -0.083 HD
ENDROOT
BRANCH   9  20
ATOM     20  C   UNL     1       2.972  -1.905   1.767  0.00  0.00    +0.220 C 
ATOM     21  O   UNL     1       2.636  -2.979   1.314  0.00  0.00    -0.275 OA
ATOM     22  N   UNL     1       2.241  -1.326   2.740  0.00  0.00    -0.282 N 
ATOM     23  H   UNL     1       2.461  -0.432   3.045  0.00  0.00    +0.155 HD
BRANCH  22  24
ATOM     24  C   UNL     1       1.163  -2.016   3.311  0.00  0.00    +0.077 A 
ATOM     25  C   UNL     1       1.220  -3.393   3.461  0.00  0.00    +0.047 A 
ATOM     26  C   UNL     1       0.155  -4.072   4.025  0.00  0.00    +0.043 A 
ATOM     27  C   UNL     1      -0.969  -3.379   4.440  0.00  0.00    +0.024 A 
ATOM     28  C   UNL     1      -1.032  -2.006   4.293  0.00  0.00    +0.049 A 
ATOM     29  C   UNL     1       0.034  -1.319   3.734  0.00  0.00    +0.141 A 
ATOM     30 CL   UNL     1       0.227  -5.796   4.212  0.00  0.00    -0.083 Cl
BRANCH  29  31
ATOM     31  O   UNL     1      -0.025   0.033   3.595  0.00  0.00    -0.493 OA
ATOM     32  C   UNL     1      -1.214   0.681   4.051  0.00  0.00    +0.277 C 
ENDBRANCH  29  31
ENDBRANCH  22  24
ENDBRANCH   9  20
BRANCH  11  33
ATOM     33  C   UNL     1       5.841  -3.030  -1.611  0.00  0.00    -0.031 C 
ATOM     34  C   UNL     1       5.300  -3.289  -3.018  0.00  0.00    +0.005 C 
ATOM     35  C   UNL     1       6.946  -1.973  -1.675  0.00  0.00    +0.005 C 
ENDBRANCH  11  33
TORSDOF 4
