REMARK  Name = ZINC37308884
REMARK  7 active torsions:
REMARK  status: ('A' for Active; 'I' for Inactive)
REMARK    1  A    between atoms: C_1  and  O_2
REMARK    2  A    between atoms: O_2  and  C_3
REMARK    3  A    between atoms: C_8  and  C_9
REMARK    4  A    between atoms: C_9  and  C_11
REMARK    5  A    between atoms: C_9  and  N_21
REMARK    6  A    between atoms: C_15  and  O_17
REMARK    7  A    between atoms: O_17  and  C_18
REMARK                            x       y       z     vdW  Elec       q    Type
REMARK                         _______ _______ _______ _____ _____    ______ ____
ROOT
ATOM      1  C   UNL     1       0.052  -2.828  -0.032  0.00  0.00    -0.010 C 
ENDROOT
BRANCH   1   7
ATOM      2  C   UNL     1       0.606  -0.607  -1.056  0.00  0.00    +0.122 A 
ATOM      3  C   UNL     1       1.173   0.161  -2.063  0.00  0.00    +0.047 A 
ATOM      4  C   UNL     1       1.786  -0.454  -3.137  0.00  0.00    +0.019 A 
ATOM      5  C   UNL     1       1.835  -1.835  -3.209  0.00  0.00    +0.018 A 
ATOM      6  C   UNL     1       1.270  -2.602  -2.207  0.00  0.00    +0.021 A 
ATOM      7  C   UNL     1       0.661  -1.991  -1.128  0.00  0.00    -0.015 A 
ATOM      8 BR   UNL     1       2.675  -2.674  -4.681  0.00  0.00    -0.050 Br
BRANCH   2  10
ATOM      9  C   UNL     1      -0.017   1.425   0.010  0.00  0.00    +0.277 C 
ATOM     10  O   UNL     1       0.002  -0.004   0.002  0.00  0.00    -0.495 OA
ENDBRANCH   2  10
ENDBRANCH   1   7
BRANCH   1  11
ATOM     11  C   UNL     1       0.998  -2.889   1.139  0.00  0.00    -0.054 A 
ATOM     12  C   UNL     1       2.074  -3.758   1.113  0.00  0.00    +0.002 A 
ATOM     13  C   UNL     1       2.944  -3.816   2.186  0.00  0.00    +0.004 A 
ATOM     14  C   UNL     1       2.740  -3.006   3.287  0.00  0.00    +0.046 A 
ATOM     15  C   UNL     1       1.662  -2.134   3.315  0.00  0.00    +0.127 A 
ATOM     16  C   UNL     1       0.794  -2.073   2.234  0.00  0.00    +0.048 A 
BRANCH  15  17
ATOM     17  O   UNL     1       1.460  -1.336   4.396  0.00  0.00    -0.434 OA
BRANCH  17  18
ATOM     18  C   UNL     1       2.397  -1.448   5.469  0.00  0.00    +0.541 C 
ATOM     19  F   UNL     1       2.389  -2.758   5.961  0.00  0.00    -0.166 F 
ATOM     20  F   UNL     1       3.679  -1.133   5.004  0.00  0.00    -0.166 F 
ENDBRANCH  17  18
ENDBRANCH  15  17
ENDBRANCH   1  11
BRANCH   1  21
ATOM     21  N   UNL     1      -0.195  -4.186  -0.533  0.00  0.00    +0.385 N 
ATOM     22  H   UNL     1       0.677  -4.600  -0.827  0.00  0.00    -0.089 HD
ATOM     23  H   UNL     1      -0.603  -4.747   0.200  0.00  0.00    -0.089 HD
ATOM     24  H   UNL     1      -0.829  -4.146  -1.318  0.00  0.00    -0.089 HD
ENDBRANCH   1  21
TORSDOF 6
