REMARK  Name = ZINC16681345
REMARK  10 active torsions:
REMARK  status: ('A' for Active; 'I' for Inactive)
REMARK    1  A    between atoms: C_1  and  C_2
REMARK    2  A    between atoms: C_4  and  C_18
REMARK    3  A    between atoms: C_5  and  C_17
REMARK    4  A    between atoms: N_6  and  C_7
REMARK    5  A    between atoms: C_10  and  S_13
REMARK    6  A    between atoms: S_13  and  N_16
REMARK    7  A    between atoms: C_18  and  C_20
REMARK    8  A    between atoms: C_20  and  O_21
REMARK    9  A    between atoms: O_21  and  C_22
REMARK   10  A    between atoms: C_22  and  C_24
REMARK                            x       y       z     vdW  Elec       q    Type
REMARK                         _______ _______ _______ _____ _____    ______ ____
ROOT
ATOM      1  C   UNL     1       5.435  13.185  -3.070  0.00  0.00    +0.064 C 
ATOM      2  C   UNL     1       4.461  12.648  -2.054  0.00  0.00    +0.022 A 
ATOM      3  C   UNL     1       4.194  11.349  -1.842  0.00  0.00    +0.034 A 
ATOM      4  C   UNL     1       3.192  11.300  -0.768  0.00  0.00    +0.042 A 
ATOM      5  C   UNL     1       2.939  12.616  -0.426  0.00  0.00    +0.032 A 
ATOM      6  N   UNL     1       3.709  13.406  -1.199  0.00  0.00    -0.317 N 
ATOM      7  C   UNL     1       1.972  13.084   0.630  0.00  0.00    +0.064 C 
ENDROOT
BRANCH   6   8
ATOM      8  C   UNL     1       3.731  14.806  -1.141  0.00  0.00    +0.047 A 
ATOM      9  C   UNL     1       4.187  15.447   0.003  0.00  0.00    +0.028 A 
ATOM     10  C   UNL     1       4.213  16.827   0.055  0.00  0.00    +0.030 A 
ATOM     11  C   UNL     1       3.774  17.570  -1.026  0.00  0.00    +0.105 A 
ATOM     12  C   UNL     1       3.314  16.934  -2.164  0.00  0.00    +0.030 A 
ATOM     13  C   UNL     1       3.291  15.554  -2.225  0.00  0.00    +0.028 A 
BRANCH  11  14
ATOM     14  S   UNL     1       3.803  19.330  -0.953  0.00  0.00    +0.056 S 
ATOM     15  O   UNL     1       4.787  19.681   0.011  0.00  0.00    -0.153 OA
ATOM     16  O   UNL     1       3.853  19.792  -2.296  0.00  0.00    -0.153 OA
BRANCH  14  17
ATOM     17  N   UNL     1       2.344  19.818  -0.338  0.00  0.00    -0.204 NA
ATOM     18  H   UNL     1       2.285  20.637   0.178  0.00  0.00    +0.144 HD
ATOM     19  H   UNL     1       1.549  19.285  -0.496  0.00  0.00    +0.144 HD
ENDBRANCH  14  17
ENDBRANCH  11  14
ENDBRANCH   6   8
BRANCH   4  20
ATOM     20  C   UNL     1       2.584  10.104  -0.183  0.00  0.00    +0.202 C 
ATOM     21  O   UNL     1       1.764  10.213   0.706  0.00  0.00    -0.288 OA
BRANCH  20  22
ATOM     22  C   UNL     1       2.975   8.738  -0.683  0.00  0.00    +0.311 C 
BRANCH  22  23
ATOM     23  O   UNL     1       2.238   7.724   0.050  0.00  0.00    -0.454 OA
BRANCH  23  24
ATOM     24  C   UNL     1       2.473   6.444  -0.277  0.00  0.00    +0.349 C 
ATOM     25  O   UNL     1       3.268   6.178  -1.148  0.00  0.00    -0.247 OA
BRANCH  24  26
ATOM     26  C   UNL     1       1.745   5.337   0.441  0.00  0.00    +0.286 C 
ATOM     27  C   UNL     1       0.249   5.320   0.049  0.00  0.00    +0.095 C 
ATOM     28  C   UNL     1      -0.054   3.834   0.030  0.00  0.00    -0.000 A 
ATOM     29  C   UNL     1      -1.239   3.132   0.034  0.00  0.00    +0.027 A 
ATOM     30  C   UNL     1      -1.222   1.748   0.017  0.00  0.00    +0.041 A 
ATOM     31  C   UNL     1      -0.013   1.076   0.008  0.00  0.00    +0.023 A 
ATOM     32  C   UNL     1       1.175   1.778   0.000  0.00  0.00    +0.047 A 
ATOM     33  C   UNL     1       1.166   3.171   0.009  0.00  0.00    +0.125 A 
ATOM     34  O   UNL     1       2.205   4.050  -0.007  0.00  0.00    -0.477 OA
ATOM     35 CL   UNL     1      -2.713   0.859   0.016  0.00  0.00    -0.084 Cl
ENDBRANCH  24  26
ENDBRANCH  23  24
ENDBRANCH  22  23
ENDBRANCH  20  22
ENDBRANCH   4  20
TORSDOF 8
