REMARK  Name = ZINC44135890
REMARK  10 active torsions:
REMARK  status: ('A' for Active; 'I' for Inactive)
REMARK    1  A    between atoms: C_1  and  C_2
REMARK    2  A    between atoms: C_2  and  C_4
REMARK    3  A    between atoms: C_2  and  C_8
REMARK    4  A    between atoms: C_4  and  C_5
REMARK    5  A    between atoms: C_5  and  C_6
REMARK    6  A    between atoms: C_6  and  O_7
REMARK    7  A    between atoms: C_14  and  C_36
REMARK    8  A    between atoms: C_15  and  O_35
REMARK    9  A    between atoms: C_22  and  O_34
REMARK   10  A    between atoms: C_27  and  C_33
REMARK                            x       y       z     vdW  Elec       q    Type
REMARK                         _______ _______ _______ _____ _____    ______ ____
ROOT
ATOM      1  C   UNL     1      -1.462  -0.436   0.101  0.00  0.00    +0.001 C 
ATOM      2  C   UNL     1      -2.205  -0.093  -1.204  0.00  0.00    +0.005 C 
ATOM      3  C   UNL     1      -2.755  -1.426  -1.762  0.00  0.00    +0.005 C 
ATOM      4  C   UNL     1      -2.832  -2.331  -0.518  0.00  0.00    +0.003 C 
ATOM      5  C   UNL     1      -1.554  -1.977   0.265  0.00  0.00    +0.000 C 
ATOM      6  C   UNL     1      -0.319  -2.565  -0.422  0.00  0.00    +0.121 C 
ATOM      7  C   UNL     1      -0.482  -4.067  -0.633  0.00  0.00    +0.036 C 
ATOM      8  C   UNL     1      -1.677  -4.305  -1.562  0.00  0.00    +0.003 C 
ATOM      9  C   UNL     1      -2.922  -3.796  -0.869  0.00  0.00    +0.025 C 
ATOM     10  C   UNL     1      -4.130  -4.059  -1.771  0.00  0.00    +0.118 C 
ATOM     11  C   UNL     1      -4.246  -5.558  -2.050  0.00  0.00    +0.036 C 
ATOM     12  C   UNL     1      -2.971  -6.043  -2.749  0.00  0.00    +0.005 C 
ATOM     13  C   UNL     1      -1.806  -5.802  -1.849  0.00  0.00    -0.025 C 
ATOM     14  C   UNL     1      -0.531  -6.315  -2.517  0.00  0.00    +0.015 C 
ATOM     15  C   UNL     1      -0.269  -5.521  -3.801  0.00  0.00    +0.075 C 
ATOM     16  C   UNL     1      -1.504  -5.598  -4.671  0.00  0.00    +0.134 C 
ATOM     17  O   UNL     1      -1.427  -5.938  -5.827  0.00  0.00    -0.297 OA
ATOM     18  C   UNL     1      -2.787  -5.254  -4.050  0.00  0.00    +0.078 C 
ATOM     19  C   UNL     1      -2.009  -6.553  -0.532  0.00  0.00    +0.012 C 
ATOM     20  C   UNL     1      -1.651  -2.392   1.734  0.00  0.00    +0.014 C 
ENDROOT
BRANCH   1  22
ATOM     21  C   UNL     1       0.073   1.496  -0.290  0.00  0.00    +0.008 C 
ATOM     22  C   UNL     1       0.002  -0.004   0.002  0.00  0.00    -0.010 C 
BRANCH  22  23
ATOM     23  C   UNL     1       0.712  -0.300   1.325  0.00  0.00    +0.006 C 
BRANCH  23  24
ATOM     24  C   UNL     1       2.204   0.010   1.183  0.00  0.00    +0.028 C 
BRANCH  24  25
ATOM     25  C   UNL     1       2.913  -0.286   2.506  0.00  0.00    +0.156 C 
BRANCH  25  26
ATOM     26  O   UNL     1       4.306   0.003   2.374  0.00  0.00    -0.395 OA
ATOM     27  H   UNL     1       4.820  -0.162   3.177  0.00  0.00    +0.209 HD
ENDBRANCH  25  26
ENDBRANCH  24  25
ENDBRANCH  23  24
ENDBRANCH  22  23
ENDBRANCH   1  22
BRANCH  10  28
ATOM     28  O   UNL     1      -5.318  -3.603  -1.120  0.00  0.00    -0.391 OA
ATOM     29  H   UNL     1      -6.125  -3.739  -1.635  0.00  0.00    +0.210 HD
ENDBRANCH  10  28
BRANCH   6  30
ATOM     30  O   UNL     1      -0.139  -1.929  -1.690  0.00  0.00    -0.391 OA
ATOM     31  H   UNL     1       0.626  -2.251  -2.186  0.00  0.00    +0.210 HD
ENDBRANCH   6  30
TORSDOF 7
