REMARK  Name = ZINC02462437
REMARK  7 active torsions:
REMARK  status: ('A' for Active; 'I' for Inactive)
REMARK    1  A    between atoms: C_1  and  C_2
REMARK    2  A    between atoms: C_3  and  C_28
REMARK    3  A    between atoms: C_4  and  C_21
REMARK    4  A    between atoms: C_10  and  C_15
REMARK    5  A    between atoms: C_25  and  O_27
REMARK    6  A    between atoms: C_28  and  O_30
REMARK    7  A    between atoms: O_30  and  C_31
REMARK                            x       y       z     vdW  Elec       q    Type
REMARK                         _______ _______ _______ _____ _____    ______ ____
ROOT
ATOM      1  C   UNL     1      -2.435  -5.791  -2.358  0.00  0.00    +0.061 C 
ATOM      2  C   UNL     1      -1.162  -4.984  -2.329  0.00  0.00    +0.016 C 
ATOM      3  C   UNL     1      -1.159  -3.724  -2.796  0.00  0.00    +0.065 C 
ATOM      4  C   UNL     1       0.088  -2.889  -2.776  0.00  0.00    +0.092 C 
ATOM      5  C   UNL     1       1.312  -3.752  -2.601  0.00  0.00    +0.024 C 
ATOM      6  C   UNL     1       1.207  -5.014  -2.136  0.00  0.00    +0.016 C 
ATOM      7  N   UNL     1      -0.018  -5.540  -1.826  0.00  0.00    -0.321 N 
ATOM      8  C   UNL     1       2.430  -5.875  -1.940  0.00  0.00    +0.059 C 
ATOM      9  C   UNL     1       3.496  -5.494  -2.970  0.00  0.00    +0.032 C 
ATOM     10  C   UNL     1       3.828  -4.008  -2.801  0.00  0.00    +0.088 C 
ATOM     11  C   UNL     1       2.564  -3.205  -2.939  0.00  0.00    +0.162 C 
ATOM     12  O   UNL     1       2.625  -2.063  -3.349  0.00  0.00    -0.292 OA
ATOM     13  H   UNL     1      -0.077  -6.418  -1.166  0.00  0.00    +0.152 HD
ENDROOT
BRANCH   9  14
ATOM     14  C   UNL     1       4.737  -6.319  -2.744  0.00  0.00    -0.044 A 
ATOM     15  C   UNL     1       5.407  -6.243  -1.537  0.00  0.00    +0.004 A 
ATOM     16  C   UNL     1       6.542  -7.003  -1.328  0.00  0.00    +0.000 A 
ATOM     17  C   UNL     1       7.013  -7.832  -2.329  0.00  0.00    +0.000 A 
ATOM     18  C   UNL     1       6.346  -7.905  -3.537  0.00  0.00    +0.000 A 
ATOM     19  C   UNL     1       5.208  -7.148  -3.745  0.00  0.00    +0.004 A 
ENDBRANCH   9  14
BRANCH   4  20
ATOM     20  C   UNL     1       0.008  -1.907  -1.636  0.00  0.00    -0.032 A 
ATOM     21  C   UNL     1      -0.099  -2.365  -0.336  0.00  0.00    +0.005 A 
ATOM     22  C   UNL     1      -0.174  -1.466   0.712  0.00  0.00    +0.004 A 
ATOM     23  C   UNL     1      -0.141  -0.108   0.462  0.00  0.00    +0.045 A 
ATOM     24  C   UNL     1      -0.033   0.354  -0.841  0.00  0.00    +0.117 A 
ATOM     25  C   UNL     1       0.036  -0.550  -1.892  0.00  0.00    +0.050 A 
BRANCH  24  26
ATOM     26  O   UNL     1      -0.001   1.690  -1.090  0.00  0.00    -0.507 OA
ATOM     27  H   UNL     1       0.085   2.055  -2.124  0.00  0.00    +0.292 HD
ENDBRANCH  24  26
ENDBRANCH   4  20
BRANCH   3  28
ATOM     28  C   UNL     1      -2.353  -3.175  -3.318  0.00  0.00    +0.338 C 
ATOM     29  O   UNL     1      -3.337  -3.877  -3.454  0.00  0.00    -0.245 OA
BRANCH  28  30
ATOM     30  O   UNL     1      -2.401  -1.871  -3.665  0.00  0.00    -0.458 OA
BRANCH  30  31
ATOM     31  C   UNL     1      -3.640  -1.384  -4.185  0.00  0.00    +0.177 C 
ATOM     32  C   UNL     1      -3.641  -1.479  -5.725  0.00  0.00    +0.044 C 
ATOM     33  C   UNL     1      -4.395  -0.207  -6.184  0.00  0.00    +0.004 C 
ATOM     34  C   UNL     1      -3.904   0.863  -5.177  0.00  0.00    +0.004 C 
ATOM     35  C   UNL     1      -3.807   0.106  -3.837  0.00  0.00    +0.044 C 
ENDBRANCH  30  31
ENDBRANCH  28  30
ENDBRANCH   3  28
TORSDOF 6
