REMARK  Name = ZINC55104326
REMARK  11 active torsions:
REMARK  status: ('A' for Active; 'I' for Inactive)
REMARK    1  A    between atoms: C_1  and  N_2
REMARK    2  A    between atoms: C_7  and  S_15
REMARK    3  A    between atoms: S_15  and  N_18
REMARK    4  A    between atoms: N_18  and  C_19
REMARK    5  A    between atoms: C_19  and  C_20
REMARK    6  A    between atoms: C_20  and  C_22
REMARK    7  A    between atoms: C_20  and  N_32
REMARK    8  A    between atoms: C_25  and  O_30
REMARK    9  A    between atoms: C_26  and  O_28
REMARK   10  A    between atoms: O_28  and  C_29
REMARK   11  A    between atoms: O_30  and  C_31
REMARK                            x       y       z     vdW  Elec       q    Type
REMARK                         _______ _______ _______ _____ _____    ______ ____
ROOT
ATOM      1  N   UNL     1      -1.968  -5.585  -2.852  0.00  0.00    -0.191 NA
ATOM      2  H   UNL     1      -1.667  -5.621  -3.773  0.00  0.00    +0.148 HD
ENDROOT
BRANCH   1   3
ATOM      3  S   UNL     1      -1.086  -4.754  -1.723  0.00  0.00    +0.058 S 
ATOM      4  O   UNL     1      -2.001  -3.921  -1.025  0.00  0.00    -0.153 OA
ATOM      5  O   UNL     1       0.053  -4.237  -2.398  0.00  0.00    -0.153 OA
BRANCH   3  12
ATOM      6  C   UNL     1       4.159  -9.739   0.780  0.00  0.00    +0.157 C 
ATOM      7  N   UNL     1       2.877  -9.047   0.928  0.00  0.00    -0.264 N 
ATOM      8  C   UNL     1       2.493  -8.156  -0.012  0.00  0.00    +0.264 A 
ATOM      9  O   UNL     1       3.197  -7.923  -0.975  0.00  0.00    -0.267 OA
ATOM     10  C   UNL     1       1.197  -7.474   0.161  0.00  0.00    +0.065 A 
ATOM     11  C   UNL     1       0.731  -6.543  -0.765  0.00  0.00    +0.043 A 
ATOM     12  C   UNL     1      -0.488  -5.933  -0.558  0.00  0.00    +0.106 A 
ATOM     13  C   UNL     1      -1.247  -6.240   0.561  0.00  0.00    +0.030 A 
ATOM     14  C   UNL     1      -0.796  -7.161   1.486  0.00  0.00    +0.028 A 
ATOM     15  C   UNL     1       0.427  -7.786   1.294  0.00  0.00    +0.056 A 
ATOM     16  N   UNL     1       0.917  -8.717   2.199  0.00  0.00    -0.307 N 
ATOM     17  H   UNL     1       0.397  -8.942   2.986  0.00  0.00    +0.170 HD
ATOM     18  C   UNL     1       2.103  -9.315   1.992  0.00  0.00    +0.330 A 
ATOM     19  O   UNL     1       2.494 -10.129   2.806  0.00  0.00    -0.246 OA
ENDBRANCH   3  12
ENDBRANCH   1   3
BRANCH   1  20
ATOM     20  C   UNL     1      -3.205  -6.265  -2.459  0.00  0.00    +0.095 C 
BRANCH  20  21
ATOM     21  C   UNL     1      -4.002  -6.637  -3.711  0.00  0.00    -0.022 C 
BRANCH  21  22
ATOM     22  N   UNL     1      -5.284  -7.236  -3.315  0.00  0.00    +0.385 N 
ATOM     23  C   UNL     1      -6.022  -7.646  -4.515  0.00  0.00    -0.078 C 
ATOM     24  C   UNL     1      -7.322  -8.343  -4.106  0.00  0.00    -0.019 C 
ATOM     25  C   UNL     1      -8.177  -7.375  -3.285  0.00  0.00    -0.004 C 
ATOM     26  C   UNL     1      -7.370  -6.896  -2.075  0.00  0.00    -0.019 C 
ATOM     27  C   UNL     1      -6.069  -6.253  -2.559  0.00  0.00    -0.078 C 
ATOM     28  H   UNL     1      -5.112  -8.044  -2.736  0.00  0.00    -0.081 HD
ENDBRANCH  21  22
BRANCH  21  29
ATOM     29  C   UNL     1      -3.217  -7.628  -4.530  0.00  0.00    -0.056 A 
ATOM     30  C   UNL     1      -3.216  -8.966  -4.181  0.00  0.00    +0.006 A 
ATOM     31  C   UNL     1      -2.498  -9.879  -4.930  0.00  0.00    +0.049 A 
ATOM     32  C   UNL     1      -1.776  -9.454  -6.033  0.00  0.00    +0.161 A 
ATOM     33  C   UNL     1      -1.776  -8.108  -6.386  0.00  0.00    +0.162 A 
ATOM     34  C   UNL     1      -2.503  -7.199  -5.633  0.00  0.00    +0.051 A 
BRANCH  33  35
ATOM     35  O   UNL     1      -1.069  -7.686  -7.468  0.00  0.00    -0.491 OA
ATOM     36  C   UNL     1      -1.116  -6.290  -7.770  0.00  0.00    +0.277 C 
ENDBRANCH  33  35
BRANCH  32  37
ATOM     37  O   UNL     1      -1.067 -10.351  -6.771  0.00  0.00    -0.491 OA
ATOM     38  C   UNL     1      -1.112 -11.716  -6.350  0.00  0.00    +0.277 C 
ENDBRANCH  32  37
ENDBRANCH  21  29
ENDBRANCH  20  21
ENDBRANCH   1  20
TORSDOF 8
