REMARK  Name = ZINC35488252
REMARK  7 active torsions:
REMARK  status: ('A' for Active; 'I' for Inactive)
REMARK    1  A    between atoms: C_1  and  O_2
REMARK    2  A    between atoms: O_2  and  C_3
REMARK    3  A    between atoms: C_5  and  C_10
REMARK    4  A    between atoms: C_8  and  O_9
REMARK    5  A    between atoms: N_25  and  C_26
REMARK    6  A    between atoms: C_26  and  C_27
REMARK    7  A    between atoms: C_27  and  C_28
REMARK                            x       y       z     vdW  Elec       q    Type
REMARK                         _______ _______ _______ _____ _____    ______ ____
ROOT
ATOM      1  C   UNL     1      -4.871   0.257   0.037  0.00  0.00    +0.145 C 
ATOM      2  C   UNL     1      -5.459   0.274   1.410  0.00  0.00    +0.072 A 
ATOM      3  C   UNL     1      -4.926   0.770   2.683  0.00  0.00    +0.199 A 
ATOM      4  O   UNL     1      -3.909   1.437   2.767  0.00  0.00    -0.287 OA
ATOM      5  C   UNL     1      -5.743   0.383   3.861  0.00  0.00    +0.064 A 
ATOM      6  C   UNL     1      -5.269   0.605   5.154  0.00  0.00    +0.015 A 
ATOM      7  C   UNL     1      -6.031   0.238   6.228  0.00  0.00    +0.001 A 
ATOM      8  C   UNL     1      -7.271  -0.353   6.035  0.00  0.00    +0.004 A 
ATOM      9  C   UNL     1      -7.755  -0.579   4.766  0.00  0.00    +0.047 A 
ATOM     10  C   UNL     1      -6.998  -0.211   3.654  0.00  0.00    +0.139 A 
ATOM     11  O   UNL     1      -7.498  -0.432   2.416  0.00  0.00    -0.450 OA
ATOM     12  C   UNL     1      -6.697  -0.299   1.341  0.00  0.00    +0.199 A 
ATOM     13  C   UNL     1      -6.941  -0.703  -0.055  0.00  0.00    +0.283 C 
ATOM     14  O   UNL     1      -7.952  -1.246  -0.455  0.00  0.00    -0.267 OA
ATOM     15  N   UNL     1      -5.880  -0.380  -0.825  0.00  0.00    -0.283 N 
ENDROOT
BRANCH   1  18
ATOM     16  C   UNL     1      -1.201  -0.638   0.010  0.00  0.00    +0.162 A 
ATOM     17  C   UNL     1      -2.374   0.099   0.019  0.00  0.00    +0.055 A 
ATOM     18  C   UNL     1      -3.596  -0.546   0.027  0.00  0.00    -0.019 A 
ATOM     19  C   UNL     1      -3.652  -1.928   0.026  0.00  0.00    +0.009 A 
ATOM     20  C   UNL     1      -2.485  -2.669   0.017  0.00  0.00    +0.049 A 
ATOM     21  C   UNL     1      -1.257  -2.028   0.003  0.00  0.00    +0.158 A 
BRANCH  16  23
ATOM     22  C   UNL     1      -0.017   1.425   0.010  0.00  0.00    +0.277 C 
ATOM     23  O   UNL     1       0.002  -0.004   0.002  0.00  0.00    -0.491 OA
ENDBRANCH  16  23
BRANCH  21  24
ATOM     24  O   UNL     1      -0.108  -2.756  -0.012  0.00  0.00    -0.503 OA
ATOM     25  H   UNL     1       0.232  -2.972   0.867  0.00  0.00    +0.292 HD
ENDBRANCH  21  24
ENDBRANCH   1  18
BRANCH  15  26
ATOM     26  C   UNL     1      -5.753  -0.622  -2.264  0.00  0.00    +0.114 C 
BRANCH  26  27
ATOM     27  C   UNL     1      -5.123  -1.996  -2.497  0.00  0.00    +0.054 C 
BRANCH  27  28
ATOM     28  C   UNL     1      -4.993  -2.244  -3.978  0.00  0.00    -0.046 A 
ATOM     29  C   UNL     1      -6.025  -2.850  -4.671  0.00  0.00    +0.004 A 
ATOM     30  C   UNL     1      -5.905  -3.078  -6.029  0.00  0.00    +0.000 A 
ATOM     31  C   UNL     1      -4.754  -2.700  -6.695  0.00  0.00    +0.000 A 
ATOM     32  C   UNL     1      -3.723  -2.093  -6.002  0.00  0.00    +0.000 A 
ATOM     33  C   UNL     1      -3.844  -1.861  -4.645  0.00  0.00    +0.004 A 
ENDBRANCH  27  28
ENDBRANCH  26  27
ENDBRANCH  15  26
TORSDOF 6
