REMARK  Name = ZINC10149221
REMARK  10 active torsions:
REMARK  status: ('A' for Active; 'I' for Inactive)
REMARK    1  A    between atoms: C_1  and  C_2
REMARK    2  A    between atoms: C_2  and  C_3
REMARK    3  A    between atoms: C_4  and  C_25
REMARK    4  A    between atoms: C_6  and  N_11
REMARK    5  A    between atoms: C_7  and  C_8
REMARK    6  A    between atoms: C_12  and  C_14
REMARK    7  A    between atoms: C_14  and  O_15
REMARK    8  A    between atoms: O_15  and  C_16
REMARK    9  A    between atoms: C_17  and  C_24
REMARK   10  A    between atoms: C_21  and  C_22
REMARK                            x       y       z     vdW  Elec       q    Type
REMARK                         _______ _______ _______ _____ _____    ______ ____
ROOT
ATOM      1  N   UNL     1      -1.115   2.232   0.020  0.00  0.00    -0.277 N 
ATOM      2  C   UNL     1      -0.936   3.568   0.026  0.00  0.00    +0.255 C 
ATOM      3  O   UNL     1       0.185   4.030   0.023  0.00  0.00    -0.272 OA
ATOM      4  H   UNL     1      -2.012   1.863   0.022  0.00  0.00    +0.155 HD
ENDROOT
BRANCH   1   8
ATOM      5  C   UNL     1       1.300  -0.636  -0.014  0.00  0.00    -0.024 A 
ATOM      6  C   UNL     1       2.376   0.172  -0.020  0.00  0.00    -0.008 A 
ATOM      7  S   UNL     1       1.663   1.804  -0.004  0.00  0.00    -0.078 S 
ATOM      8  C   UNL     1      -0.017   1.386   0.010  0.00  0.00    +0.084 A 
ATOM      9  C   UNL     1       0.002  -0.004   0.002  0.00  0.00    +0.068 A 
ATOM     10  C   UNL     1       3.833  -0.212  -0.035  0.00  0.00    +0.052 C 
BRANCH   9  11
ATOM     11  C   UNL     1      -1.236  -0.790   0.010  0.00  0.00    +0.244 C 
ATOM     12  O   UNL     1      -1.760  -1.111  -1.040  0.00  0.00    -0.270 OA
ATOM     13  N   UNL     1      -1.793  -1.157   1.181  0.00  0.00    -0.325 N 
ATOM     14  H   UNL     1      -1.376  -0.901   2.018  0.00  0.00    +0.145 HD
ATOM     15  H   UNL     1      -2.612  -1.677   1.186  0.00  0.00    +0.145 HD
ENDBRANCH   9  11
BRANCH   5  17
ATOM     16  C   UNL     1       1.478  -2.636  -1.468  0.00  0.00    +0.009 C 
ATOM     17  C   UNL     1       1.444  -2.136  -0.023  0.00  0.00    +0.033 C 
ENDBRANCH   5  17
ENDBRANCH   1   8
BRANCH   2  18
ATOM     18  C   UNL     1      -2.130   4.488   0.037  0.00  0.00    +0.324 C 
BRANCH  18  19
ATOM     19  O   UNL     1      -1.684   5.846   0.042  0.00  0.00    -0.482 OA
BRANCH  19  20
ATOM     20  C   UNL     1      -2.643   6.809   0.052  0.00  0.00    +0.127 A 
ATOM     21  C   UNL     1      -3.135   7.312  -1.143  0.00  0.00    -0.007 A 
ATOM     22  C   UNL     1      -4.113   8.288  -1.131  0.00  0.00    +0.022 A 
ATOM     23  C   UNL     1      -4.594   8.771   0.073  0.00  0.00    +0.019 A 
ATOM     24  C   UNL     1      -4.101   8.275   1.266  0.00  0.00    +0.022 A 
ATOM     25  C   UNL     1      -3.127   7.295   1.258  0.00  0.00    -0.007 A 
ATOM     26  C   UNL     1      -2.590   6.755   2.559  0.00  0.00    +0.047 C 
ATOM     27 BR   UNL     1      -5.927  10.112   0.087  0.00  0.00    -0.050 Br
ATOM     28  C   UNL     1      -2.607   6.791  -2.455  0.00  0.00    +0.047 C 
ENDBRANCH  19  20
ENDBRANCH  18  19
ENDBRANCH   2  18
TORSDOF 6
