REMARK  Name = ZINC15234817
REMARK  13 active torsions:
REMARK  status: ('A' for Active; 'I' for Inactive)
REMARK    1  A    between atoms: C_1  and  C_2
REMARK    2  A    between atoms: C_5  and  C_35
REMARK    3  A    between atoms: C_6  and  O_9
REMARK    4  A    between atoms: C_7  and  C_8
REMARK    5  A    between atoms: O_9  and  C_10
REMARK    6  A    between atoms: C_10  and  C_11
REMARK    7  A    between atoms: C_11  and  C_13
REMARK    8  A    between atoms: C_11  and  O_34
REMARK    9  A    between atoms: C_13  and  N_14
REMARK   10  A    between atoms: C_17  and  C_21
REMARK   11  A    between atoms: C_17  and  C_22
REMARK   12  A    between atoms: C_27  and  O_32
REMARK   13  A    between atoms: O_32  and  C_33
REMARK                            x       y       z     vdW  Elec       q    Type
REMARK                         _______ _______ _______ _____ _____    ______ ____
ROOT
ATOM      1  N   UNL     1       1.359   1.658  -2.445  0.00  0.00    -0.221 N 
ATOM      2  C   UNL     1       0.388   1.008  -3.115  0.00  0.00    +0.251 C 
ATOM      3  O   UNL     1      -0.071  -0.085  -2.861  0.00  0.00    -0.272 OA
ATOM      4  C   UNL     1      -0.014   1.929  -4.250  0.00  0.00    +0.135 C 
ATOM      5  N   UNL     1       0.866   3.097  -4.076  0.00  0.00    -0.281 N 
ATOM      6  C   UNL     1       1.630   2.846  -2.998  0.00  0.00    +0.310 C 
ATOM      7  O   UNL     1       2.472   3.613  -2.573  0.00  0.00    -0.252 OA
ATOM      8  C   UNL     1      -1.483   2.338  -4.127  0.00  0.00    +0.047 C 
ATOM      9  H   UNL     1       0.890   3.892  -4.631  0.00  0.00    +0.152 HD
ENDROOT
BRANCH   4  10
ATOM     10  C   UNL     1       0.241   1.266  -5.579  0.00  0.00    -0.015 A 
ATOM     11  C   UNL     1       0.075  -0.112  -5.703  0.00  0.00    +0.007 A 
ATOM     12  C   UNL     1       0.291  -0.740  -6.891  0.00  0.00    +0.009 A 
ATOM     13  C   UNL     1       0.700   0.008  -8.008  0.00  0.00    -0.014 A 
ATOM     14  C   UNL     1       0.939  -0.608  -9.248  0.00  0.00    +0.054 A 
ATOM     15  C   UNL     1       1.335   0.151 -10.313  0.00  0.00    +0.121 A 
ATOM     16  C   UNL     1       1.507   1.533 -10.185  0.00  0.00    +0.046 A 
ATOM     17  C   UNL     1       1.284   2.158  -8.998  0.00  0.00    +0.012 A 
ATOM     18  C   UNL     1       0.875   1.409  -7.881  0.00  0.00    -0.017 A 
ATOM     19  C   UNL     1       0.636   2.022  -6.640  0.00  0.00    +0.014 A 
BRANCH  15  20
ATOM     20  O   UNL     1       1.566  -0.446 -11.512  0.00  0.00    -0.495 OA
ATOM     21  C   UNL     1       1.978   0.399 -12.588  0.00  0.00    +0.277 C 
ENDBRANCH  15  20
ENDBRANCH   4  10
BRANCH   1  22
ATOM     22  C   UNL     1       2.040   1.127  -1.261  0.00  0.00    +0.152 C 
BRANCH  22  23
ATOM     23  C   UNL     1       1.286   1.562  -0.002  0.00  0.00    +0.170 C 
BRANCH  23  24
ATOM     24  O   UNL     1      -0.011   0.963   0.007  0.00  0.00    -0.387 OA
ATOM     25  H   UNL     1       0.002  -0.004   0.002  0.00  0.00    +0.210 HD
ENDBRANCH  23  24
BRANCH  23  26
ATOM     26  C   UNL     1       2.064   1.114   1.238  0.00  0.00    +0.262 C 
BRANCH  26  27
ATOM     27  O   UNL     1       1.422   1.619   2.410  0.00  0.00    -0.489 OA
BRANCH  27  33
ATOM     28  C   UNL     1       4.570   2.738   5.968  0.00  0.00    +0.044 C 
ATOM     29  C   UNL     1       3.526   1.830   5.371  0.00  0.00    -0.044 A 
ATOM     30  C   UNL     1       3.146   0.681   6.039  0.00  0.00    +0.004 A 
ATOM     31  C   UNL     1       2.188  -0.154   5.494  0.00  0.00    +0.007 A 
ATOM     32  C   UNL     1       1.605   0.161   4.281  0.00  0.00    -0.009 A 
ATOM     33  C   UNL     1       1.990   1.310   3.606  0.00  0.00    +0.127 A 
ATOM     34  C   UNL     1       2.951   2.146   4.156  0.00  0.00    -0.006 A 
ATOM     35  C   UNL     1       3.367   3.398   3.427  0.00  0.00    +0.048 C 
ATOM     36  C   UNL     1       0.557  -0.746   3.690  0.00  0.00    +0.047 C 
ENDBRANCH  27  33
ENDBRANCH  26  27
ENDBRANCH  23  26
ENDBRANCH  22  23
ENDBRANCH   1  22
TORSDOF 8
