REMARK  Name = ZINC12515722
REMARK  8 active torsions:
REMARK  status: ('A' for Active; 'I' for Inactive)
REMARK    1  A    between atoms: C_1  and  C_2
REMARK    2  A    between atoms: C_4  and  C_22
REMARK    3  A    between atoms: C_5  and  C_21
REMARK    4  A    between atoms: N_6  and  C_7
REMARK    5  A    between atoms: C_8  and  C_20
REMARK    6  A    between atoms: N_9  and  C_19
REMARK    7  A    between atoms: N_10  and  C_13
REMARK    8  A    between atoms: N_28  and  C_29
REMARK                            x       y       z     vdW  Elec       q    Type
REMARK                         _______ _______ _______ _____ _____    ______ ____
ROOT
ATOM      1  C   UNL     1       3.575   0.290  -0.777  0.00  0.00    +0.064 C 
ATOM      2  C   UNL     1       2.187   0.568  -0.261  0.00  0.00    +0.022 A 
ATOM      3  C   UNL     1       1.572   1.766  -0.276  0.00  0.00    +0.033 A 
ATOM      4  C   UNL     1       0.249   1.564   0.322  0.00  0.00    +0.020 A 
ATOM      5  C   UNL     1       0.176   0.239   0.651  0.00  0.00    +0.030 A 
ATOM      6  N   UNL     1       1.349  -0.352   0.296  0.00  0.00    -0.311 N 
ATOM      7  C   UNL     1      -0.999  -0.448   1.297  0.00  0.00    +0.064 C 
ENDROOT
BRANCH   6   8
ATOM      8  C   UNL     1       1.653  -1.716   0.478  0.00  0.00    +0.134 A 
ATOM      9  C   UNL     1       1.416  -2.715  -0.402  0.00  0.00    +0.062 A 
ATOM     10  N   UNL     1       1.855  -3.891   0.143  0.00  0.00    -0.282 N 
ATOM     11  N   UNL     1       2.390  -3.638   1.411  0.00  0.00    -0.215 N 
ATOM     12  C   UNL     1       2.291  -2.314   1.651  0.00  0.00    +0.296 A 
ATOM     13  O   UNL     1       2.658  -1.729   2.654  0.00  0.00    -0.264 OA
ATOM     14  C   UNL     1       1.777  -5.205  -0.499  0.00  0.00    +0.171 C 
ATOM     15  C   UNL     1       0.775  -2.560  -1.757  0.00  0.00    +0.067 C 
BRANCH  11  16
ATOM     16  C   UNL     1       2.938  -4.590   2.276  0.00  0.00    +0.067 A 
ATOM     17  C   UNL     1       3.887  -5.490   1.809  0.00  0.00    +0.028 A 
ATOM     18  C   UNL     1       4.430  -6.426   2.667  0.00  0.00    +0.002 A 
ATOM     19  C   UNL     1       4.022  -6.476   3.987  0.00  0.00    +0.000 A 
ATOM     20  C   UNL     1       3.073  -5.585   4.454  0.00  0.00    +0.002 A 
ATOM     21  C   UNL     1       2.530  -4.643   3.603  0.00  0.00    +0.028 A 
ENDBRANCH  11  16
ENDBRANCH   6   8
BRANCH   4  22
ATOM     22  C   UNL     1      -0.795   2.582   0.521  0.00  0.00    +0.078 C 
ATOM     23  N   UNL     1      -1.916   2.226   1.057  0.00  0.00    -0.184 NA
ATOM     24  N   UNL     1      -2.979   3.080   1.320  0.00  0.00    -0.215 N 
ATOM     25  C   UNL     1      -3.169   4.211   0.685  0.00  0.00    +0.174 C 
ATOM     26  S   UNL     1      -2.042   4.724  -0.570  0.00  0.00    -0.083 S 
ATOM     27  C   UNL     1      -0.519   3.996   0.088  0.00  0.00    +0.134 C 
ATOM     28  N   UNL     1      -4.252   5.000   1.000  0.00  0.00    -0.225 NA
ATOM     29  H   UNL     1      -3.714   2.820   2.096  0.00  0.00    +0.176 HD
BRANCH  28  30
ATOM     30  C   UNL     1      -5.208   4.544   1.911  0.00  0.00    +0.067 A 
ATOM     31  C   UNL     1      -5.528   3.193   1.968  0.00  0.00    +0.028 A 
ATOM     32  C   UNL     1      -6.469   2.745   2.874  0.00  0.00    +0.002 A 
ATOM     33  C   UNL     1      -7.101   3.641   3.717  0.00  0.00    +0.000 A 
ATOM     34  C   UNL     1      -6.790   4.987   3.659  0.00  0.00    +0.002 A 
ATOM     35  C   UNL     1      -5.845   5.441   2.759  0.00  0.00    +0.028 A 
ENDBRANCH  28  30
ENDBRANCH   4  22
TORSDOF 4
