REMARK  Name = ZINC33603413
REMARK  9 active torsions:
REMARK  status: ('A' for Active; 'I' for Inactive)
REMARK    1  A    between atoms: C_1  and  C_2
REMARK    2  A    between atoms: C_7  and  N_8
REMARK    3  A    between atoms: C_13  and  C_31
REMARK    4  A    between atoms: C_16  and  C_21
REMARK    5  A    between atoms: C_16  and  C_28
REMARK    6  A    between atoms: C_21  and  C_22
REMARK    7  A    between atoms: C_35  and  O_38
REMARK    8  A    between atoms: C_36  and  O_37
REMARK    9  A    between atoms: O_38  and  C_39
REMARK                            x       y       z     vdW  Elec       q    Type
REMARK                         _______ _______ _______ _____ _____    ______ ____
ROOT
ATOM      1  N   UNL     1       0.586  -0.088   2.450  0.00  0.00    -0.210 N 
ATOM      2  C   UNL     1      -0.651   0.103   3.015  0.00  0.00    +0.229 C 
ATOM      3  O   UNL     1      -1.693  -0.438   2.715  0.00  0.00    -0.275 OA
ATOM      4  C   UNL     1      -0.436   1.090   4.045  0.00  0.00    +0.077 C 
ATOM      5  C   UNL     1      -1.054   1.594   5.283  0.00  0.00    -0.023 C 
ATOM      6  N   UNL     1       0.025   2.485   5.834  0.00  0.00    +0.396 N 
ATOM      7  C   UNL     1       1.327   2.032   5.261  0.00  0.00    +0.048 C 
ATOM      8  C   UNL     1       1.009   0.704   4.557  0.00  0.00    +0.086 C 
ATOM      9  C   UNL     1       1.596   0.448   3.197  0.00  0.00    +0.229 C 
ATOM     10  O   UNL     1       2.732   0.672   2.838  0.00  0.00    -0.275 OA
ATOM     11  H   UNL     1      -0.152   3.441   5.566  0.00  0.00    -0.083 HD
ATOM     12  H   UNL     1       0.049   2.410   6.840  0.00  0.00    -0.083 HD
ENDROOT
BRANCH   1  19
ATOM     13  C   UNL     1       0.558   1.427   0.040  0.00  0.00    +0.045 C 
ATOM     14  C   UNL     1       0.784  -0.064   0.041  0.00  0.00    -0.029 A 
ATOM     15  C   UNL     1       0.991  -0.732  -1.150  0.00  0.00    +0.005 A 
ATOM     16  C   UNL     1       1.199  -2.099  -1.150  0.00  0.00    +0.000 A 
ATOM     17  C   UNL     1       1.200  -2.801   0.042  0.00  0.00    +0.002 A 
ATOM     18  C   UNL     1       0.994  -2.138   1.235  0.00  0.00    +0.024 A 
ATOM     19  C   UNL     1       0.790  -0.764   1.239  0.00  0.00    +0.047 A 
ENDBRANCH   1  19
BRANCH   5  20
ATOM     20  C   UNL     1      -2.301   2.384   4.978  0.00  0.00    -0.015 A 
ATOM     21  C   UNL     1      -2.541   2.829   3.691  0.00  0.00    +0.006 A 
ATOM     22  C   UNL     1      -3.683   3.553   3.408  0.00  0.00    +0.004 A 
ATOM     23  C   UNL     1      -4.591   3.837   4.411  0.00  0.00    +0.049 A 
ATOM     24  C   UNL     1      -4.357   3.395   5.703  0.00  0.00    +0.161 A 
ATOM     25  C   UNL     1      -3.210   2.660   5.986  0.00  0.00    +0.160 A 
BRANCH  25  26
ATOM     26  O   UNL     1      -2.979   2.219   7.252  0.00  0.00    -0.503 OA
ATOM     27  H   UNL     1      -2.482   2.841   7.801  0.00  0.00    +0.292 HD
ENDBRANCH  25  26
BRANCH  24  28
ATOM     28  O   UNL     1      -5.250   3.674   6.691  0.00  0.00    -0.491 OA
ATOM     29  C   UNL     1      -6.407   4.428   6.325  0.00  0.00    +0.277 C 
ENDBRANCH  24  28
ENDBRANCH   5  20
BRANCH   7  30
ATOM     30  C   UNL     1       2.328   1.797   6.363  0.00  0.00    +0.346 C 
ATOM     31  O   UNL     1       2.018   2.008   7.523  0.00  0.00    -0.248 OA
ATOM     32  O   UNL     1       3.448   1.396   6.094  0.00  0.00    -0.248 OA
ENDBRANCH   7  30
BRANCH   7  33
ATOM     33  C   UNL     1       1.861   3.070   4.272  0.00  0.00    +0.003 C 
BRANCH  33  34
ATOM     34  C   UNL     1       2.333   4.308   5.037  0.00  0.00    -0.012 C 
ATOM     35  C   UNL     1       1.147   4.937   5.770  0.00  0.00    +0.003 C 
ATOM     36  C   UNL     1       1.618   6.176   6.535  0.00  0.00    +0.000 C 
ATOM     37  C   UNL     1       2.206   7.189   5.551  0.00  0.00    +0.000 C 
ATOM     38  C   UNL     1       3.393   6.560   4.818  0.00  0.00    +0.000 C 
ATOM     39  C   UNL     1       2.921   5.322   4.053  0.00  0.00    +0.003 C 
ENDBRANCH  33  34
ENDBRANCH   7  33
TORSDOF 7
