REMARK  Name = ZINC12347881
REMARK  4 active torsions:
REMARK  status: ('A' for Active; 'I' for Inactive)
REMARK    1  A    between atoms: C_1  and  O_2
REMARK    2  A    between atoms: O_2  and  C_3
REMARK    3  A    between atoms: C_6  and  C_9
REMARK    4  A    between atoms: N_15  and  C_18
REMARK                            x       y       z     vdW  Elec       q    Type
REMARK                         _______ _______ _______ _____ _____    ______ ____
ROOT
ATOM      1  C   UNL     1       2.505  -2.503  -4.381  0.00  0.00    +0.092 C 
ATOM      2  C   UNL     1       3.642  -3.354  -3.890  0.00  0.00    +0.070 A 
ATOM      3  C   UNL     1       3.576  -4.725  -3.859  0.00  0.00    +0.125 A 
ATOM      4  N   UNL     1       4.753  -5.195  -3.364  0.00  0.00    -0.277 N 
ATOM      5  H   UNL     1       4.984  -6.128  -3.229  0.00  0.00    +0.189 HD
ATOM      6  N   UNL     1       5.574  -4.091  -3.083  0.00  0.00    -0.218 N 
ATOM      7  C   UNL     1       4.893  -2.970  -3.405  0.00  0.00    +0.278 A 
ATOM      8  O   UNL     1       5.299  -1.826  -3.294  0.00  0.00    -0.265 OA
ATOM      9  N   UNL     1       2.458  -5.398  -4.287  0.00  0.00    -0.303 N 
ATOM     10  C   UNL     1       1.516  -4.717  -5.024  0.00  0.00    +0.017 C 
ATOM     11  C   UNL     1       1.500  -3.372  -5.108  0.00  0.00    +0.024 C 
ATOM     12  C   UNL     1       0.533  -2.708  -5.888  0.00  0.00    +0.162 C 
ATOM     13  O   UNL     1       0.539  -1.494  -5.932  0.00  0.00    -0.292 OA
ATOM     14  C   UNL     1      -0.504  -3.466  -6.667  0.00  0.00    +0.080 C 
ATOM     15  C   UNL     1       0.058  -4.844  -7.033  0.00  0.00    +0.014 C 
ATOM     16  C   UNL     1       0.479  -5.549  -5.743  0.00  0.00    +0.051 C 
ATOM     17  H   UNL     1       2.334  -6.337  -4.073  0.00  0.00    +0.153 HD
ENDROOT
BRANCH   1  21
ATOM     18  C   UNL     1       0.606  -0.607  -1.056  0.00  0.00    +0.120 A 
ATOM     19  C   UNL     1       1.173   0.161  -2.062  0.00  0.00    +0.046 A 
ATOM     20  C   UNL     1       1.786  -0.455  -3.136  0.00  0.00    +0.008 A 
ATOM     21  C   UNL     1       1.835  -1.835  -3.209  0.00  0.00    -0.035 A 
ATOM     22  C   UNL     1       1.270  -2.602  -2.207  0.00  0.00    +0.008 A 
ATOM     23  C   UNL     1       0.661  -1.992  -1.128  0.00  0.00    +0.046 A 
BRANCH  18  25
ATOM     24  C   UNL     1      -0.017   1.425   0.010  0.00  0.00    +0.277 C 
ATOM     25  O   UNL     1       0.002  -0.004   0.002  0.00  0.00    -0.495 OA
ENDBRANCH  18  25
ENDBRANCH   1  21
BRANCH   6  26
ATOM     26  C   UNL     1       6.870  -4.143  -2.559  0.00  0.00    +0.067 A 
ATOM     27  C   UNL     1       7.572  -2.969  -2.321  0.00  0.00    +0.028 A 
ATOM     28  C   UNL     1       8.851  -3.024  -1.804  0.00  0.00    +0.002 A 
ATOM     29  C   UNL     1       9.433  -4.246  -1.522  0.00  0.00    +0.000 A 
ATOM     30  C   UNL     1       8.737  -5.418  -1.758  0.00  0.00    +0.002 A 
ATOM     31  C   UNL     1       7.455  -5.370  -2.269  0.00  0.00    +0.028 A 
ENDBRANCH   6  26
TORSDOF 3
