REMARK  Name = ZINC40988515
REMARK  6 active torsions:
REMARK  status: ('A' for Active; 'I' for Inactive)
REMARK    1  A    between atoms: C_5  and  C_7
REMARK    2  A    between atoms: C_7  and  C_9
REMARK    3  A    between atoms: C_7  and  N_30
REMARK    4  A    between atoms: C_9  and  N_10
REMARK    5  A    between atoms: C_11  and  C_13
REMARK    6  A    between atoms: N_16  and  C_18
REMARK                            x       y       z     vdW  Elec       q    Type
REMARK                         _______ _______ _______ _____ _____    ______ ____
ROOT
ATOM      1  N   UNL     1       1.829  -3.936  -1.618  0.00  0.00    -0.311 N 
ATOM      2  C   UNL     1       2.279  -4.433  -2.788  0.00  0.00    +0.264 C 
ATOM      3  O   UNL     1       2.511  -3.684  -3.717  0.00  0.00    -0.268 OA
ATOM      4  H   UNL     1       1.644  -4.534  -0.877  0.00  0.00    +0.149 HD
ENDROOT
BRANCH   2   5
ATOM      5  C   UNL     1       2.491  -5.886  -2.940  0.00  0.00    +0.150 A 
ATOM      6  C   UNL     1       2.959  -6.551  -4.087  0.00  0.00    +0.006 A 
ATOM      7  C   UNL     1       2.991  -7.868  -3.767  0.00  0.00    +0.044 A 
ATOM      8  N   UNL     1       2.568  -7.979  -2.497  0.00  0.00    -0.263 N 
ATOM      9  N   UNL     1       2.284  -6.815  -2.023  0.00  0.00    -0.166 NA
ATOM     10  C   UNL     1       3.431  -8.952  -4.716  0.00  0.00    +0.055 C 
ATOM     11  C   UNL     1       3.414  -8.383  -6.141  0.00  0.00    +0.006 C 
ATOM     12  C   UNL     1       4.169  -7.051  -6.172  0.00  0.00    +0.005 C 
ATOM     13  C   UNL     1       3.360  -5.985  -5.421  0.00  0.00    +0.039 C 
BRANCH   8  14
ATOM     14  C   UNL     1       2.452  -9.239  -1.758  0.00  0.00    +0.130 C 
ATOM     15  C   UNL     1       3.346  -9.181  -0.507  0.00  0.00    +0.051 C 
ATOM     16  C   UNL     1       2.971 -10.378   0.412  0.00  0.00    +0.168 C 
ATOM     17  S   UNL     1       1.136 -10.368   0.247  0.00  0.00    -0.029 S 
ATOM     18  O   UNL     1       0.583  -9.578   1.290  0.00  0.00    -0.174 OA
ATOM     19  O   UNL     1       0.681 -11.702   0.064  0.00  0.00    -0.174 OA
ATOM     20  C   UNL     1       0.978  -9.457  -1.341  0.00  0.00    +0.192 C 
ENDBRANCH   8  14
ENDBRANCH   2   5
BRANCH   1  21
ATOM     21  C   UNL     1       1.619  -2.494  -1.467  0.00  0.00    +0.094 C 
BRANCH  21  22
ATOM     22  C   UNL     1       1.233  -2.184  -0.019  0.00  0.00    -0.019 C 
BRANCH  22  27
ATOM     23  C   UNL     1      -1.404  -4.566   1.256  0.00  0.00    +0.000 A 
ATOM     24  C   UNL     1      -2.566  -3.937   0.848  0.00  0.00    +0.001 A 
ATOM     25  C   UNL     1      -2.499  -2.740   0.160  0.00  0.00    +0.020 A 
ATOM     26  C   UNL     1      -1.269  -2.172  -0.121  0.00  0.00    +0.043 A 
ATOM     27  C   UNL     1      -0.107  -2.802   0.287  0.00  0.00    -0.041 A 
ATOM     28  C   UNL     1      -0.175  -3.999   0.975  0.00  0.00    +0.003 A 
ATOM     29 CL   UNL     1      -1.184  -0.669  -0.986  0.00  0.00    -0.083 Cl
ENDBRANCH  22  27
BRANCH  22  30
ATOM     30  N   UNL     1       2.247  -2.740   0.887  0.00  0.00    +0.385 N 
ATOM     31  C   UNL     1       1.941  -2.339   2.266  0.00  0.00    -0.078 C 
ATOM     32  C   UNL     1       2.947  -2.981   3.223  0.00  0.00    -0.019 C 
ATOM     33  C   UNL     1       4.360  -2.518   2.857  0.00  0.00    -0.004 C 
ATOM     34  C   UNL     1       4.640  -2.875   1.394  0.00  0.00    -0.019 C 
ATOM     35  C   UNL     1       3.571  -2.236   0.504  0.00  0.00    -0.078 C 
ATOM     36  H   UNL     1       2.239  -3.747   0.822  0.00  0.00    -0.081 HD
ENDBRANCH  22  30
ENDBRANCH  21  22
ENDBRANCH   1  21
TORSDOF 6
