REMARK  Name = ZINC37552392
REMARK  7 active torsions:
REMARK  status: ('A' for Active; 'I' for Inactive)
REMARK    1  A    between atoms: C_1  and  C_2
REMARK    2  A    between atoms: N_8  and  S_9
REMARK    3  A    between atoms: S_9  and  N_12
REMARK    4  A    between atoms: N_12  and  C_13
REMARK    5  A    between atoms: C_18  and  C_19
REMARK    6  A    between atoms: C_20  and  C_21
REMARK    7  A    between atoms: C_21  and  O_22
REMARK                            x       y       z     vdW  Elec       q    Type
REMARK                         _______ _______ _______ _____ _____    ______ ____
ROOT
ATOM      1  N   UNL     1       0.624   1.014   3.333  0.00  0.00    -0.205 N 
ATOM      2  H   UNL     1       0.276   1.913   3.440  0.00  0.00    +0.175 HD
ENDROOT
BRANCH   1   3
ATOM      3  C   UNL     1       0.402   0.058   4.323  0.00  0.00    +0.064 A 
ATOM      4  C   UNL     1       1.373  -0.891   4.607  0.00  0.00    +0.026 A 
ATOM      5  C   UNL     1       1.151  -1.837   5.588  0.00  0.00    +0.002 A 
ATOM      6  C   UNL     1      -0.040  -1.846   6.295  0.00  0.00    +0.001 A 
ATOM      7  C   UNL     1      -1.016  -0.910   6.025  0.00  0.00    +0.019 A 
ATOM      8  C   UNL     1      -0.802   0.055   5.041  0.00  0.00    +0.047 A 
BRANCH   8   9
ATOM      9  C   UNL     1      -1.810   1.034   4.761  0.00  0.00    -0.062 C 
ATOM     10  C   UNL     1      -2.636   1.836   4.532  0.00  0.00    -0.069 C 
BRANCH  10  11
ATOM     11  C   UNL     1      -3.671   2.842   4.245  0.00  0.00    +0.244 C 
BRANCH  11  12
ATOM     12  O   UNL     1      -4.794   2.628   5.103  0.00  0.00    -0.383 OA
ATOM     13  H   UNL     1      -5.516   3.257   4.968  0.00  0.00    +0.211 HD
ENDBRANCH  11  12
ENDBRANCH  10  11
ENDBRANCH   8   9
ENDBRANCH   1   3
BRANCH   1  14
ATOM     14  S   UNL     1       1.483   0.615   1.974  0.00  0.00    +0.112 S 
ATOM     15  O   UNL     1       2.721   0.078   2.420  0.00  0.00    -0.138 OA
ATOM     16  O   UNL     1       1.407   1.734   1.103  0.00  0.00    -0.138 OA
BRANCH  14  23
ATOM     17  C   UNL     1      -0.922   1.119   0.570  0.00  0.00    +0.026 C 
ATOM     18  C   UNL     1      -0.530  -0.352   0.427  0.00  0.00    +0.078 C 
ATOM     19  C   UNL     1      -1.672  -1.240   0.933  0.00  0.00    +0.020 C 
ATOM     20  C   UNL     1      -1.222  -2.702   0.918  0.00  0.00    +0.003 C 
ATOM     21  C   UNL     1      -0.023  -2.878   1.853  0.00  0.00    +0.017 C 
ATOM     22  C   UNL     1       1.138  -2.009   1.358  0.00  0.00    +0.111 C 
ATOM     23  N   UNL     1       0.672  -0.622   1.228  0.00  0.00    -0.161 NA
ENDBRANCH  14  23
ENDBRANCH   1  14
TORSDOF 6
