REMARK  Name = ZINC35781285
REMARK  11 active torsions:
REMARK  status: ('A' for Active; 'I' for Inactive)
REMARK    1  A    between atoms: C_1  and  C_2
REMARK    2  A    between atoms: C_2  and  C_3
REMARK    3  A    between atoms: C_3  and  N_4
REMARK    4  A    between atoms: N_4  and  C_5
REMARK    5  A    between atoms: N_4  and  C_22
REMARK    6  A    between atoms: C_5  and  C_6
REMARK    7  A    between atoms: C_22  and  C_23
REMARK    8  A    between atoms: C_23  and  C_25
REMARK    9  A    between atoms: C_23  and  O_34
REMARK   10  A    between atoms: C_25  and  O_26
REMARK   11  A    between atoms: O_26  and  C_27
REMARK                            x       y       z     vdW  Elec       q    Type
REMARK                         _______ _______ _______ _____ _____    ______ ____
ROOT
ATOM      1  N   UNL     1      -1.226  -1.923  -0.009  0.00  0.00    +0.386 N 
ATOM      2  H   UNL     1      -0.692  -2.059  -0.854  0.00  0.00    -0.081 HD
ENDROOT
BRANCH   1   3
ATOM      3  C   UNL     1      -1.223  -0.498   0.348  0.00  0.00    -0.078 C 
BRANCH   3   5
ATOM      4  C   UNL     1      -2.035   1.183   2.009  0.00  0.00    +0.002 C 
ATOM      5  C   UNL     1      -2.144  -0.272   1.549  0.00  0.00    -0.022 C 
ENDBRANCH   3   5
ENDBRANCH   1   3
BRANCH   1   6
ATOM      6  C   UNL     1      -0.622  -2.702   1.081  0.00  0.00    -0.003 C 
BRANCH   6   7
ATOM      7  C   UNL     1       0.838  -2.350   1.201  0.00  0.00    +0.094 A 
ATOM      8  N   UNL     1       1.565  -2.863   2.227  0.00  0.00    -0.312 N 
ATOM      9  H   UNL     1       1.135  -3.451   2.867  0.00  0.00    +0.170 HD
ATOM     10  C   UNL     1       2.872  -2.574   2.372  0.00  0.00    +0.260 A 
ATOM     11  O   UNL     1       3.511  -3.043   3.298  0.00  0.00    -0.267 OA
ATOM     12  C   UNL     1       3.498  -1.705   1.419  0.00  0.00    +0.075 A 
ATOM     13  C   UNL     1       4.894  -1.259   1.382  0.00  0.00    -0.023 A 
ATOM     14  C   UNL     1       5.238  -0.430   0.375  0.00  0.00    -0.004 A 
ATOM     15  S   UNL     1       3.754  -0.210  -0.571  0.00  0.00    -0.073 S 
ATOM     16  C   UNL     1       2.668  -1.226   0.396  0.00  0.00    +0.116 A 
ATOM     17  N   UNL     1       1.383  -1.560   0.315  0.00  0.00    -0.229 NA
ATOM     18  C   UNL     1       6.576   0.187   0.110  0.00  0.00    +0.043 C 
ATOM     19  C   UNL     1       7.657  -0.900   0.171  0.00  0.00    +0.005 C 
ATOM     20  C   UNL     1       8.155  -1.003   1.610  0.00  0.00    +0.001 C 
ATOM     21  C   UNL     1       7.015  -0.701   2.580  0.00  0.00    +0.005 C 
ATOM     22  C   UNL     1       5.899  -1.728   2.431  0.00  0.00    +0.037 C 
ENDBRANCH   6   7
ENDBRANCH   1   6
BRANCH   1  23
ATOM     23  C   UNL     1      -2.607  -2.372  -0.225  0.00  0.00    -0.043 C 
BRANCH  23  24
ATOM     24  C   UNL     1      -3.177  -1.688  -1.469  0.00  0.00    +0.135 C 
BRANCH  24  25
ATOM     25  O   UNL     1      -3.306  -0.286  -1.225  0.00  0.00    -0.390 OA
ATOM     26  H   UNL     1      -3.891  -0.067  -0.486  0.00  0.00    +0.210 HD
ENDBRANCH  24  25
BRANCH  24  27
ATOM     27  C   UNL     1      -4.552  -2.278  -1.791  0.00  0.00    +0.258 C 
BRANCH  27  28
ATOM     28  O   UNL     1      -5.033  -1.723  -3.017  0.00  0.00    -0.489 OA
BRANCH  28  29
ATOM     29  C   UNL     1      -6.251  -2.145  -3.449  0.00  0.00    +0.121 A 
ATOM     30  C   UNL     1      -6.970  -3.070  -2.705  0.00  0.00    +0.047 A 
ATOM     31  C   UNL     1      -8.207  -3.497  -3.146  0.00  0.00    +0.023 A 
ATOM     32  C   UNL     1      -8.729  -3.005  -4.329  0.00  0.00    +0.041 A 
ATOM     33  C   UNL     1      -8.013  -2.083  -5.073  0.00  0.00    +0.023 A 
ATOM     34  C   UNL     1      -6.778  -1.648  -4.632  0.00  0.00    +0.047 A 
ATOM     35 CL   UNL     1     -10.284  -3.544  -4.882  0.00  0.00    -0.084 Cl
ENDBRANCH  28  29
ENDBRANCH  27  28
ENDBRANCH  24  27
ENDBRANCH  23  24
ENDBRANCH   1  23
TORSDOF 10
