REMARK  Name = ZINC02963887
REMARK  7 active torsions:
REMARK  status: ('A' for Active; 'I' for Inactive)
REMARK    1  A    between atoms: C_1  and  C_2
REMARK    2  A    between atoms: C_2  and  O_3
REMARK    3  A    between atoms: O_3  and  C_4
REMARK    4  A    between atoms: N_12  and  C_13
REMARK    5  A    between atoms: C_19  and  C_21
REMARK    6  A    between atoms: C_23  and  C_26
REMARK    7  A    between atoms: C_29  and  C_32
REMARK                            x       y       z     vdW  Elec       q    Type
REMARK                         _______ _______ _______ _____ _____    ______ ____
ROOT
ATOM      1  C   UNL     1      -1.257   3.119   0.060  0.00  0.00    +0.163 A 
ATOM      2  C   UNL     1      -1.214   1.734   0.054  0.00  0.00    +0.049 A 
ATOM      3  C   UNL     1       0.001   1.067   0.040  0.00  0.00    +0.004 A 
ATOM      4  C   UNL     1       1.184   1.771   0.022  0.00  0.00    +0.012 A 
ATOM      5  C   UNL     1       1.159   3.171   0.024  0.00  0.00    +0.022 A 
ATOM      6  C   UNL     1      -0.073   3.848   0.040  0.00  0.00    +0.179 A 
ATOM      7  O   UNL     1      -0.096   5.204   0.034  0.00  0.00    -0.435 OA
ATOM      8  C   UNL     1       0.979   5.838   0.570  0.00  0.00    +0.209 A 
ATOM      9  N   UNL     1       0.830   6.909   1.319  0.00  0.00    -0.325 N 
ATOM     10  C   UNL     1       2.319   5.289   0.286  0.00  0.00    +0.068 A 
ATOM     11  C   UNL     1       2.404   3.944   0.011  0.00  0.00    +0.027 A 
ATOM     12  H   UNL     1       1.702   7.359   1.816  0.00  0.00    +0.169 HD
ENDROOT
BRANCH   9  13
ATOM     13  C   UNL     1      -0.409   7.464   1.480  0.00  0.00    +0.042 A 
ATOM     14  C   UNL     1      -0.895   8.382   0.545  0.00  0.00    +0.026 A 
ATOM     15  C   UNL     1      -2.148   8.932   0.710  0.00  0.00    +0.002 A 
ATOM     16  C   UNL     1      -2.920   8.588   1.806  0.00  0.00    +0.000 A 
ATOM     17  C   UNL     1      -2.444   7.684   2.740  0.00  0.00    +0.002 A 
ATOM     18  C   UNL     1      -1.194   7.120   2.584  0.00  0.00    +0.026 A 
ENDBRANCH   9  13
BRANCH  10  19
ATOM     19  C   UNL     1       3.519   6.148   0.296  0.00  0.00    +0.114 A 
ATOM     20  N   UNL     1       4.784   5.824   0.071  0.00  0.00    -0.239 NA
ATOM     21  C   UNL     1       5.741   6.731   0.118  0.00  0.00    +0.079 A 
ATOM     22  C   UNL     1       5.423   8.031   0.414  0.00  0.00    +0.075 A 
ATOM     23  S   UNL     1       3.652   7.901   0.622  0.00  0.00    -0.075 S 
BRANCH  21  24
ATOM     24  C   UNL     1       7.150   6.346  -0.143  0.00  0.00    +0.001 A 
ATOM     25  C   UNL     1       8.159   7.306  -0.094  0.00  0.00    +0.010 A 
ATOM     26  C   UNL     1       9.468   6.941  -0.332  0.00  0.00    +0.004 A 
ATOM     27  C   UNL     1       9.779   5.627  -0.630  0.00  0.00    -0.050 A 
ATOM     28  C   UNL     1       8.781   4.670  -0.686  0.00  0.00    +0.004 A 
ATOM     29  C   UNL     1       7.469   5.023  -0.445  0.00  0.00    +0.010 A 
ATOM     30  C   UNL     1      11.210   5.235  -0.895  0.00  0.00    +0.044 C 
ENDBRANCH  21  24
ENDBRANCH  10  19
BRANCH   1  31
ATOM     31  O   UNL     1      -2.454   3.764   0.079  0.00  0.00    -0.489 OA
BRANCH  31  33
ATOM     32  C   UNL     1      -4.870   3.846   0.118  0.00  0.00    +0.048 C 
ATOM     33  C   UNL     1      -3.629   2.950   0.099  0.00  0.00    +0.226 C 
ENDBRANCH  31  33
ENDBRANCH   1  31
TORSDOF 5
