REMARK  Name = ZINC11881791
REMARK  9 active torsions:
REMARK  status: ('A' for Active; 'I' for Inactive)
REMARK    1  A    between atoms: C_1  and  C_2
REMARK    2  A    between atoms: C_2  and  C_3
REMARK    3  A    between atoms: C_3  and  C_4
REMARK    4  A    between atoms: C_4  and  C_18
REMARK    5  A    between atoms: N_7  and  C_11
REMARK    6  A    between atoms: C_11  and  C_12
REMARK    7  A    between atoms: C_23  and  C_24
REMARK    8  A    between atoms: C_23  and  N_69
REMARK    9  A    between atoms: C_25  and  C_34
REMARK                            x       y       z     vdW  Elec       q    Type
REMARK                         _______ _______ _______ _____ _____    ______ ____
ROOT
ATOM      1  C   UNL     1      -1.610   5.125   2.507  0.00  0.00    +0.018 C 
ATOM      2  C   UNL     1      -0.232   5.767   2.323  0.00  0.00    -0.013 C 
ATOM      3  C   UNL     1      -0.375   7.290   2.358  0.00  0.00    -0.078 C 
ATOM      4  C   UNL     1      -2.301   7.133   3.821  0.00  0.00    -0.078 C 
ATOM      5  C   UNL     1      -2.215   5.605   3.829  0.00  0.00    -0.013 C 
ATOM      6  N   UNL     1      -0.940   7.689   3.665  0.00  0.00    +0.383 N 
ATOM      7  H   UNL     1      -0.341   7.319   4.413  0.00  0.00    -0.081 HD
ENDROOT
BRANCH   1   8
ATOM      8  C   UNL     1      -1.466   3.603   2.534  0.00  0.00    +0.115 C 
ATOM      9  C   UNL     1      -0.723   3.159   3.779  0.00  0.00    +0.247 C 
ATOM     10  O   UNL     1       0.410   3.450   4.098  0.00  0.00    -0.273 OA
ATOM     11  N   UNL     1      -1.584   2.375   4.457  0.00  0.00    -0.222 N 
ATOM     12  C   UNL     1      -2.756   2.263   3.820  0.00  0.00    +0.309 C 
ATOM     13  O   UNL     1      -3.691   1.607   4.237  0.00  0.00    -0.252 OA
ATOM     14  N   UNL     1      -2.784   2.959   2.666  0.00  0.00    -0.285 N 
ATOM     15  H   UNL     1      -3.526   3.025   2.044  0.00  0.00    +0.151 HD
BRANCH   8  16
ATOM     16  C   UNL     1      -0.750   3.109   1.275  0.00  0.00    +0.035 C 
BRANCH  16  18
ATOM     17  C   UNL     1      -0.013   1.086   0.008  0.00  0.00    +0.004 C 
ATOM     18  C   UNL     1      -0.729   1.579   1.267  0.00  0.00    -0.001 C 
ENDBRANCH  16  18
ENDBRANCH   8  16
BRANCH  11  19
ATOM     19  C   UNL     1      -1.275   1.725   5.733  0.00  0.00    +0.149 C 
BRANCH  19  20
ATOM     20  C   UNL     1      -1.662   2.654   6.885  0.00  0.00    +0.136 C 
ATOM     21  C   UNL     1      -1.230   2.030   8.229  0.00  0.00    +0.035 C 
ATOM     22  C   UNL     1      -2.425   2.390   9.157  0.00  0.00    +0.031 C 
ATOM     23  C   UNL     1      -3.607   2.314   8.159  0.00  0.00    +0.160 C 
ATOM     24  O   UNL     1      -3.085   2.819   6.920  0.00  0.00    -0.375 OA
ENDBRANCH  19  20
ENDBRANCH  11  19
ENDBRANCH   1   8
BRANCH   6  25
ATOM     25  C   UNL     1      -0.981   9.162   3.768  0.00  0.00    -0.021 C 
BRANCH  25  26
ATOM     26  C   UNL     1       0.350   9.725   3.341  0.00  0.00    +0.047 A 
ATOM     27  C   UNL     1       1.363   9.898   4.287  0.00  0.00    +0.058 A 
ATOM     28  N   UNL     1       2.532  10.381   3.938  0.00  0.00    -0.249 NA
ATOM     29  C   UNL     1       2.754  10.723   2.663  0.00  0.00    +0.089 A 
ATOM     30  C   UNL     1       3.993  11.250   2.258  0.00  0.00    +0.030 A 
ATOM     31  C   UNL     1       4.188  11.588   0.955  0.00  0.00    +0.002 A 
ATOM     32  C   UNL     1       3.175  11.421   0.011  0.00  0.00    +0.002 A 
ATOM     33  C   UNL     1       1.963  10.914   0.367  0.00  0.00    +0.030 A 
ATOM     34  C   UNL     1       1.724  10.553   1.704  0.00  0.00    +0.089 A 
ATOM     35  N   UNL     1       0.543  10.053   2.084  0.00  0.00    -0.250 NA
ATOM     36  C   UNL     1       1.112   9.519   5.725  0.00  0.00    +0.067 C 
ENDBRANCH  25  26
ENDBRANCH   6  25
TORSDOF 7
