REMARK  Name = ZINC15860460
REMARK  6 active torsions:
REMARK  status: ('A' for Active; 'I' for Inactive)
REMARK    1  A    between atoms: C_1  and  C_2
REMARK    2  A    between atoms: C_5  and  C_7
REMARK    3  A    between atoms: C_7  and  C_9
REMARK    4  A    between atoms: C_7  and  N_47
REMARK    5  A    between atoms: C_9  and  N_10
REMARK    6  A    between atoms: C_11  and  C_13
REMARK                            x       y       z     vdW  Elec       q    Type
REMARK                         _______ _______ _______ _____ _____    ______ ____
ROOT
ATOM      1  N   UNL     1       6.448   2.065  -1.238  0.00  0.00    -0.312 N 
ATOM      2  C   UNL     1       5.733   3.183  -1.474  0.00  0.00    +0.252 C 
ATOM      3  O   UNL     1       4.809   3.480  -0.739  0.00  0.00    -0.270 OA
ATOM      4  H   UNL     1       7.185   1.829  -1.823  0.00  0.00    +0.149 HD
ENDROOT
BRANCH   2   5
ATOM      5  C   UNL     1       6.067   4.042  -2.616  0.00  0.00    +0.093 A 
ATOM      6  C   UNL     1       5.468   5.197  -3.012  0.00  0.00    +0.068 A 
ATOM      7  C   UNL     1       5.943   5.880  -4.148  0.00  0.00    +0.008 A 
ATOM      8  C   UNL     1       5.454   7.084  -4.717  0.00  0.00    +0.012 A 
ATOM      9  C   UNL     1       6.035   7.617  -5.822  0.00  0.00    +0.021 A 
ATOM     10  C   UNL     1       7.118   7.003  -6.444  0.00  0.00    +0.042 A 
ATOM     11  C   UNL     1       7.623   5.827  -5.925  0.00  0.00    +0.035 A 
ATOM     12  C   UNL     1       7.045   5.278  -4.800  0.00  0.00    +0.023 A 
ATOM     13  S   UNL     1       7.361   3.827  -3.827  0.00  0.00    -0.082 S 
ATOM     14 CL   UNL     1       7.830   7.712  -7.859  0.00  0.00    -0.084 Cl
ATOM     15 CL   UNL     1       4.120   5.829  -2.119  0.00  0.00    -0.082 Cl
ENDBRANCH   2   5
BRANCH   1  16
ATOM     16  C   UNL     1       6.114   1.208  -0.098  0.00  0.00    +0.097 C 
BRANCH  16  17
ATOM     17  C   UNL     1       6.994  -0.043  -0.126  0.00  0.00    +0.016 C 
BRANCH  17  22
ATOM     18  C   UNL     1      11.280   1.301   2.168  0.00  0.00    +0.086 C 
ATOM     19  C   UNL     1      10.297   0.934   1.087  0.00  0.00    +0.102 A 
ATOM     20  C   UNL     1      10.565   0.863  -0.229  0.00  0.00    +0.044 A 
ATOM     21  C   UNL     1       9.365   0.481  -0.872  0.00  0.00    +0.043 A 
ATOM     22  C   UNL     1       8.433   0.349   0.090  0.00  0.00    +0.093 A 
ATOM     23  O   UNL     1       9.004   0.622   1.274  0.00  0.00    -0.466 OA
ENDBRANCH  17  22
BRANCH  17  28
ATOM     24  C   UNL     1       5.152  -1.362   0.767  0.00  0.00    -0.078 C 
ATOM     25  C   UNL     1       5.048  -2.666   1.598  0.00  0.00    -0.020 C 
ATOM     26  C   UNL     1       6.409  -3.352   1.337  0.00  0.00    -0.020 C 
ATOM     27  C   UNL     1       7.353  -2.217   0.898  0.00  0.00    -0.078 C 
ATOM     28  N   UNL     1       6.563  -0.986   0.950  0.00  0.00    +0.387 N 
ATOM     29  H   UNL     1       6.686  -0.534   1.863  0.00  0.00    -0.081 HD
ENDBRANCH  17  28
ENDBRANCH  16  17
ENDBRANCH   1  16
TORSDOF 5
