REMARK  Name = ZINC13117411
REMARK  4 active torsions:
REMARK  status: ('A' for Active; 'I' for Inactive)
REMARK    1  A    between atoms: C_3  and  C_6
REMARK    2  A    between atoms: C_16  and  C_18
REMARK    3  A    between atoms: C_23  and  C_25
REMARK    4  A    between atoms: C_25  and  N_26
REMARK                            x       y       z     vdW  Elec       q    Type
REMARK                         _______ _______ _______ _____ _____    ______ ____
ROOT
ATOM      1  C   UNL     1       3.734   1.803  -0.024  0.00  0.00    +0.020 C 
ATOM      2  C   UNL     1       4.761   0.921  -0.039  0.00  0.00    -0.023 C 
ATOM      3  C   UNL     1       4.471  -0.549  -0.050  0.00  0.00    +0.037 C 
ATOM      4  C   UNL     1       5.696  -1.424  -0.226  0.00  0.00    +0.005 C 
ATOM      5  C   UNL     1       6.958  -0.835   0.401  0.00  0.00    +0.012 C 
ATOM      6  C   UNL     1       7.276   0.480  -0.313  0.00  0.00    +0.067 C 
ATOM      7  C   UNL     1       6.089   1.400  -0.049  0.00  0.00    +0.068 C 
ATOM      8  N   UNL     1       6.545   2.587   0.168  0.00  0.00    -0.181 NA
ATOM      9  N   UNL     1       7.937   2.633   0.308  0.00  0.00    -0.183 N 
ATOM     10  C   UNL     1       8.441   1.229   0.357  0.00  0.00    +0.147 C 
ATOM     11  C   UNL     1       8.691   3.747   0.386  0.00  0.00    +0.249 C 
ATOM     12  O   UNL     1       9.896   3.657   0.506  0.00  0.00    -0.272 OA
ENDROOT
BRANCH   1  15
ATOM     13  C   UNL     1      -0.016   1.355   0.009  0.00  0.00    +0.008 A 
ATOM     14  C   UNL     1       1.172   2.045   0.002  0.00  0.00    +0.015 A 
ATOM     15  C   UNL     1       2.354   1.319  -0.013  0.00  0.00    +0.012 A 
ATOM     16  S   UNL     1       1.751  -0.362  -0.017  0.00  0.00    -0.097 S 
ATOM     17  C   UNL     1       0.002  -0.004   0.002  0.00  0.00    +0.046 A 
ENDBRANCH   1  15
BRANCH  10  18
ATOM     18  C   UNL     1       8.639   0.762   1.776  0.00  0.00    +0.013 A 
ATOM     19  C   UNL     1       9.554  -0.110   2.267  0.00  0.00    +0.013 A 
ATOM     20  C   UNL     1       9.551  -0.393   3.620  0.00  0.00    +0.008 A 
ATOM     21  C   UNL     1       8.634   0.209   4.415  0.00  0.00    +0.045 A 
ATOM     22  S   UNL     1       7.737   1.218   3.247  0.00  0.00    -0.100 S 
ENDBRANCH  10  18
BRANCH  11  23
ATOM     23  C   UNL     1       8.040   5.104   0.323  0.00  0.00    +0.183 C 
BRANCH  23  24
ATOM     24  N   UNL     1       9.069   6.147   0.428  0.00  0.00    -0.284 NA
ATOM     25  C   UNL     1       8.458   7.477   0.585  0.00  0.00    +0.104 C 
ATOM     26  C   UNL     1       9.546   8.472   0.996  0.00  0.00    +0.119 C 
ATOM     27  N   UNL     1      10.690   8.362   0.096  0.00  0.00    -0.313 N 
ATOM     28  C   UNL     1      10.900   7.299  -0.688  0.00  0.00    +0.227 C 
ATOM     29  O   UNL     1      11.893   7.277  -1.383  0.00  0.00    -0.274 OA
ATOM     30  C   UNL     1       9.956   6.131  -0.743  0.00  0.00    +0.181 C 
ATOM     31  H   UNL     1      11.327   9.094   0.064  0.00  0.00    +0.149 HD
ENDBRANCH  23  24
ENDBRANCH  11  23
TORSDOF 4
