REMARK  Name = ZINC08962221
REMARK  9 active torsions:
REMARK  status: ('A' for Active; 'I' for Inactive)
REMARK    1  A    between atoms: C_1  and  C_2
REMARK    2  A    between atoms: C_2  and  C_3
REMARK    3  A    between atoms: C_6  and  O_28
REMARK    4  A    between atoms: C_7  and  S_9
REMARK    5  A    between atoms: S_9  and  N_12
REMARK    6  A    between atoms: N_12  and  C_13
REMARK    7  A    between atoms: C_22  and  C_26
REMARK    8  A    between atoms: C_26  and  C_27
REMARK    9  A    between atoms: O_28  and  C_29
REMARK                            x       y       z     vdW  Elec       q    Type
REMARK                         _______ _______ _______ _____ _____    ______ ____
ROOT
ATOM      1  N   UNL     1      -2.867   2.571  -1.649  0.00  0.00    -0.216 N 
ATOM      2  H   UNL     1      -3.132   3.343  -2.173  0.00  0.00    +0.174 HD
ENDROOT
BRANCH   1   3
ATOM      3  C   UNL     1      -3.026   1.282  -2.172  0.00  0.00    +0.049 A 
ATOM      4  C   UNL     1      -1.990   0.359  -2.069  0.00  0.00    +0.028 A 
ATOM      5  C   UNL     1      -2.138  -0.917  -2.575  0.00  0.00    +0.048 A 
ATOM      6  C   UNL     1      -3.319  -1.283  -3.199  0.00  0.00    +0.133 A 
ATOM      7  C   UNL     1      -4.364  -0.353  -3.314  0.00  0.00    +0.080 A 
ATOM      8  C   UNL     1      -4.213   0.931  -2.796  0.00  0.00    +0.041 A 
ATOM      9  C   UNL     1      -5.611  -0.759  -3.990  0.00  0.00    +0.248 C 
ATOM     10  O   UNL     1      -6.113  -0.050  -4.841  0.00  0.00    -0.270 OA
ATOM     11  N   UNL     1      -6.186  -1.937  -3.647  0.00  0.00    -0.305 N 
ATOM     12  C   UNL     1      -5.623  -2.722  -2.546  0.00  0.00    +0.110 C 
ATOM     13  C   UNL     1      -4.338  -3.414  -2.979  0.00  0.00    +0.251 C 
ATOM     14  O   UNL     1      -3.485  -2.534  -3.700  0.00  0.00    -0.489 OA
ATOM     15  H   UNL     1      -6.965  -2.258  -4.127  0.00  0.00    +0.149 HD
BRANCH  12  16
ATOM     16  C   UNL     1      -5.323  -1.794  -1.368  0.00  0.00    +0.022 C 
ATOM     17  C   UNL     1      -6.599  -1.052  -0.965  0.00  0.00    +0.006 C 
ENDBRANCH  12  16
ENDBRANCH   1   3
BRANCH   1  18
ATOM     18  S   UNL     1      -2.228   2.777  -0.135  0.00  0.00    +0.076 S 
ATOM     19  O   UNL     1      -2.897   1.857   0.717  0.00  0.00    -0.150 OA
ATOM     20  O   UNL     1      -2.216   4.176   0.114  0.00  0.00    -0.150 OA
BRANCH  18  25
ATOM     21  C   UNL     1       1.203   0.778   0.484  0.00  0.00    -0.046 A 
ATOM     22  C   UNL     1       2.104   1.463  -0.310  0.00  0.00    +0.007 A 
ATOM     23  C   UNL     1       1.685   2.548  -1.055  0.00  0.00    +0.048 A 
ATOM     24  C   UNL     1       0.358   2.951  -1.005  0.00  0.00    +0.147 A 
ATOM     25  C   UNL     1      -0.544   2.263  -0.207  0.00  0.00    +0.150 A 
ATOM     26  C   UNL     1      -0.120   1.178   0.536  0.00  0.00    +0.036 A 
BRANCH  21  28
ATOM     27  C   UNL     1       2.126   0.069   2.674  0.00  0.00    +0.009 C 
ATOM     28  C   UNL     1       1.662  -0.406   1.295  0.00  0.00    +0.032 C 
ENDBRANCH  21  28
BRANCH  24  29
ATOM     29  O   UNL     1      -0.057   4.018  -1.737  0.00  0.00    -0.493 OA
ATOM     30  C   UNL     1       0.899   4.611  -2.619  0.00  0.00    +0.277 C 
ENDBRANCH  24  29
ENDBRANCH  18  25
ENDBRANCH   1  18
TORSDOF 6
