REMARK  Name = ZINC46674023
REMARK  3 active torsions:
REMARK  status: ('A' for Active; 'I' for Inactive)
REMARK    1  A    between atoms: C_9  and  C_11
REMARK    2  A    between atoms: C_16  and  C_19
REMARK    3  A    between atoms: C_21  and  C_25
REMARK                            x       y       z     vdW  Elec       q    Type
REMARK                         _______ _______ _______ _____ _____    ______ ____
ROOT
ATOM      1  C   UNL     1       5.974   0.910  -0.051  0.00  0.00    +0.285 C 
ATOM      2  O   UNL     1       6.652  -0.100  -0.063  0.00  0.00    -0.266 OA
ATOM      3  N   UNL     1       6.567   2.120  -0.050  0.00  0.00    -0.258 N 
ATOM      4  C   UNL     1       7.952   2.215  -0.063  0.00  0.00    +0.165 A 
ATOM      5  N   UNL     1       8.694   3.299  -0.059  0.00  0.00    -0.225 NA
ATOM      6  C   UNL     1      10.019   3.223  -0.072  0.00  0.00    +0.082 A 
ATOM      7  C   UNL     1      10.560   1.968  -0.090  0.00  0.00    +0.077 A 
ATOM      8  S   UNL     1       9.081   0.968  -0.080  0.00  0.00    -0.060 S 
ATOM      9  H   UNL     1       6.026   2.926  -0.041  0.00  0.00    +0.157 HD
ENDROOT
BRANCH   1  18
ATOM     10  C   UNL     1      -0.017   1.385   0.010  0.00  0.00    +0.019 A 
ATOM     11  C   UNL     1       1.158   2.105   0.002  0.00  0.00    +0.048 A 
ATOM     12  C   UNL     1       2.378   1.439  -0.013  0.00  0.00    +0.136 A 
ATOM     13  C   UNL     1       2.392   0.032  -0.021  0.00  0.00    +0.022 A 
ATOM     14  C   UNL     1       1.190  -0.680  -0.013  0.00  0.00    +0.027 A 
ATOM     15  C   UNL     1       0.002  -0.004   0.002  0.00  0.00    +0.019 A 
ATOM     16 BR   UNL     1      -1.626  -0.966   0.012  0.00  0.00    -0.050 Br
ATOM     17  C   UNL     1       3.803  -0.351  -0.037  0.00  0.00    +0.063 A 
ATOM     18  C   UNL     1       4.508   0.811  -0.037  0.00  0.00    +0.191 A 
ATOM     19  O   UNL     1       3.659   1.859  -0.023  0.00  0.00    -0.450 OA
ENDBRANCH   1  18
BRANCH   6  20
ATOM     20  C   UNL     1      10.870   4.439  -0.069  0.00  0.00    +0.019 A 
ATOM     21  C   UNL     1      10.423   5.768   0.053  0.00  0.00    +0.042 A 
ATOM     22  C   UNL     1      11.528   6.572   0.010  0.00  0.00    +0.102 A 
ATOM     23  N   UNL     1      12.634   5.767  -0.135  0.00  0.00    -0.356 N 
ATOM     24  H   UNL     1      13.553   6.074  -0.194  0.00  0.00    +0.165 HD
ATOM     25  C   UNL     1      12.231   4.473  -0.177  0.00  0.00    +0.093 A 
BRANCH  22  26
ATOM     26  C   UNL     1      11.533   8.037   0.102  0.00  0.00    +0.258 C 
ATOM     27  O   UNL     1      10.485   8.642   0.229  0.00  0.00    -0.269 OA
ATOM     28  N   UNL     1      12.698   8.711   0.045  0.00  0.00    -0.324 N 
ATOM     29  H   UNL     1      13.534   8.228  -0.056  0.00  0.00    +0.145 HD
ATOM     30  H   UNL     1      12.702   9.679   0.106  0.00  0.00    +0.145 HD
ENDBRANCH  22  26
ENDBRANCH   6  20
TORSDOF 3
