REMARK  Name = ZINC12305660
REMARK  8 active torsions:
REMARK  status: ('A' for Active; 'I' for Inactive)
REMARK    1  A    between atoms: C_1  and  C_2
REMARK    2  A    between atoms: C_9  and  C_21
REMARK    3  A    between atoms: C_10  and  C_11
REMARK    4  A    between atoms: C_11  and  N_59
REMARK    5  A    between atoms: C_12  and  C_13
REMARK    6  A    between atoms: C_12  and  N_59
REMARK    7  A    between atoms: C_13  and  C_14
REMARK    8  A    between atoms: C_17  and  O_20
REMARK                            x       y       z     vdW  Elec       q    Type
REMARK                         _______ _______ _______ _____ _____    ______ ____
ROOT
ATOM      1  C   UNL     1       1.526   8.859   5.402  0.00  0.00    +0.044 C 
ATOM      2  C   UNL     1       1.894   8.206   4.095  0.00  0.00    -0.046 A 
ATOM      3  C   UNL     1       3.066   8.591   3.419  0.00  0.00    +0.021 A 
ATOM      4  C   UNL     1       3.399   8.010   2.249  0.00  0.00    +0.093 A 
ATOM      5  N   UNL     1       2.607   7.040   1.702  0.00  0.00    -0.305 N 
ATOM      6  C   UNL     1       1.457   6.643   2.338  0.00  0.00    +0.139 A 
ATOM      7  C   UNL     1       1.095   7.243   3.564  0.00  0.00    +0.050 A 
ATOM      8  N   UNL     1       0.877   5.707   1.606  0.00  0.00    -0.223 NA
ATOM      9  C   UNL     1       1.627   5.478   0.512  0.00  0.00    +0.146 A 
ATOM     10  C   UNL     1       2.711   6.308   0.558  0.00  0.00    +0.039 A 
ENDROOT
BRANCH   9  11
ATOM     11  C   UNL     1       1.328   4.504  -0.556  0.00  0.00    +0.267 C 
ATOM     12  O   UNL     1       2.133   4.310  -1.446  0.00  0.00    -0.268 OA
ATOM     13  N   UNL     1       0.161   3.829  -0.544  0.00  0.00    -0.296 N 
ATOM     14  C   UNL     1      -0.139   2.915  -1.663  0.00  0.00    +0.108 C 
ATOM     15  C   UNL     1      -0.763   1.593  -1.181  0.00  0.00    +0.019 C 
ATOM     16  C   UNL     1      -0.074   1.122   0.077  0.00  0.00    +0.002 C 
ATOM     17  C   UNL     1      -0.817   1.663   1.294  0.00  0.00    +0.002 C 
ATOM     18  C   UNL     1      -0.419   3.021   1.692  0.00  0.00    +0.019 C 
ATOM     19  C   UNL     1      -0.745   4.031   0.564  0.00  0.00    +0.108 C 
ENDBRANCH   9  11
BRANCH  10  20
ATOM     20  C   UNL     1       3.814   6.398  -0.465  0.00  0.00    -0.025 C 
BRANCH  20  21
ATOM     21  N   UNL     1       4.887   5.451  -0.103  0.00  0.00    +0.383 N 
ATOM     22  H   UNL     1       4.505   4.498  -0.084  0.00  0.00    -0.085 HD
ATOM     23  H   UNL     1       5.252   5.692   0.826  0.00  0.00    -0.085 HD
BRANCH  21  24
ATOM     24  C   UNL     1       5.982   5.517  -1.088  0.00  0.00    -0.077 C 
BRANCH  24  25
ATOM     25  C   UNL     1       7.077   4.527  -0.687  0.00  0.00    +0.016 C 
BRANCH  25  26
ATOM     26  C   UNL     1       8.201   4.588  -1.690  0.00  0.00    -0.049 A 
ATOM     27  C   UNL     1       8.185   3.759  -2.796  0.00  0.00    +0.007 A 
ATOM     28  C   UNL     1       9.211   3.817  -3.719  0.00  0.00    +0.045 A 
ATOM     29  C   UNL     1      10.264   4.701  -3.529  0.00  0.00    +0.117 A 
ATOM     30  C   UNL     1      10.281   5.527  -2.415  0.00  0.00    +0.045 A 
ATOM     31  C   UNL     1       9.249   5.469  -1.498  0.00  0.00    +0.007 A 
BRANCH  29  32
ATOM     32  O   UNL     1      11.277   4.756  -4.433  0.00  0.00    -0.507 OA
ATOM     33  H   UNL     1      12.009   4.153  -4.242  0.00  0.00    +0.292 HD
ENDBRANCH  29  32
ENDBRANCH  25  26
ENDBRANCH  24  25
ENDBRANCH  21  24
ENDBRANCH  20  21
ENDBRANCH  10  20
TORSDOF 7
