REMARK  Name = ZINC24953175
REMARK  9 active torsions:
REMARK  status: ('A' for Active; 'I' for Inactive)
REMARK    1  A    between atoms: C_1  and  C_2
REMARK    2  A    between atoms: C_2  and  C_4
REMARK    3  A    between atoms: C_2  and  N_11
REMARK    4  A    between atoms: C_12  and  C_14
REMARK    5  A    between atoms: C_14  and  C_16
REMARK    6  A    between atoms: C_14  and  N_19
REMARK    7  A    between atoms: C_16  and  C_17
REMARK    8  A    between atoms: C_16  and  C_18
REMARK    9  A    between atoms: C_20  and  C_22
REMARK                            x       y       z     vdW  Elec       q    Type
REMARK                         _______ _______ _______ _____ _____    ______ ____
ROOT
ATOM      1  C   UNL     1       2.828  -0.986   2.442  0.00  0.00    +0.161 C 
ENDROOT
BRANCH   1   3
ATOM      2  N   UNL     1       1.002  -0.159   0.994  0.00  0.00    -0.307 N 
ATOM      3  C   UNL     1       2.256  -0.642   1.091  0.00  0.00    +0.234 C 
ATOM      4  O   UNL     1       2.923  -0.802   0.091  0.00  0.00    -0.274 OA
ATOM      5  H   UNL     1       0.442  -0.100   1.784  0.00  0.00    +0.149 HD
BRANCH   2   7
ATOM      6  C   UNL     1       0.905   1.727  -0.560  0.00  0.00    +0.033 C 
ATOM      7  C   UNL     1       0.484   0.279  -0.305  0.00  0.00    +0.101 C 
BRANCH   7   8
ATOM      8  C   UNL     1      -1.020   0.186  -0.303  0.00  0.00    -0.014 A 
ATOM      9  C   UNL     1      -1.716   0.258   0.890  0.00  0.00    +0.006 A 
ATOM     10  C   UNL     1      -3.095   0.173   0.891  0.00  0.00    +0.000 A 
ATOM     11  C   UNL     1      -3.780   0.018  -0.299  0.00  0.00    +0.001 A 
ATOM     12  C   UNL     1      -3.086  -0.053  -1.492  0.00  0.00    +0.015 A 
ATOM     13  C   UNL     1      -1.705   0.036  -1.495  0.00  0.00    +0.023 A 
ATOM     14 BR   UNL     1      -0.755  -0.054  -3.127  0.00  0.00    -0.050 Br
ENDBRANCH   7   8
ENDBRANCH   2   7
ENDBRANCH   1   3
BRANCH   1  15
ATOM     15  N   UNL     1       4.287  -0.854   2.402  0.00  0.00    -0.304 N 
ATOM     16  C   UNL     1       4.973  -0.610   3.536  0.00  0.00    +0.217 C 
ATOM     17  O   UNL     1       4.383  -0.499   4.590  0.00  0.00    -0.275 OA
ATOM     18  H   UNL     1       4.759  -0.942   1.559  0.00  0.00    +0.149 HD
BRANCH  16  19
ATOM     19  C   UNL     1       6.473  -0.475   3.495  0.00  0.00    +0.075 C 
ATOM     20  C   UNL     1       7.088  -1.771   2.963  0.00  0.00    +0.013 C 
ATOM     21  C   UNL     1       8.611  -1.633   2.921  0.00  0.00    +0.001 C 
ATOM     22  C   UNL     1       9.138  -1.361   4.331  0.00  0.00    +0.000 C 
ATOM     23  C   UNL     1       8.523  -0.065   4.864  0.00  0.00    +0.001 C 
ATOM     24  C   UNL     1       7.000  -0.202   4.905  0.00  0.00    +0.013 C 
ENDBRANCH  16  19
ENDBRANCH   1  15
BRANCH   1  25
ATOM     25  C   UNL     1       2.456  -2.425   2.804  0.00  0.00    +0.012 C 
ATOM     26  C   UNL     1       0.939  -2.532   2.972  0.00  0.00    +0.009 C 
ATOM     27  C   UNL     1       2.913  -3.365   1.686  0.00  0.00    +0.009 C 
ENDBRANCH   1  25
TORSDOF 6
