REMARK  Name = ZINC03670413
REMARK  12 active torsions:
REMARK  status: ('A' for Active; 'I' for Inactive)
REMARK    1  A    between atoms: C_1  and  C_2
REMARK    2  A    between atoms: C_2  and  N_3
REMARK    3  A    between atoms: N_3  and  C_4
REMARK    4  A    between atoms: N_3  and  C_6
REMARK    5  A    between atoms: C_4  and  C_5
REMARK    6  A    between atoms: C_6  and  C_7
REMARK    7  A    between atoms: C_7  and  C_9
REMARK    8  A    between atoms: C_7  and  C_10
REMARK    9  A    between atoms: C_10  and  N_11
REMARK   10  A    between atoms: C_12  and  C_14
REMARK   11  A    between atoms: C_14  and  O_33
REMARK   12  A    between atoms: N_24  and  C_25
REMARK                            x       y       z     vdW  Elec       q    Type
REMARK                         _______ _______ _______ _____ _____    ______ ____
ROOT
ATOM      1  C   UNL     1      -5.395  -6.569  -1.319  0.00  0.00    +0.247 C 
ATOM      2  C   UNL     1      -5.921  -6.064  -2.643  0.00  0.00    +0.033 A 
ATOM      3  C   UNL     1      -5.128  -6.042  -3.767  0.00  0.00    +0.010 A 
ATOM      4  C   UNL     1      -5.645  -5.573  -4.963  0.00  0.00    +0.001 A 
ATOM      5  C   UNL     1      -6.953  -5.129  -5.025  0.00  0.00    +0.002 A 
ATOM      6  C   UNL     1      -7.751  -5.150  -3.898  0.00  0.00    +0.024 A 
ATOM      7  C   UNL     1      -7.238  -5.619  -2.696  0.00  0.00    +0.043 A 
ATOM      8  N   UNL     1      -8.028  -5.648  -1.547  0.00  0.00    -0.269 N 
ATOM      9  C   UNL     1      -7.580  -6.091  -0.365  0.00  0.00    +0.314 C 
ATOM     10  O   UNL     1      -8.339  -6.080   0.584  0.00  0.00    -0.252 OA
ATOM     11  N   UNL     1      -6.328  -6.548  -0.180  0.00  0.00    -0.214 N 
ATOM     12  H   UNL     1      -8.944  -5.333  -1.606  0.00  0.00    +0.156 HD
ENDROOT
BRANCH  11  13
ATOM     13  C   UNL     1      -5.918  -6.999   1.080  0.00  0.00    +0.043 A 
ATOM     14  C   UNL     1      -5.766  -6.098   2.126  0.00  0.00    +0.025 A 
ATOM     15  C   UNL     1      -5.362  -6.545   3.369  0.00  0.00    +0.023 A 
ATOM     16  C   UNL     1      -5.107  -7.889   3.573  0.00  0.00    +0.059 A 
ATOM     17  C   UNL     1      -5.256  -8.790   2.532  0.00  0.00    +0.061 A 
ATOM     18  C   UNL     1      -5.667  -8.349   1.288  0.00  0.00    +0.045 A 
ATOM     19 CL   UNL     1      -4.935 -10.477   2.792  0.00  0.00    -0.082 Cl
ATOM     20 CL   UNL     1      -4.599  -8.447   5.136  0.00  0.00    -0.082 Cl
ENDBRANCH  11  13
BRANCH   1  22
ATOM     21  N   UNL     1      -4.353  -4.462  -0.549  0.00  0.00    -0.311 N 
ATOM     22  C   UNL     1      -4.193  -5.738  -0.950  0.00  0.00    +0.269 C 
ATOM     23  O   UNL     1      -3.081  -6.219  -1.014  0.00  0.00    -0.270 OA
ATOM     24  H   UNL     1      -5.242  -4.077  -0.498  0.00  0.00    +0.149 HD
BRANCH  21  25
ATOM     25  C   UNL     1      -3.184  -3.655  -0.190  0.00  0.00    +0.105 C 
BRANCH  25  26
ATOM     26  C   UNL     1      -3.639  -2.255   0.226  0.00  0.00    -0.014 C 
ATOM     27  C   UNL     1      -4.474  -2.349   1.505  0.00  0.00    +0.007 C 
BRANCH  26  28
ATOM     28  C   UNL     1      -2.414  -1.374   0.481  0.00  0.00    -0.074 C 
BRANCH  28  29
ATOM     29  N   UNL     1      -2.850  -0.011   0.810  0.00  0.00    +0.380 N 
ATOM     30  H   UNL     1      -3.498  -0.042   1.583  0.00  0.00    -0.082 HD
BRANCH  29  32
ATOM     31  C   UNL     1      -2.149   2.183   1.642  0.00  0.00    -0.017 C 
ATOM     32  C   UNL     1      -1.683   0.801   1.180  0.00  0.00    -0.082 C 
ENDBRANCH  29  32
BRANCH  29  33
ATOM     33  C   UNL     1      -3.511   0.587  -0.358  0.00  0.00    -0.082 C 
ATOM     34  C   UNL     1      -2.540   0.603  -1.541  0.00  0.00    -0.017 C 
ENDBRANCH  29  33
ENDBRANCH  28  29
ENDBRANCH  26  28
ENDBRANCH  25  26
ENDBRANCH  21  25
ENDBRANCH   1  22
BRANCH   1  35
ATOM     35  O   UNL     1      -4.955  -7.915  -1.505  0.00  0.00    -0.360 OA
ATOM     36  H   UNL     1      -4.293  -8.020  -2.202  0.00  0.00    +0.213 HD
ENDBRANCH   1  35
TORSDOF 9
