REMARK  Name = ZINC01082580
REMARK  11 active torsions:
REMARK  status: ('A' for Active; 'I' for Inactive)
REMARK    1  A    between atoms: C_1  and  C_2
REMARK    2  A    between atoms: C_2  and  C_3
REMARK    3  A    between atoms: N_11  and  C_23
REMARK    4  A    between atoms: C_12  and  S_14
REMARK    5  A    between atoms: S_14  and  C_15
REMARK    6  A    between atoms: C_15  and  C_17
REMARK    7  A    between atoms: C_15  and  C_19
REMARK    8  A    between atoms: C_17  and  C_18
REMARK    9  A    between atoms: N_21  and  N_22
REMARK   10  A    between atoms: C_26  and  O_29
REMARK   11  A    between atoms: O_29  and  C_30
REMARK                            x       y       z     vdW  Elec       q    Type
REMARK                         _______ _______ _______ _____ _____    ______ ____
ROOT
ATOM      1  C   UNL     1       0.894   1.005  -1.666  0.00  0.00    -0.033 A 
ATOM      2  C   UNL     1       0.052   0.646  -2.696  0.00  0.00    +0.004 A 
ATOM      3  C   UNL     1       0.383  -0.399  -3.548  0.00  0.00    +0.002 A 
ATOM      4  C   UNL     1       1.556  -1.099  -3.384  0.00  0.00    +0.028 A 
ATOM      5  C   UNL     1       2.428  -0.755  -2.347  0.00  0.00    +0.079 A 
ATOM      6  C   UNL     1       2.091   0.313  -1.484  0.00  0.00    +0.068 A 
ATOM      7  C   UNL     1       3.027   0.657  -0.406  0.00  0.00    +0.267 A 
ATOM      8  O   UNL     1       2.790   1.563   0.371  0.00  0.00    -0.267 OA
ATOM      9  N   UNL     1       4.164  -0.071  -0.309  0.00  0.00    -0.255 N 
ATOM     10  C   UNL     1       4.414  -1.086  -1.191  0.00  0.00    +0.177 A 
ATOM     11  N   UNL     1       3.587  -1.416  -2.153  0.00  0.00    -0.223 NA
ENDROOT
BRANCH   9  12
ATOM     12  C   UNL     1       5.091   0.217   0.702  0.00  0.00    +0.052 A 
ATOM     13  C   UNL     1       4.920  -0.315   1.974  0.00  0.00    +0.030 A 
ATOM     14  C   UNL     1       5.833  -0.031   2.969  0.00  0.00    +0.047 A 
ATOM     15  C   UNL     1       6.923   0.785   2.699  0.00  0.00    +0.120 A 
ATOM     16  C   UNL     1       7.094   1.317   1.429  0.00  0.00    +0.047 A 
ATOM     17  C   UNL     1       6.184   1.029   0.431  0.00  0.00    +0.030 A 
BRANCH  15  18
ATOM     18  O   UNL     1       7.822   1.065   3.680  0.00  0.00    -0.495 OA
ATOM     19  C   UNL     1       8.919   1.912   3.332  0.00  0.00    +0.277 C 
ENDBRANCH  15  18
ENDBRANCH   9  12
BRANCH   1  21
ATOM     20  C   UNL     1       1.177   3.432  -1.247  0.00  0.00    +0.009 C 
ATOM     21  C   UNL     1       0.527   2.141  -0.746  0.00  0.00    +0.032 C 
ENDBRANCH   1  21
BRANCH  10  22
ATOM     22  S   UNL     1       5.909  -2.001  -1.017  0.00  0.00    -0.074 S 
BRANCH  22  23
ATOM     23  C   UNL     1       5.914  -3.110  -2.453  0.00  0.00    +0.141 C 
BRANCH  23  24
ATOM     24  C   UNL     1       6.035  -2.297  -3.716  0.00  0.00    +0.240 C 
ATOM     25  O   UNL     1       6.549  -1.199  -3.683  0.00  0.00    -0.273 OA
ATOM     26  N   UNL     1       5.570  -2.790  -4.881  0.00  0.00    -0.253 N 
ATOM     27  H   UNL     1       5.158  -3.667  -4.907  0.00  0.00    +0.169 HD
BRANCH  26  28
ATOM     28  N   UNL     1       5.679  -2.052  -6.026  0.00  0.00    -0.254 NA
ATOM     29  H   UNL     1       6.638  -1.794  -6.200  0.00  0.00    +0.140 HD
ATOM     30  H   UNL     1       5.289  -2.548  -6.814  0.00  0.00    +0.140 HD
ENDBRANCH  26  28
ENDBRANCH  23  24
BRANCH  23  31
ATOM     31  C   UNL     1       7.101  -4.071  -2.350  0.00  0.00    +0.020 C 
ATOM     32  C   UNL     1       6.944  -4.943  -1.103  0.00  0.00    +0.005 C 
ENDBRANCH  23  31
ENDBRANCH  22  23
ENDBRANCH  10  22
TORSDOF 8
