REMARK  Name = ZINC38080299
REMARK  6 active torsions:
REMARK  status: ('A' for Active; 'I' for Inactive)
REMARK    1  A    between atoms: C_1  and  N_2
REMARK    2  A    between atoms: N_2  and  C_3
REMARK    3  A    between atoms: C_3  and  C_4
REMARK    4  A    between atoms: C_9  and  O_10
REMARK    5  A    between atoms: O_10  and  C_11
REMARK    6  A    between atoms: C_14  and  N_17
REMARK                            x       y       z     vdW  Elec       q    Type
REMARK                         _______ _______ _______ _____ _____    ______ ____
ROOT
ATOM      1  C   UNL     1       0.768  -1.927  -1.409  0.00  0.00    -0.022 A 
ATOM      2  C   UNL     1       1.999  -2.546  -1.302  0.00  0.00    +0.006 A 
ATOM      3  C   UNL     1       2.149  -3.862  -1.695  0.00  0.00    +0.016 A 
ATOM      4  C   UNL     1       1.068  -4.565  -2.197  0.00  0.00    +0.021 A 
ATOM      5  C   UNL     1      -0.166  -3.951  -2.306  0.00  0.00    +0.061 A 
ATOM      6  C   UNL     1      -0.320  -2.631  -1.906  0.00  0.00    +0.131 A 
ATOM      7 BR   UNL     1       1.278  -6.365  -2.735  0.00  0.00    -0.050 Br
ENDROOT
BRANCH   1   8
ATOM      8  C   UNL     1       0.605  -0.492  -0.980  0.00  0.00    -0.043 C 
BRANCH   8  10
ATOM      9  C   UNL     1      -0.150   0.953   0.779  0.00  0.00    -0.100 C 
ATOM     10  N   UNL     1       0.009  -0.446   0.361  0.00  0.00    +0.380 N 
ATOM     11  H   UNL     1       0.611  -0.925   1.014  0.00  0.00    -0.086 HD
ATOM     12  H   UNL     1      -0.894  -0.896   0.344  0.00  0.00    -0.086 HD
ENDBRANCH   8  10
ENDBRANCH   1   8
BRANCH   6  13
ATOM     13  O   UNL     1      -1.533  -2.027  -2.007  0.00  0.00    -0.456 OA
BRANCH  13  14
ATOM     14  C   UNL     1      -2.570  -2.755  -2.498  0.00  0.00    +0.129 A 
ATOM     15  C   UNL     1      -3.373  -3.489  -1.636  0.00  0.00    +0.048 A 
ATOM     16  C   UNL     1      -4.426  -4.228  -2.137  0.00  0.00    +0.036 A 
ATOM     17  C   UNL     1      -4.681  -4.238  -3.497  0.00  0.00    +0.126 A 
ATOM     18  C   UNL     1      -3.882  -3.508  -4.357  0.00  0.00    +0.036 A 
ATOM     19  C   UNL     1      -2.830  -2.763  -3.860  0.00  0.00    +0.048 A 
BRANCH  17  20
ATOM     20  N   UNL     1      -5.810  -5.032  -4.031  0.00  0.00    +0.056 N 
ATOM     21  O   UNL     1      -6.509  -5.671  -3.280  0.00  0.00    -0.126 OA
ATOM     22  O   UNL     1      -6.033  -5.042  -5.219  0.00  0.00    -0.126 OA
ENDBRANCH  17  20
ENDBRANCH  13  14
ENDBRANCH   6  13
TORSDOF 5
