REMARK  Name = ZINC11973890
REMARK  12 active torsions:
REMARK  status: ('A' for Active; 'I' for Inactive)
REMARK    1  A    between atoms: C_1  and  C_2
REMARK    2  A    between atoms: C_2  and  N_3
REMARK    3  A    between atoms: C_4  and  C_33
REMARK    4  A    between atoms: C_5  and  C_9
REMARK    5  A    between atoms: C_6  and  C_8
REMARK    6  A    between atoms: C_9  and  N_70
REMARK    7  A    between atoms: C_21  and  N_27
REMARK    8  A    between atoms: C_23  and  O_25
REMARK    9  A    between atoms: O_25  and  C_26
REMARK   10  A    between atoms: C_28  and  C_30
REMARK   11  A    between atoms: C_30  and  C_31
REMARK   12  A    between atoms: C_30  and  C_32
REMARK                            x       y       z     vdW  Elec       q    Type
REMARK                         _______ _______ _______ _____ _____    ______ ____
ROOT
ATOM      1  C   UNL     1       6.059  -0.085  -4.243  0.00  0.00    -0.077 C 
ATOM      2  C   UNL     1       5.793   1.399  -3.971  0.00  0.00    -0.005 C 
ATOM      3  C   UNL     1       4.448   1.548  -3.265  0.00  0.00    +0.021 C 
ATOM      4  C   UNL     1       3.338   0.914  -4.101  0.00  0.00    -0.005 C 
ATOM      5  C   UNL     1       3.683  -0.554  -4.368  0.00  0.00    -0.077 C 
ATOM      6  C   UNL     1       4.146   3.004  -3.006  0.00  0.00    -0.034 A 
ATOM      7  C   UNL     1       4.284   4.114  -3.823  0.00  0.00    +0.004 A 
ATOM      8  C   UNL     1       3.937   5.367  -3.359  0.00  0.00    +0.000 A 
ATOM      9  C   UNL     1       3.449   5.517  -2.074  0.00  0.00    +0.000 A 
ATOM     10  C   UNL     1       3.310   4.412  -1.257  0.00  0.00    +0.006 A 
ATOM     11  C   UNL     1       3.657   3.154  -1.720  0.00  0.00    -0.021 A 
ATOM     12  C   UNL     1       3.600   1.806  -1.034  0.00  0.00    +0.133 C 
ATOM     13  C   UNL     1       4.505   0.882  -1.878  0.00  0.00    +0.153 C 
ATOM     14  N   UNL     1       4.972  -0.619  -5.091  0.00  0.00    +0.383 N 
ATOM     15  H   UNL     1       4.904  -0.050  -5.943  0.00  0.00    -0.081 HD
ENDROOT
BRANCH  12  16
ATOM     16  N   UNL     1       2.226   1.299  -1.023  0.00  0.00    -0.306 N 
ATOM     17  C   UNL     1       1.401   1.607  -0.003  0.00  0.00    +0.216 C 
ATOM     18  O   UNL     1       1.797   2.305   0.907  0.00  0.00    -0.276 OA
ATOM     19  H   UNL     1       1.909   0.741  -1.751  0.00  0.00    +0.149 HD
BRANCH  17  20
ATOM     20  C   UNL     1      -0.013   1.086   0.008  0.00  0.00    +0.069 C 
ATOM     21  C   UNL     1      -0.753   1.593  -1.232  0.00  0.00    +0.017 C 
ATOM     22  C   UNL     1      -0.729   1.579   1.267  0.00  0.00    +0.017 C 
ENDBRANCH  17  20
ENDBRANCH  12  16
BRANCH  13  23
ATOM     23  O   UNL     1       5.840   0.875  -1.368  0.00  0.00    -0.377 OA
ATOM     24  C   UNL     1       6.090  -0.155  -0.409  0.00  0.00    +0.194 C 
ENDBRANCH  13  23
BRANCH  14  25
ATOM     25  C   UNL     1       5.268  -2.016  -5.470  0.00  0.00    -0.039 C 
BRANCH  25  28
ATOM     26  N   UNL     1       2.152  -3.691  -6.356  0.00  0.00    -0.268 N 
ATOM     27  C   UNL     1       3.073  -3.313  -5.444  0.00  0.00    +0.038 A 
ATOM     28  C   UNL     1       4.041  -2.628  -6.096  0.00  0.00    -0.021 A 
ATOM     29  C   UNL     1       3.705  -2.593  -7.453  0.00  0.00    +0.062 A 
ATOM     30  N   UNL     1       2.573  -3.230  -7.610  0.00  0.00    -0.176 NA
ATOM     31  C   UNL     1       4.508  -1.936  -8.546  0.00  0.00    +0.068 C 
ATOM     32  C   UNL     1       3.029  -3.599  -3.966  0.00  0.00    +0.065 C 
BRANCH  26  34
ATOM     33  C   UNL     1       1.229  -5.950  -6.197  0.00  0.00    +0.029 C 
ATOM     34  C   UNL     1       0.931  -4.453  -6.083  0.00  0.00    +0.140 C 
ENDBRANCH  26  34
ENDBRANCH  25  28
ENDBRANCH  14  25
TORSDOF 6
