REMARK  Name = ZINC53145560
REMARK  5 active torsions:
REMARK  status: ('A' for Active; 'I' for Inactive)
REMARK    1  A    between atoms: C_1  and  C_2
REMARK    2  A    between atoms: C_5  and  C_23
REMARK    3  A    between atoms: C_6  and  C_8
REMARK    4  A    between atoms: C_8  and  C_9
REMARK    5  A    between atoms: C_9  and  C_11
REMARK                            x       y       z     vdW  Elec       q    Type
REMARK                         _______ _______ _______ _____ _____    ______ ____
ROOT
ATOM      1  C   UNL     1       1.497  -3.192   2.858  0.00  0.00    +0.115 C 
ATOM      2 CL   UNL     1       2.417  -1.675   3.181  0.00  0.00    -0.116 Cl
ENDROOT
BRANCH   1   3
ATOM      3  C   UNL     1       1.506  -4.056   4.092  0.00  0.00    -0.026 A 
ATOM      4  C   UNL     1       1.052  -3.544   5.295  0.00  0.00    +0.007 A 
ATOM      5  C   UNL     1       1.057  -4.330   6.431  0.00  0.00    +0.030 A 
ATOM      6  C   UNL     1       1.517  -5.636   6.363  0.00  0.00    +0.087 A 
ATOM      7  C   UNL     1       1.974  -6.154   5.152  0.00  0.00    +0.157 A 
ATOM      8  C   UNL     1       1.961  -5.358   4.016  0.00  0.00    +0.053 A 
ATOM      9  O   UNL     1       2.357  -7.434   5.379  0.00  0.00    -0.408 OA
ATOM     10  C   UNL     1       2.159  -7.730   6.673  0.00  0.00    +0.419 A 
ATOM     11  O   UNL     1       2.404  -8.801   7.194  0.00  0.00    -0.223 OA
ATOM     12  N   UNL     1       1.646  -6.656   7.306  0.00  0.00    -0.288 N 
ATOM     13  H   UNL     1       1.410  -6.602   8.245  0.00  0.00    +0.172 HD
ENDBRANCH   1   3
BRANCH   1  14
ATOM     14  C   UNL     1       0.054  -2.845   2.489  0.00  0.00    +0.059 C 
BRANCH  14  20
ATOM     15  C   UNL     1      -0.018   1.503   0.010  0.00  0.00    +0.044 C 
ATOM     16  C   UNL     1       0.002  -0.004   0.002  0.00  0.00    -0.050 A 
ATOM     17  C   UNL     1       0.006  -0.689  -1.199  0.00  0.00    +0.003 A 
ATOM     18  C   UNL     1       0.025  -2.071  -1.207  0.00  0.00    +0.004 A 
ATOM     19  C   UNL     1       0.040  -2.768  -0.013  0.00  0.00    -0.047 A 
ATOM     20  C   UNL     1       0.037  -2.084   1.188  0.00  0.00    -0.043 A 
ATOM     21  C   UNL     1       0.023  -0.702   1.195  0.00  0.00    +0.007 A 
ATOM     22  C   UNL     1       0.059  -4.275  -0.021  0.00  0.00    +0.044 C 
ENDBRANCH  14  20
ENDBRANCH   1  14
TORSDOF 3
