REMARK  Name = ZINC22790766
REMARK  9 active torsions:
REMARK  status: ('A' for Active; 'I' for Inactive)
REMARK    1  A    between atoms: C_1  and  C_2
REMARK    2  A    between atoms: C_2  and  C_4
REMARK    3  A    between atoms: C_2  and  N_20
REMARK    4  A    between atoms: N_6  and  C_7
REMARK    5  A    between atoms: C_12  and  S_13
REMARK    6  A    between atoms: S_13  and  C_14
REMARK    7  A    between atoms: N_23  and  C_26
REMARK    8  A    between atoms: C_26  and  C_27
REMARK    9  A    between atoms: N_29  and  C_30
REMARK                            x       y       z     vdW  Elec       q    Type
REMARK                         _______ _______ _______ _____ _____    ______ ____
ROOT
ATOM      1  C   UNL     1      -0.446  10.224  -2.526  0.00  0.00    +0.034 C 
ATOM      2  C   UNL     1      -1.241  10.357  -1.226  0.00  0.00    +0.140 C 
ENDROOT
BRANCH   2   3
ATOM      3  N   UNL     1      -1.708  11.742  -1.076  0.00  0.00    -0.295 NA
ATOM      4  C   UNL     1      -2.818  12.025  -1.996  0.00  0.00    +0.066 C 
ATOM      5  C   UNL     1      -3.327  13.449  -1.755  0.00  0.00    -0.063 C 
ATOM      6  N   UNL     1      -2.225  14.400  -1.955  0.00  0.00    +0.387 N 
ATOM      7  C   UNL     1      -1.114  14.117  -1.035  0.00  0.00    -0.063 C 
ATOM      8  C   UNL     1      -0.606  12.694  -1.277  0.00  0.00    +0.066 C 
ATOM      9  H   UNL     1      -1.854  14.279  -2.983  0.00  0.00    -0.081 HD
BRANCH   6  10
ATOM     10  C   UNL     1      -2.691  15.785  -1.806  0.00  0.00    +0.019 C 
BRANCH  10  11
ATOM     11  C   UNL     1      -1.616  16.731  -2.276  0.00  0.00    +0.201 C 
ATOM     12  O   UNL     1      -0.610  16.296  -2.795  0.00  0.00    -0.278 OA
ATOM     13  N   UNL     1      -1.773  18.060  -2.120  0.00  0.00    -0.287 N 
ATOM     14  H   UNL     1      -2.649  18.452  -1.583  0.00  0.00    +0.155 HD
BRANCH  13  15
ATOM     15  C   UNL     1      -0.821  18.943  -2.642  0.00  0.00    +0.036 A 
ATOM     16  C   UNL     1       0.527  18.611  -2.609  0.00  0.00    +0.023 A 
ATOM     17  C   UNL     1       1.466  19.481  -3.128  0.00  0.00    +0.005 A 
ATOM     18  C   UNL     1       1.065  20.688  -3.673  0.00  0.00    +0.038 A 
ATOM     19  C   UNL     1      -0.277  21.025  -3.703  0.00  0.00    +0.125 A 
ATOM     20  C   UNL     1      -1.222  20.155  -3.188  0.00  0.00    +0.061 A 
ATOM     21  F   UNL     1      -0.665  22.205  -4.235  0.00  0.00    -0.205 F 
ENDBRANCH  13  15
ENDBRANCH  10  11
ENDBRANCH   6  10
ENDBRANCH   2   3
BRANCH   2  22
ATOM     22  C   UNL     1      -0.359   9.996  -0.058  0.00  0.00    +0.234 C 
ATOM     23  O   UNL     1      -0.076  10.835   0.771  0.00  0.00    -0.274 OA
ATOM     24  N   UNL     1       0.115   8.740   0.065  0.00  0.00    -0.283 N 
ATOM     25  H   UNL     1      -0.211   7.958  -0.636  0.00  0.00    +0.155 HD
BRANCH  24  26
ATOM     26  C   UNL     1       1.024   8.432   1.085  0.00  0.00    +0.047 A 
ATOM     27  C   UNL     1       1.769   9.438   1.681  0.00  0.00    +0.024 A 
ATOM     28  C   UNL     1       2.669   9.131   2.684  0.00  0.00    +0.002 A 
ATOM     29  C   UNL     1       2.827   7.822   3.101  0.00  0.00    +0.001 A 
ATOM     30  C   UNL     1       2.085   6.812   2.517  0.00  0.00    +0.017 A 
ATOM     31  C   UNL     1       1.179   7.112   1.509  0.00  0.00    +0.034 A 
BRANCH  31  32
ATOM     32  S   UNL     1       0.232   5.827   0.762  0.00  0.00    -0.088 S 
BRANCH  32  33
ATOM     33  C   UNL     1      -1.375   6.023   1.458  0.00  0.00    +0.013 A 
ATOM     34  C   UNL     1      -2.432   5.245   1.000  0.00  0.00    +0.015 A 
ATOM     35  C   UNL     1      -3.690   5.402   1.547  0.00  0.00    +0.001 A 
ATOM     36  C   UNL     1      -3.899   6.331   2.550  0.00  0.00    +0.000 A 
ATOM     37  C   UNL     1      -2.851   7.111   3.004  0.00  0.00    +0.001 A 
ATOM     38  C   UNL     1      -1.589   6.955   2.466  0.00  0.00    +0.015 A 
ENDBRANCH  32  33
ENDBRANCH  31  32
ENDBRANCH  24  26
ENDBRANCH   2  22
TORSDOF 8
