REMARK  Name = ZINC09738840
REMARK  3 active torsions:
REMARK  status: ('A' for Active; 'I' for Inactive)
REMARK    1  A    between atoms: C_4  and  S_8
REMARK    2  A    between atoms: S_8  and  N_11
REMARK    3  A    between atoms: C_14  and  C_17
REMARK                            x       y       z     vdW  Elec       q    Type
REMARK                         _______ _______ _______ _____ _____    ______ ____
ROOT
ATOM      1  N   UNL     1      -2.218  -0.460   1.440  0.00  0.00    -0.194 N 
ATOM      2  C   UNL     1      -2.664   0.840   1.616  0.00  0.00    +0.178 A 
ATOM      3  N   UNL     1      -3.171   1.410   2.694  0.00  0.00    -0.223 NA
ATOM      4  C   UNL     1      -3.549   2.687   2.685  0.00  0.00    +0.087 A 
ATOM      5  C   UNL     1      -3.418   3.414   1.534  0.00  0.00    +0.077 A 
ATOM      6  S   UNL     1      -2.713   2.186   0.442  0.00  0.00    -0.059 S 
ATOM      7  H   UNL     1      -2.205  -1.074   2.191  0.00  0.00    +0.176 HD
ENDROOT
BRANCH   4   8
ATOM      8  C   UNL     1      -4.110   3.310   3.905  0.00  0.00    +0.086 A 
ATOM      9  C   UNL     1      -4.243   2.585   5.059  0.00  0.00    +0.028 A 
ATOM     10  C   UNL     1      -4.803   3.251   6.236  0.00  0.00    +0.019 A 
ATOM     11  C   UNL     1      -4.959   2.553   7.440  0.00  0.00    +0.026 A 
ATOM     12  C   UNL     1      -5.489   3.195   8.537  0.00  0.00    +0.019 A 
ATOM     13  C   UNL     1      -5.866   4.528   8.453  0.00  0.00    +0.019 A 
ATOM     14  C   UNL     1      -5.718   5.228   7.274  0.00  0.00    +0.048 A 
ATOM     15  C   UNL     1      -5.186   4.600   6.153  0.00  0.00    +0.139 A 
ATOM     16  O   UNL     1      -5.041   5.286   4.999  0.00  0.00    -0.422 OA
ATOM     17  C   UNL     1      -4.527   4.716   3.898  0.00  0.00    +0.347 A 
ATOM     18  O   UNL     1      -4.410   5.373   2.881  0.00  0.00    -0.244 OA
ATOM     19 BR   UNL     1      -5.702   2.257  10.165  0.00  0.00    -0.050 Br
ENDBRANCH   4   8
BRANCH   1  20
ATOM     20  S   UNL     1      -1.708  -0.965  -0.052  0.00  0.00    +0.077 S 
ATOM     21  O   UNL     1      -1.336  -2.329   0.087  0.00  0.00    -0.150 OA
ATOM     22  O   UNL     1      -0.808   0.025  -0.530  0.00  0.00    -0.150 OA
BRANCH  20  26
ATOM     23  C   UNL     1      -5.306  -0.877  -2.800  0.00  0.00    +0.003 A 
ATOM     24  C   UNL     1      -4.230  -0.042  -3.040  0.00  0.00    +0.002 A 
ATOM     25  C   UNL     1      -3.132  -0.069  -2.201  0.00  0.00    +0.032 A 
ATOM     26  C   UNL     1      -3.108  -0.931  -1.121  0.00  0.00    +0.144 A 
ATOM     27  C   UNL     1      -4.184  -1.767  -0.879  0.00  0.00    +0.150 A 
ATOM     28  C   UNL     1      -5.284  -1.740  -1.720  0.00  0.00    +0.040 A 
ATOM     29  F   UNL     1      -4.159  -2.614   0.173  0.00  0.00    -0.203 F 
ENDBRANCH  20  26
ENDBRANCH   1  20
TORSDOF 3
