REMARK  Name = ZINC10023749
REMARK  9 active torsions:
REMARK  status: ('A' for Active; 'I' for Inactive)
REMARK    1  A    between atoms: C_3  and  S_6
REMARK    2  A    between atoms: S_6  and  N_9
REMARK    3  A    between atoms: N_9  and  C_10
REMARK    4  A    between atoms: C_10  and  C_11
REMARK    5  A    between atoms: C_11  and  C_12
REMARK    6  A    between atoms: N_14  and  N_15
REMARK    7  A    between atoms: C_16  and  C_18
REMARK    8  A    between atoms: C_21  and  S_24
REMARK    9  A    between atoms: S_24  and  N_27
REMARK                            x       y       z     vdW  Elec       q    Type
REMARK                         _______ _______ _______ _____ _____    ______ ____
ROOT
ATOM      1  N   UNL     1      -4.480   0.839  -6.554  0.00  0.00    -0.230 N 
ATOM      2  C   UNL     1      -5.080   1.128  -7.726  0.00  0.00    +0.260 C 
ATOM      3  O   UNL     1      -5.220   2.286  -8.068  0.00  0.00    -0.269 OA
ATOM      4  H   UNL     1      -4.369  -0.085  -6.281  0.00  0.00    +0.173 HD
ENDROOT
BRANCH   2   5
ATOM      5  C   UNL     1      -5.569   0.036  -8.595  0.00  0.00    +0.038 A 
ATOM      6  C   UNL     1      -5.405  -1.295  -8.208  0.00  0.00    +0.015 A 
ATOM      7  C   UNL     1      -5.868  -2.308  -9.021  0.00  0.00    +0.029 A 
ATOM      8  C   UNL     1      -6.484  -2.008 -10.223  0.00  0.00    +0.106 A 
ATOM      9  C   UNL     1      -6.645  -0.691 -10.615  0.00  0.00    +0.029 A 
ATOM     10  C   UNL     1      -6.191   0.332  -9.809  0.00  0.00    +0.015 A 
BRANCH   8  11
ATOM     11  S   UNL     1      -7.067  -3.309 -11.259  0.00  0.00    +0.061 S 
ATOM     12  O   UNL     1      -7.287  -4.432 -10.416  0.00  0.00    -0.153 OA
ATOM     13  O   UNL     1      -8.093  -2.754 -12.070  0.00  0.00    -0.153 OA
BRANCH  11  14
ATOM     14  N   UNL     1      -5.827  -3.717 -12.277  0.00  0.00    -0.177 NA
ATOM     15  C   UNL     1      -5.575  -3.128 -13.601  0.00  0.00    +0.109 C 
ATOM     16  C   UNL     1      -4.334  -3.832 -14.188  0.00  0.00    +0.018 C 
ATOM     17  C   UNL     1      -4.299  -5.175 -13.410  0.00  0.00    +0.018 C 
ATOM     18  C   UNL     1      -4.795  -4.736 -12.010  0.00  0.00    +0.109 C 
ENDBRANCH  11  14
ENDBRANCH   8  11
ENDBRANCH   2   5
BRANCH   1  21
ATOM     19  C   UNL     1      -3.416   1.584  -4.559  0.00  0.00    +0.230 C 
ATOM     20  O   UNL     1      -3.277   0.429  -4.218  0.00  0.00    -0.274 OA
ATOM     21  N   UNL     1      -4.017   1.873  -5.731  0.00  0.00    -0.234 N 
ATOM     22  H   UNL     1      -4.128   2.797  -6.003  0.00  0.00    +0.173 HD
BRANCH  19  23
ATOM     23  C   UNL     1      -2.918   2.697  -3.673  0.00  0.00    +0.114 C 
BRANCH  23  24
ATOM     24  C   UNL     1      -2.283   2.102  -2.415  0.00  0.00    +0.115 C 
BRANCH  24  25
ATOM     25  N   UNL     1      -1.799   3.183  -1.554  0.00  0.00    -0.189 NA
ATOM     26  H   UNL     1      -1.708   4.082  -1.908  0.00  0.00    +0.148 HD
BRANCH  25  27
ATOM     27  S   UNL     1      -1.406   2.872   0.025  0.00  0.00    +0.065 S 
ATOM     28  O   UNL     1      -2.493   2.143   0.578  0.00  0.00    -0.153 OA
ATOM     29  O   UNL     1      -0.951   4.098   0.579  0.00  0.00    -0.153 OA
BRANCH  27  32
ATOM     30  C   UNL     1       2.220   1.048  -0.013  0.00  0.00    +0.010 A 
ATOM     31  C   UNL     1       1.300   2.079   0.001  0.00  0.00    +0.036 A 
ATOM     32  C   UNL     1      -0.022   1.781   0.012  0.00  0.00    +0.142 A 
ATOM     33  S   UNL     1       0.002  -0.004   0.002  0.00  0.00    -0.077 S 
ATOM     34  C   UNL     1       1.773  -0.232  -0.016  0.00  0.00    +0.047 A 
ENDBRANCH  27  32
ENDBRANCH  25  27
ENDBRANCH  24  25
ENDBRANCH  23  24
ENDBRANCH  19  23
ENDBRANCH   1  21
TORSDOF 9
