REMARK  Name = ZINC08846385
REMARK  16 active torsions:
REMARK  status: ('A' for Active; 'I' for Inactive)
REMARK    1  A    between atoms: C_1  and  C_2
REMARK    2  A    between atoms: C_2  and  O_3
REMARK    3  A    between atoms: O_3  and  C_4
REMARK    4  A    between atoms: C_7  and  C_13
REMARK    5  A    between atoms: C_8  and  O_10
REMARK    6  A    between atoms: O_10  and  C_11
REMARK    7  A    between atoms: C_11  and  C_12
REMARK    8  A    between atoms: C_20  and  N_38
REMARK    9  A    between atoms: C_21  and  C_36
REMARK   10  A    between atoms: C_22  and  C_24
REMARK   11  A    between atoms: C_27  and  O_33
REMARK   12  A    between atoms: C_28  and  O_30
REMARK   13  A    between atoms: O_30  and  C_31
REMARK   14  A    between atoms: C_31  and  C_32
REMARK   15  A    between atoms: O_33  and  C_34
REMARK   16  A    between atoms: C_34  and  C_35
REMARK                            x       y       z     vdW  Elec       q    Type
REMARK                         _______ _______ _______ _____ _____    ______ ____
ROOT
ATOM      1  C   UNL     1       1.005  -6.385  -1.971  0.00  0.00    +0.104 A 
ATOM      2  C   UNL     1       0.628  -7.204  -0.902  0.00  0.00    +0.054 A 
ATOM      3  C   UNL     1       0.863  -8.500  -1.259  0.00  0.00    +0.223 A 
ATOM      4  N   UNL     1       1.368  -8.495  -2.511  0.00  0.00    -0.246 N 
ATOM      5  H   UNL     1       1.628  -9.277  -3.023  0.00  0.00    +0.192 HD
ATOM      6  N   UNL     1       1.445  -7.162  -2.942  0.00  0.00    -0.170 NA
ATOM      7  O   UNL     1       0.605  -9.545  -0.435  0.00  0.00    -0.423 OA
ATOM      8  C   UNL     1       0.362  -9.271   0.864  0.00  0.00    +0.200 C 
ATOM      9  C   UNL     1       0.104  -8.032   1.335  0.00  0.00    +0.098 C 
ATOM     10  C   UNL     1       0.058  -6.819   0.439  0.00  0.00    +0.102 C 
ENDROOT
BRANCH   1  14
ATOM     11  C   UNL     1       0.760  -2.136  -2.080  0.00  0.00    +0.124 A 
ATOM     12  C   UNL     1       1.321  -2.772  -0.980  0.00  0.00    +0.046 A 
ATOM     13  C   UNL     1       1.402  -4.149  -0.943  0.00  0.00    +0.017 A 
ATOM     14  C   UNL     1       0.919  -4.904  -2.009  0.00  0.00    +0.044 A 
ATOM     15  C   UNL     1       0.354  -4.263  -3.115  0.00  0.00    +0.133 A 
ATOM     16  C   UNL     1       0.272  -2.881  -3.143  0.00  0.00    +0.092 A 
BRANCH  11  17
ATOM     17  O   UNL     1       0.684  -0.780  -2.111  0.00  0.00    -0.492 OA
BRANCH  17  19
ATOM     18  C   UNL     1       1.032   1.431  -1.199  0.00  0.00    +0.048 C 
ATOM     19  C   UNL     1       1.205  -0.074  -0.983  0.00  0.00    +0.225 C 
ENDBRANCH  17  19
ENDBRANCH  11  17
BRANCH  15  20
ATOM     20  O   UNL     1      -0.119  -4.994  -4.158  0.00  0.00    -0.491 OA
BRANCH  20  21
ATOM     21  C   UNL     1      -0.683  -4.271  -5.255  0.00  0.00    +0.226 C 
ATOM     22  C   UNL     1      -1.157  -5.256  -6.325  0.00  0.00    +0.048 C 
ENDBRANCH  20  21
ENDBRANCH  15  20
ENDBRANCH   1  14
BRANCH  10  23
ATOM     23  C   UNL     1      -1.369  -6.364   0.273  0.00  0.00    -0.031 A 
ATOM     24  C   UNL     1      -2.295  -7.201  -0.321  0.00  0.00    +0.008 A 
ATOM     25  C   UNL     1      -3.605  -6.787  -0.476  0.00  0.00    +0.050 A 
ATOM     26  C   UNL     1      -3.993  -5.532  -0.035  0.00  0.00    +0.162 A 
ATOM     27  C   UNL     1      -3.060  -4.690   0.563  0.00  0.00    +0.162 A 
ATOM     28  C   UNL     1      -1.750  -5.112   0.719  0.00  0.00    +0.054 A 
BRANCH  27  29
ATOM     29  O   UNL     1      -3.435  -3.457   0.997  0.00  0.00    -0.489 OA
BRANCH  29  30
ATOM     30  C   UNL     1      -2.425  -2.646   1.601  0.00  0.00    +0.226 C 
ATOM     31  C   UNL     1      -3.030  -1.306   2.022  0.00  0.00    +0.048 C 
ENDBRANCH  29  30
ENDBRANCH  27  29
BRANCH  26  32
ATOM     32  O   UNL     1      -5.281  -5.124  -0.187  0.00  0.00    -0.489 OA
BRANCH  32  33
ATOM     33  C   UNL     1      -6.183  -6.041  -0.810  0.00  0.00    +0.226 C 
ATOM     34  C   UNL     1      -7.574  -5.410  -0.893  0.00  0.00    +0.048 C 
ENDBRANCH  32  33
ENDBRANCH  26  32
ENDBRANCH  10  23
BRANCH   8  35
ATOM     35  N   UNL     1       0.379 -10.313   1.758  0.00  0.00    -0.328 N 
ATOM     36  H   UNL     1       0.561 -11.214   1.449  0.00  0.00    +0.145 HD
ATOM     37  H   UNL     1       0.208 -10.148   2.698  0.00  0.00    +0.145 HD
ENDBRANCH   8  35
BRANCH   9  38
ATOM     38  C   UNL     1      -0.136  -7.863   2.737  0.00  0.00    +0.101 C 
ATOM     39  N   UNL     1      -0.325  -7.729   3.849  0.00  0.00    -0.191 NA
ENDBRANCH   9  38
TORSDOF 12
