REMARK  Name = ZINC22608069
REMARK  7 active torsions:
REMARK  status: ('A' for Active; 'I' for Inactive)
REMARK    1  A    between atoms: C_1  and  C_2
REMARK    2  A    between atoms: C_2  and  C_3
REMARK    3  A    between atoms: C_3  and  O_4
REMARK    4  A    between atoms: O_4  and  C_5
REMARK    5  A    between atoms: C_8  and  C_11
REMARK    6  A    between atoms: C_16  and  C_21
REMARK    7  A    between atoms: C_26  and  C_28
REMARK                            x       y       z     vdW  Elec       q    Type
REMARK                         _______ _______ _______ _____ _____    ______ ____
ROOT
ATOM      1  C   UNL     1      -2.513   0.977   0.019  0.00  0.00    +0.175 C 
ATOM      2  C   UNL     1      -3.309   1.329  -1.219  0.00  0.00    +0.041 C 
ATOM      3  C   UNL     1      -4.411   2.108  -1.166  0.00  0.00    +0.020 C 
ATOM      4  C   UNL     1      -5.189   2.437  -2.418  0.00  0.00    +0.055 C 
ATOM      5  C   UNL     1      -4.242   2.478  -3.618  0.00  0.00    -0.001 C 
ATOM      6  C   UNL     1      -3.554   1.113  -3.736  0.00  0.00    +0.083 C 
ATOM      7  C   UNL     1      -2.852   0.808  -2.442  0.00  0.00    +0.163 C 
ATOM      8  O   UNL     1      -1.867   0.095  -2.454  0.00  0.00    -0.292 OA
ATOM      9  C   UNL     1      -5.037   2.766  -4.893  0.00  0.00    +0.008 C 
ATOM     10  N   UNL     1      -4.875   2.628   0.019  0.00  0.00    -0.287 N 
ATOM     11  C   UNL     1      -4.382   2.096   1.199  0.00  0.00    +0.219 A 
ATOM     12  N   UNL     1      -3.275   1.312   1.215  0.00  0.00    -0.221 N 
ATOM     13  N   UNL     1      -3.069   0.945   2.543  0.00  0.00    -0.153 NA
ATOM     14  C   UNL     1      -4.023   1.506   3.244  0.00  0.00    +0.150 A 
ATOM     15  N   UNL     1      -4.816   2.204   2.425  0.00  0.00    -0.198 NA
ATOM     16  C   UNL     1      -4.199   1.385   4.736  0.00  0.00    +0.090 C 
ATOM     17  H   UNL     1      -5.615   3.442   0.010  0.00  0.00    +0.155 HD
ENDROOT
BRANCH   1  21
ATOM     18  C   UNL     1       1.155   3.169   0.008  0.00  0.00    +0.121 A 
ATOM     19  C   UNL     1       1.175   1.782   0.000  0.00  0.00    +0.046 A 
ATOM     20  C   UNL     1      -0.013   1.076   0.008  0.00  0.00    +0.009 A 
ATOM     21  C   UNL     1      -1.220   1.750   0.017  0.00  0.00    -0.018 A 
ATOM     22  C   UNL     1      -1.242   3.133   0.031  0.00  0.00    +0.009 A 
ATOM     23  C   UNL     1      -0.057   3.844   0.023  0.00  0.00    +0.046 A 
BRANCH  18  24
ATOM     24  O   UNL     1       2.322   3.866   0.000  0.00  0.00    -0.492 OA
BRANCH  24  25
ATOM     25  C   UNL     1       2.225   5.292   0.009  0.00  0.00    +0.229 C 
BRANCH  25  27
ATOM     26  C   UNL     1       3.527   7.425   0.007  0.00  0.00    +0.007 C 
ATOM     27  C   UNL     1       3.630   5.898  -0.002  0.00  0.00    +0.038 C 
ENDBRANCH  25  27
ENDBRANCH  24  25
ENDBRANCH  18  24
ENDBRANCH   1  21
TORSDOF 4
