REMARK  Name = ZINC09130576
REMARK  5 active torsions:
REMARK  status: ('A' for Active; 'I' for Inactive)
REMARK    1  A    between atoms: C_1  and  O_2
REMARK    2  A    between atoms: O_2  and  C_3
REMARK    3  A    between atoms: C_6  and  C_9
REMARK    4  A    between atoms: C_13  and  C_15
REMARK    5  A    between atoms: C_15  and  C_17
REMARK                            x       y       z     vdW  Elec       q    Type
REMARK                         _______ _______ _______ _____ _____    ______ ____
ROOT
ATOM      1  C   UNL     1       6.801   3.344  -1.385  0.00  0.00    +0.103 C 
ATOM      2  N   UNL     1       7.824   4.135  -1.375  0.00  0.00    -0.087 NA
ATOM      3  O   UNL     1       7.912   4.907  -0.190  0.00  0.00    -0.371 OA
ATOM      4  C   UNL     1       7.058   4.297   0.779  0.00  0.00    +0.255 C 
ATOM      5  C   UNL     1       6.044   3.529  -0.081  0.00  0.00    +0.173 C 
ATOM      6  C   UNL     1       6.388   5.303   1.667  0.00  0.00    +0.030 A 
ATOM      7  C   UNL     1       5.568   6.383   1.432  0.00  0.00    +0.010 A 
ATOM      8  C   UNL     1       5.098   7.141   2.490  0.00  0.00    +0.001 A 
ATOM      9  C   UNL     1       5.455   6.811   3.785  0.00  0.00    +0.002 A 
ATOM     10  C   UNL     1       6.276   5.729   4.026  0.00  0.00    +0.024 A 
ATOM     11  C   UNL     1       6.753   4.960   2.967  0.00  0.00    +0.041 A 
ATOM     12  N   UNL     1       7.581   3.835   2.956  0.00  0.00    -0.281 N 
ATOM     13  C   UNL     1       7.807   3.384   1.706  0.00  0.00    +0.270 C 
ATOM     14  O   UNL     1       8.483   2.426   1.392  0.00  0.00    -0.271 OA
ATOM     15  H   UNL     1       7.949   3.426   3.754  0.00  0.00    +0.155 HD
ENDROOT
BRANCH   1  19
ATOM     16  C   UNL     1       5.742   0.686  -4.523  0.00  0.00    +0.120 A 
ATOM     17  C   UNL     1       6.802   1.568  -4.691  0.00  0.00    +0.046 A 
ATOM     18  C   UNL     1       7.149   2.432  -3.675  0.00  0.00    +0.013 A 
ATOM     19  C   UNL     1       6.433   2.421  -2.476  0.00  0.00    +0.000 A 
ATOM     20  C   UNL     1       5.371   1.529  -2.309  0.00  0.00    +0.013 A 
ATOM     21  C   UNL     1       5.027   0.671  -3.332  0.00  0.00    +0.046 A 
BRANCH  16  23
ATOM     22  C   UNL     1       4.304  -1.045  -5.287  0.00  0.00    +0.277 C 
ATOM     23  O   UNL     1       5.404  -0.165  -5.526  0.00  0.00    -0.495 OA
ENDBRANCH  16  23
ENDBRANCH   1  19
BRANCH   5  24
ATOM     24  C   UNL     1       4.796   4.346  -0.297  0.00  0.00    +0.177 C 
ATOM     25  O   UNL     1       4.724   5.105  -1.241  0.00  0.00    -0.291 OA
BRANCH  24  26
ATOM     26  C   UNL     1       3.666   4.224   0.636  0.00  0.00    +0.019 A 
ATOM     27  C   UNL     1       3.711   3.265   1.668  0.00  0.00    +0.012 A 
ATOM     28  C   UNL     1       2.681   3.134   2.540  0.00  0.00    +0.009 A 
ATOM     29  C   UNL     1       1.548   3.961   2.422  0.00  0.00    -0.018 A 
ATOM     30  C   UNL     1       0.469   3.841   3.314  0.00  0.00    +0.008 A 
ATOM     31  C   UNL     1      -0.617   4.651   3.173  0.00  0.00    +0.001 A 
ATOM     32  C   UNL     1      -0.673   5.607   2.161  0.00  0.00    +0.001 A 
ATOM     33  C   UNL     1       0.352   5.752   1.278  0.00  0.00    +0.008 A 
ATOM     34  C   UNL     1       1.489   4.930   1.389  0.00  0.00    -0.017 A 
ATOM     35  C   UNL     1       2.562   5.053   0.495  0.00  0.00    +0.020 A 
ENDBRANCH  24  26
ENDBRANCH   5  24
TORSDOF 4
