REMARK  Name = ZINC27061341
REMARK  7 active torsions:
REMARK  status: ('A' for Active; 'I' for Inactive)
REMARK    1  A    between atoms: C_1  and  O_2
REMARK    2  A    between atoms: O_2  and  C_3
REMARK    3  A    between atoms: C_6  and  C_9
REMARK    4  A    between atoms: C_9  and  C_11
REMARK    5  A    between atoms: C_9  and  N_25
REMARK    6  A    between atoms: C_11  and  N_12
REMARK    7  A    between atoms: N_12  and  C_13
REMARK                            x       y       z     vdW  Elec       q    Type
REMARK                         _______ _______ _______ _____ _____    ______ ____
ROOT
ATOM      1  C   UNL     1      -2.717   1.096   1.474  0.00  0.00    +0.090 C 
ENDROOT
BRANCH   1   2
ATOM      2  N   UNL     1      -4.140   0.805   1.665  0.00  0.00    -0.350 N 
ATOM      3  H   UNL     1      -4.521  -0.214   1.499  0.00  0.00    +0.145 HD
BRANCH   2   4
ATOM      4  C   UNL     1      -4.950   1.747   2.028  0.00  0.00    +0.080 C 
ATOM      5  C   UNL     1      -6.394   1.475   2.140  0.00  0.00    +0.051 C 
ATOM      6  C   UNL     1      -7.281   2.505   2.426  0.00  0.00    +0.024 C 
ATOM      7  C   UNL     1      -8.649   2.193   2.522  0.00  0.00    -0.003 A 
ATOM      8  C   UNL     1      -9.602   3.185   2.808  0.00  0.00    +0.010 A 
ATOM      9  C   UNL     1     -10.919   2.849   2.893  0.00  0.00    +0.001 A 
ATOM     10  C   UNL     1     -11.334   1.532   2.701  0.00  0.00    +0.002 A 
ATOM     11  C   UNL     1     -10.437   0.546   2.423  0.00  0.00    +0.024 A 
ATOM     12  C   UNL     1      -9.069   0.853   2.326  0.00  0.00    +0.041 A 
ATOM     13  N   UNL     1      -8.172  -0.102   2.053  0.00  0.00    -0.281 N 
ATOM     14  C   UNL     1      -6.889   0.165   1.952  0.00  0.00    +0.249 C 
ATOM     15  O   UNL     1      -6.024  -0.837   1.668  0.00  0.00    -0.270 OA
ATOM     16  H   UNL     1      -8.502  -1.141   1.907  0.00  0.00    +0.155 HD
ENDBRANCH   2   4
ENDBRANCH   1   2
BRANCH   1  17
ATOM     17  C   UNL     1      -2.322   0.782   0.029  0.00  0.00    -0.020 C 
BRANCH  17  21
ATOM     18  C   UNL     1       1.809   1.705  -0.557  0.00  0.00    +0.120 A 
ATOM     19  C   UNL     1       1.414   0.392  -0.342  0.00  0.00    +0.046 A 
ATOM     20  C   UNL     1       0.079   0.097  -0.149  0.00  0.00    +0.005 A 
ATOM     21  C   UNL     1      -0.865   1.108  -0.175  0.00  0.00    -0.059 A 
ATOM     22  C   UNL     1      -0.473   2.417  -0.383  0.00  0.00    +0.005 A 
ATOM     23  C   UNL     1       0.861   2.718  -0.577  0.00  0.00    +0.046 A 
BRANCH  18  25
ATOM     24  C   UNL     1       3.456   3.371  -0.963  0.00  0.00    +0.277 C 
ATOM     25  O   UNL     1       3.122   1.998  -0.748  0.00  0.00    -0.495 OA
ENDBRANCH  18  25
ENDBRANCH  17  21
BRANCH  17  26
ATOM     26  N   UNL     1      -3.138   1.589  -0.888  0.00  0.00    +0.385 N 
ATOM     27  C   UNL     1      -2.629   1.489  -2.280  0.00  0.00    -0.078 C 
ATOM     28  C   UNL     1      -3.847   1.924  -3.134  0.00  0.00    -0.020 C 
ATOM     29  C   UNL     1      -5.042   1.312  -2.368  0.00  0.00    -0.020 C 
ATOM     30  C   UNL     1      -4.531   1.096  -0.931  0.00  0.00    -0.078 C 
ATOM     31  H   UNL     1      -3.086   2.619  -0.507  0.00  0.00    -0.081 HD
ENDBRANCH  17  26
ENDBRANCH   1  17
TORSDOF 6
