REMARK  Name = ZINC20568995
REMARK  11 active torsions:
REMARK  status: ('A' for Active; 'I' for Inactive)
REMARK    1  A    between atoms: C_1  and  C_2
REMARK    2  A    between atoms: C_3  and  C_25
REMARK    3  A    between atoms: C_12  and  N_20
REMARK    4  A    between atoms: C_13  and  C_14
REMARK    5  A    between atoms: C_14  and  O_16
REMARK    6  A    between atoms: O_16  and  C_17
REMARK    7  A    between atoms: C_17  and  C_18
REMARK    8  A    between atoms: C_17  and  C_19
REMARK    9  A    between atoms: C_25  and  O_27
REMARK   10  A    between atoms: O_27  and  C_28
REMARK   11  A    between atoms: C_28  and  C_29
REMARK                            x       y       z     vdW  Elec       q    Type
REMARK                         _______ _______ _______ _____ _____    ______ ____
ROOT
ATOM      1  C   UNL     1      -0.115   0.785   0.255  0.00  0.00    +0.087 C 
ATOM      2  C   UNL     1      -0.797   1.384   1.458  0.00  0.00    +0.117 C 
ATOM      3  C   UNL     1      -0.942   2.706   1.651  0.00  0.00    +0.100 C 
ATOM      4  C   UNL     1      -1.676   2.849   2.967  0.00  0.00    +0.164 C 
ATOM      5  C   UNL     1      -3.005   3.513   2.753  0.00  0.00    +0.001 A 
ATOM      6  C   UNL     1      -4.034   2.810   2.152  0.00  0.00    +0.022 A 
ATOM      7  C   UNL     1      -5.262   3.411   1.948  0.00  0.00    +0.018 A 
ATOM      8  C   UNL     1      -5.469   4.721   2.343  0.00  0.00    +0.017 A 
ATOM      9  C   UNL     1      -4.447   5.429   2.945  0.00  0.00    +0.024 A 
ATOM     10  C   UNL     1      -3.213   4.826   3.153  0.00  0.00    +0.037 A 
ATOM     11  N   UNL     1      -2.184   5.547   3.766  0.00  0.00    -0.302 N 
ATOM     12  C   UNL     1      -1.109   4.891   4.304  0.00  0.00    +0.097 C 
ATOM     13  C   UNL     1      -0.831   3.594   3.952  0.00  0.00    +0.098 C 
ATOM     14 BR   UNL     1      -6.662   2.442   1.125  0.00  0.00    -0.050 Br
ATOM     15  C   UNL     1      -1.873   1.417   3.414  0.00  0.00    +0.332 C 
ATOM     16  O   UNL     1      -2.414   1.036   4.425  0.00  0.00    -0.249 OA
ATOM     17  O   UNL     1      -1.319   0.657   2.454  0.00  0.00    -0.429 OA
ATOM     18  H   UNL     1      -2.236   6.644   3.817  0.00  0.00    +0.153 HD
ENDROOT
BRANCH  12  19
ATOM     19  N   UNL     1      -0.302   5.537   5.205  0.00  0.00    -0.346 N 
ATOM     20  H   UNL     1       0.563   5.016   5.641  0.00  0.00    +0.143 HD
ATOM     21  H   UNL     1      -0.520   6.577   5.492  0.00  0.00    +0.143 HD
ENDBRANCH  12  19
BRANCH  13  22
ATOM     22  C   UNL     1       0.272   2.951   4.529  0.00  0.00    +0.340 C 
ATOM     23  O   UNL     1       1.310   2.842   3.900  0.00  0.00    -0.245 OA
BRANCH  22  24
ATOM     24  O   UNL     1       0.184   2.453   5.781  0.00  0.00    -0.459 OA
BRANCH  24  25
ATOM     25  C   UNL     1       1.348   1.810   6.306  0.00  0.00    +0.171 C 
ATOM     26  C   UNL     1       2.219   2.842   7.027  0.00  0.00    +0.052 C 
ATOM     27  C   UNL     1       0.926   0.720   7.293  0.00  0.00    +0.052 C 
ENDBRANCH  24  25
ENDBRANCH  22  24
ENDBRANCH  13  22
BRANCH   3  28
ATOM     28  C   UNL     1      -0.501   3.749   0.798  0.00  0.00    +0.340 C 
ATOM     29  O   UNL     1       0.079   3.484  -0.238  0.00  0.00    -0.245 OA
BRANCH  28  30
ATOM     30  O   UNL     1      -0.724   5.036   1.136  0.00  0.00    -0.457 OA
BRANCH  30  31
ATOM     31  C   UNL     1      -0.253   6.035   0.230  0.00  0.00    +0.259 C 
BRANCH  31  32
ATOM     32  C   UNL     1      -0.590   7.402   0.769  0.00  0.00    +0.006 C 
ATOM     33  C   UNL     1       0.310   8.354   0.751  0.00  0.00    +0.007 C 
ENDBRANCH  31  32
ENDBRANCH  30  31
ENDBRANCH  28  30
ENDBRANCH   3  28
TORSDOF 8
