REMARK  Name = ZINC12820898
REMARK  5 active torsions:
REMARK  status: ('A' for Active; 'I' for Inactive)
REMARK    1  A    between atoms: C_1  and  C_2
REMARK    2  A    between atoms: C_7  and  O_8
REMARK    3  A    between atoms: O_8  and  C_9
REMARK    4  A    between atoms: C_9  and  C_10
REMARK    5  A    between atoms: N_12  and  C_13
REMARK                            x       y       z     vdW  Elec       q    Type
REMARK                         _______ _______ _______ _____ _____    ______ ____
ROOT
ATOM      1  C   UNL     1       3.713  -0.859  -0.040  0.00  0.00    +0.255 C 
ATOM      2  O   UNL     1       4.664  -0.106  -0.053  0.00  0.00    -0.272 OA
ATOM      3  N   UNL     1       3.909  -2.193  -0.047  0.00  0.00    -0.283 N 
ATOM      4  H   UNL     1       3.153  -2.795   0.032  0.00  0.00    +0.155 HD
ENDROOT
BRANCH   3   5
ATOM      5  C   UNL     1       5.206  -2.709  -0.168  0.00  0.00    +0.035 A 
ATOM      6  C   UNL     1       5.420  -3.889  -0.868  0.00  0.00    +0.027 A 
ATOM      7  C   UNL     1       6.699  -4.399  -0.995  0.00  0.00    +0.049 A 
ATOM      8  C   UNL     1       7.768  -3.739  -0.414  0.00  0.00    +0.142 A 
ATOM      9  C   UNL     1       7.555  -2.558   0.295  0.00  0.00    +0.077 A 
ATOM     10  C   UNL     1       6.275  -2.044   0.417  0.00  0.00    +0.050 A 
ATOM     11  N   UNL     1       8.648  -1.903   0.880  0.00  0.00    -0.280 N 
ATOM     12  C   UNL     1       9.897  -2.237   0.489  0.00  0.00    +0.255 C 
ATOM     13  O   UNL     1      10.858  -1.705   1.003  0.00  0.00    -0.272 OA
ATOM     14  C   UNL     1      10.091  -3.274  -0.588  0.00  0.00    +0.325 C 
ATOM     15  O   UNL     1       9.031  -4.232  -0.529  0.00  0.00    -0.481 OA
ATOM     16  H   UNL     1       8.509  -1.220   1.554  0.00  0.00    +0.155 HD
ENDBRANCH   3   5
BRANCH   1  17
ATOM     17  C   UNL     1       2.312  -0.304  -0.015  0.00  0.00    +0.324 C 
BRANCH  17  18
ATOM     18  O   UNL     1       2.366   1.124  -0.011  0.00  0.00    -0.483 OA
BRANCH  18  25
ATOM     19  C   UNL     1       2.450   3.947  -0.005  0.00  0.00    +0.047 C 
ATOM     20  C   UNL     1       1.157   3.173   0.014  0.00  0.00    -0.007 A 
ATOM     21  C   UNL     1      -0.050   3.844   0.036  0.00  0.00    +0.027 A 
ATOM     22  C   UNL     1      -1.237   3.134   0.053  0.00  0.00    +0.041 A 
ATOM     23  C   UNL     1      -1.218   1.750   0.044  0.00  0.00    +0.023 A 
ATOM     24  C   UNL     1      -0.013   1.075   0.028  0.00  0.00    +0.047 A 
ATOM     25  C   UNL     1       1.179   1.786   0.010  0.00  0.00    +0.124 A 
ATOM     26 CL   UNL     1      -2.753   3.979   0.081  0.00  0.00    -0.084 Cl
ENDBRANCH  18  25
ENDBRANCH  17  18
ENDBRANCH   1  17
TORSDOF 4
