REMARK  Name = ZINC03348595
REMARK  3 active torsions:
REMARK  status: ('A' for Active; 'I' for Inactive)
REMARK    1  A    between atoms: C_3  and  N_19
REMARK    2  A    between atoms: C_6  and  C_7
REMARK    3  A    between atoms: N_9  and  C_10
REMARK                            x       y       z     vdW  Elec       q    Type
REMARK                         _______ _______ _______ _____ _____    ______ ____
ROOT
ATOM      1  C   UNL     1       3.521   2.009  -0.419  0.00  0.00    +0.248 C 
ATOM      2  O   UNL     1       3.486   3.195  -0.686  0.00  0.00    -0.270 OA
ATOM      3  N   UNL     1       2.402   1.377  -0.013  0.00  0.00    -0.278 N 
ATOM      4  H   UNL     1       2.444   0.450   0.269  0.00  0.00    +0.155 HD
ENDROOT
BRANCH   3   5
ATOM      5  C   UNL     1       1.178   2.060   0.004  0.00  0.00    +0.084 A 
ATOM      6  C   UNL     1       0.825   2.829   1.107  0.00  0.00    +0.148 A 
ATOM      7  C   UNL     1      -0.386   3.498   1.122  0.00  0.00    +0.078 A 
ATOM      8  C   UNL     1      -1.240   3.409   0.036  0.00  0.00    +0.127 A 
ATOM      9  C   UNL     1      -0.889   2.645  -1.063  0.00  0.00    +0.055 A 
ATOM     10  C   UNL     1       0.317   1.970  -1.081  0.00  0.00    +0.045 A 
ATOM     11 BR   UNL     1       0.794   0.925  -2.583  0.00  0.00    -0.048 Br
ATOM     12  F   UNL     1      -2.420   4.067   0.051  0.00  0.00    -0.205 F 
ATOM     13  F   UNL     1       1.660   2.918   2.165  0.00  0.00    -0.203 F 
ENDBRANCH   3   5
BRANCH   1  19
ATOM     14  C   UNL     1       4.834  -0.099  -0.228  0.00  0.00    +0.015 A 
ATOM     15  C   UNL     1       6.021  -0.792  -0.347  0.00  0.00    +0.033 A 
ATOM     16  C   UNL     1       7.168  -0.140  -0.765  0.00  0.00    +0.126 A 
ATOM     17  C   UNL     1       7.132   1.209  -1.071  0.00  0.00    +0.033 A 
ATOM     18  C   UNL     1       5.950   1.913  -0.961  0.00  0.00    +0.015 A 
ATOM     19  C   UNL     1       4.790   1.261  -0.540  0.00  0.00    +0.037 A 
BRANCH  16  20
ATOM     20  N   UNL     1       8.439  -0.889  -0.885  0.00  0.00    +0.056 N 
ATOM     21  O   UNL     1       9.450  -0.318  -1.253  0.00  0.00    -0.126 OA
ATOM     22  O   UNL     1       8.473  -2.077  -0.617  0.00  0.00    -0.126 OA
ENDBRANCH  16  20
ENDBRANCH   1  19
TORSDOF 3
