REMARK  Name = ZINC39453228
REMARK  7 active torsions:
REMARK  status: ('A' for Active; 'I' for Inactive)
REMARK    1  A    between atoms: C_1  and  C_2
REMARK    2  A    between atoms: C_2  and  O_3
REMARK    3  A    between atoms: O_3  and  N_4
REMARK    4  A    between atoms: C_13  and  C_19
REMARK    5  A    between atoms: C_19  and  C_20
REMARK    6  A    between atoms: C_27  and  S_32
REMARK    7  A    between atoms: S_32  and  C_33
REMARK                            x       y       z     vdW  Elec       q    Type
REMARK                         _______ _______ _______ _____ _____    ______ ____
ROOT
ATOM      1  N   UNL     1       0.769  -1.889   1.248  0.00  0.00    -0.138 N 
ATOM      2  C   UNL     1      -0.246  -2.576   1.904  0.00  0.00    +0.149 A 
ATOM      3  C   UNL     1      -0.219  -3.952   2.011  0.00  0.00    +0.085 A 
ATOM      4  C   UNL     1       0.902  -4.712   1.431  0.00  0.00    +0.100 A 
ATOM      5  C   UNL     1       1.926  -3.984   0.768  0.00  0.00    +0.070 A 
ATOM      6  C   UNL     1       1.818  -2.518   0.691  0.00  0.00    +0.293 A 
ATOM      7  O   UNL     1       2.682  -1.875   0.124  0.00  0.00    -0.264 OA
ATOM      8  C   UNL     1       3.003  -4.650   0.202  0.00  0.00    +0.025 A 
ATOM      9  C   UNL     1       3.037  -6.049   0.309  0.00  0.00    +0.005 A 
ATOM     10  C   UNL     1       4.085  -6.810  -0.235  0.00  0.00    -0.034 A 
ATOM     11  C   UNL     1       4.068  -8.164  -0.100  0.00  0.00    +0.004 A 
ATOM     12  C   UNL     1       3.034  -8.817   0.566  0.00  0.00    +0.002 A 
ATOM     13  C   UNL     1       1.992  -8.136   1.114  0.00  0.00    +0.028 A 
ATOM     14  C   UNL     1       1.947  -6.733   1.010  0.00  0.00    +0.072 A 
ATOM     15  N   UNL     1       0.943  -6.028   1.530  0.00  0.00    -0.245 NA
ATOM     16  N   UNL     1      -1.246  -4.614   2.656  0.00  0.00    -0.328 N 
ATOM     17  C   UNL     1      -2.572  -3.979   2.690  0.00  0.00    +0.136 C 
ATOM     18  C   UNL     1      -2.408  -2.555   3.233  0.00  0.00    +0.114 C 
ATOM     19  C   UNL     1      -1.322  -1.849   2.464  0.00  0.00    +0.187 C 
ATOM     20  O   UNL     1      -1.371  -0.643   2.324  0.00  0.00    -0.290 OA
ATOM     21  H   UNL     1      -1.097  -5.476   3.075  0.00  0.00    +0.147 HD
ENDROOT
BRANCH  17  22
ATOM     22  S   UNL     1      -3.266  -3.919   1.015  0.00  0.00    -0.142 S 
ATOM     23  C   UNL     1      -2.231  -5.072   0.070  0.00  0.00    +0.086 C 
ENDBRANCH  17  22
BRANCH   1  24
ATOM     24  O   UNL     1       0.693  -0.477   1.160  0.00  0.00    -0.408 OA
BRANCH  24  26
ATOM     25  C   UNL     1      -0.019   1.526   0.010  0.00  0.00    +0.051 C 
ATOM     26  C   UNL     1       0.002  -0.004   0.002  0.00  0.00    +0.257 C 
ENDBRANCH  24  26
ENDBRANCH   1  24
BRANCH  10  27
ATOM     27  C   UNL     1       5.218  -6.133  -0.962  0.00  0.00    +0.071 C 
BRANCH  27  28
ATOM     28  C   UNL     1       6.257  -5.684   0.033  0.00  0.00    -0.043 A 
ATOM     29  C   UNL     1       6.171  -4.428   0.603  0.00  0.00    +0.004 A 
ATOM     30  C   UNL     1       7.124  -4.016   1.516  0.00  0.00    +0.000 A 
ATOM     31  C   UNL     1       8.163  -4.861   1.859  0.00  0.00    +0.000 A 
ATOM     32  C   UNL     1       8.248  -6.118   1.289  0.00  0.00    +0.000 A 
ATOM     33  C   UNL     1       7.293  -6.531   0.380  0.00  0.00    +0.004 A 
ENDBRANCH  27  28
ENDBRANCH  10  27
TORSDOF 5
