REMARK  Name = ZINC20861025
REMARK  11 active torsions:
REMARK  status: ('A' for Active; 'I' for Inactive)
REMARK    1  A    between atoms: C_1  and  C_2
REMARK    2  A    between atoms: C_2  and  C_3
REMARK    3  A    between atoms: C_2  and  C_4
REMARK    4  A    between atoms: C_7  and  N_10
REMARK    5  A    between atoms: C_11  and  C_13
REMARK    6  A    between atoms: C_13  and  S_14
REMARK    7  A    between atoms: S_14  and  C_15
REMARK    8  A    between atoms: C_20  and  S_23
REMARK    9  A    between atoms: S_23  and  C_26
REMARK   10  A    between atoms: C_29  and  O_33
REMARK   11  A    between atoms: O_33  and  C_34
REMARK                            x       y       z     vdW  Elec       q    Type
REMARK                         _______ _______ _______ _____ _____    ______ ____
ROOT
ATOM      1  C   UNL     1       3.844   0.327  -4.295  0.00  0.00    +0.169 A 
ATOM      2  N   UNL     1       2.727  -0.296  -3.828  0.00  0.00    -0.300 N 
ATOM      3  H   UNL     1       2.131  -0.933  -4.499  0.00  0.00    +0.171 HD
ATOM      4  C   UNL     1       2.355  -0.130  -2.541  0.00  0.00    +0.277 A 
ATOM      5  O   UNL     1       1.360  -0.684  -2.104  0.00  0.00    -0.266 OA
ATOM      6  C   UNL     1       3.134   0.699  -1.715  0.00  0.00    +0.176 A 
ATOM      7  C   UNL     1       4.244   1.298  -2.238  0.00  0.00    +0.146 A 
ATOM      8  N   UNL     1       4.572   1.099  -3.512  0.00  0.00    -0.230 NA
ENDROOT
BRANCH   6   9
ATOM      9  S   UNL     1       2.689   0.955  -0.029  0.00  0.00    +0.032 S 
ATOM     10  O   UNL     1       3.654   1.845   0.515  0.00  0.00    -0.164 OA
ATOM     11  O   UNL     1       2.441  -0.330   0.525  0.00  0.00    -0.164 OA
BRANCH   9  12
ATOM     12  C   UNL     1       1.150   1.813  -0.021  0.00  0.00    +0.095 A 
ATOM     13  C   UNL     1       1.131   3.196  -0.021  0.00  0.00    +0.031 A 
ATOM     14  C   UNL     1      -0.073   3.871  -0.015  0.00  0.00    +0.049 A 
ATOM     15  C   UNL     1      -1.266   3.162  -0.007  0.00  0.00    +0.138 A 
ATOM     16  C   UNL     1      -1.244   1.774  -0.011  0.00  0.00    +0.084 A 
ATOM     17  C   UNL     1      -0.036   1.103  -0.013  0.00  0.00    +0.051 A 
ATOM     18 CL   UNL     1      -2.734   0.882  -0.008  0.00  0.00    -0.080 Cl
BRANCH  15  19
ATOM     19  O   UNL     1      -2.452   3.825  -0.001  0.00  0.00    -0.494 OA
ATOM     20  C   UNL     1      -2.398   5.253  -0.003  0.00  0.00    +0.277 C 
ENDBRANCH  15  19
ENDBRANCH   9  12
ENDBRANCH   6   9
BRANCH   1  21
ATOM     21  S   UNL     1       4.326   0.098  -5.975  0.00  0.00    -0.078 S 
BRANCH  21  22
ATOM     22  C   UNL     1       5.816   1.124  -6.017  0.00  0.00    +0.173 C 
BRANCH  22  24
ATOM     23  N   UNL     1       7.542   1.773  -7.666  0.00  0.00    -0.285 N 
ATOM     24  C   UNL     1       6.418   1.079  -7.398  0.00  0.00    +0.227 C 
ATOM     25  O   UNL     1       5.891   0.418  -8.268  0.00  0.00    -0.275 OA
ATOM     26  H   UNL     1       7.977   2.432  -6.901  0.00  0.00    +0.155 HD
BRANCH  23  30
ATOM     27  C   UNL     1       9.366   1.422 -11.396  0.00  0.00    -0.045 A 
ATOM     28  C   UNL     1       7.987   1.374 -11.294  0.00  0.00    +0.006 A 
ATOM     29  C   UNL     1       7.380   1.490 -10.060  0.00  0.00    +0.023 A 
ATOM     30  C   UNL     1       8.154   1.655  -8.919  0.00  0.00    +0.033 A 
ATOM     31  C   UNL     1       9.538   1.709  -9.024  0.00  0.00    +0.023 A 
ATOM     32  C   UNL     1      10.140   1.586 -10.261  0.00  0.00    +0.006 A 
BRANCH  27  34
ATOM     33  C   UNL     1      10.842   2.557 -13.033  0.00  0.00    +0.012 C 
ATOM     34  C   UNL     1      10.025   1.296 -12.744  0.00  0.00    +0.013 C 
ATOM     35  C   UNL     1      10.950   0.077 -12.747  0.00  0.00    +0.012 C 
ENDBRANCH  27  34
ENDBRANCH  23  30
ENDBRANCH  22  24
ENDBRANCH  21  22
ENDBRANCH   1  21
TORSDOF 8
