REMARK  Name = ZINC14705136
REMARK  9 active torsions:
REMARK  status: ('A' for Active; 'I' for Inactive)
REMARK    1  A    between atoms: C_1  and  N_54
REMARK    2  A    between atoms: C_2  and  C_3
REMARK    3  A    between atoms: C_2  and  N_54
REMARK    4  A    between atoms: N_5  and  C_6
REMARK    5  A    between atoms: C_6  and  C_7
REMARK    6  A    between atoms: C_7  and  C_8
REMARK    7  A    between atoms: C_11  and  S_14
REMARK    8  A    between atoms: S_14  and  N_17
REMARK    9  A    between atoms: C_18  and  N_54
REMARK                            x       y       z     vdW  Elec       q    Type
REMARK                         _______ _______ _______ _____ _____    ______ ____
ROOT
ATOM      1  C   UNL     1       0.002  -0.004   0.002  0.00  0.00    +0.196 C 
ATOM      2  O   UNL     1       1.060  -0.596  -0.011  0.00  0.00    -0.278 OA
ATOM      3  N   UNL     1      -1.156  -0.694   0.009  0.00  0.00    -0.317 N 
ATOM      4  H   UNL     1      -2.002  -0.220   0.020  0.00  0.00    +0.149 HD
ENDROOT
BRANCH   1   5
ATOM      5  C   UNL     1      -0.018   1.503   0.010  0.00  0.00    +0.019 C 
BRANCH   5   7
ATOM      6  C   UNL     1       2.034   1.678  -1.262  0.00  0.00    -0.095 C 
ATOM      7  N   UNL     1       1.374   1.998   0.021  0.00  0.00    +0.385 N 
ATOM      8  H   UNL     1       1.886   1.539   0.784  0.00  0.00    -0.081 HD
BRANCH   7   9
ATOM      9  C   UNL     1       1.389   3.459   0.245  0.00  0.00    -0.068 C 
ATOM     10  C   UNL     1       0.628   4.174  -0.890  0.00  0.00    -0.015 C 
ATOM     11  C   UNL     1       0.216   5.538  -0.406  0.00  0.00    -0.002 C 
ATOM     12  C   UNL     1       1.233   6.630  -0.786  0.00  0.00    -0.000 C 
ATOM     13  C   UNL     1       2.694   6.178  -0.601  0.00  0.00    -0.000 C 
ATOM     14  C   UNL     1       2.898   5.396   0.668  0.00  0.00    -0.002 C 
ATOM     15  C   UNL     1       2.774   3.893   0.344  0.00  0.00    -0.015 C 
ENDBRANCH   7   9
ENDBRANCH   5   7
ENDBRANCH   1   5
BRANCH   3  16
ATOM     16  C   UNL     1      -1.136  -2.159   0.001  0.00  0.00    +0.109 C 
BRANCH  16  17
ATOM     17  C   UNL     1      -2.571  -2.688   0.012  0.00  0.00    +0.054 C 
BRANCH  17  18
ATOM     18  C   UNL     1      -2.551  -4.195   0.004  0.00  0.00    -0.046 A 
ATOM     19  C   UNL     1      -2.559  -4.880  -1.197  0.00  0.00    +0.005 A 
ATOM     20  C   UNL     1      -2.535  -6.262  -1.205  0.00  0.00    +0.029 A 
ATOM     21  C   UNL     1      -2.514  -6.959  -0.011  0.00  0.00    +0.105 A 
ATOM     22  C   UNL     1      -2.511  -6.275   1.190  0.00  0.00    +0.029 A 
ATOM     23  C   UNL     1      -2.530  -4.893   1.197  0.00  0.00    +0.005 A 
BRANCH  21  24
ATOM     24  S   UNL     1      -2.489  -8.721  -0.021  0.00  0.00    +0.056 S 
ATOM     25  O   UNL     1      -1.945  -9.113  -1.274  0.00  0.00    -0.153 OA
ATOM     26  O   UNL     1      -1.919  -9.126   1.216  0.00  0.00    -0.153 OA
BRANCH  24  27
ATOM     27  N   UNL     1      -4.063  -9.233  -0.007  0.00  0.00    -0.204 NA
ATOM     28  H   UNL     1      -4.784  -8.585   0.003  0.00  0.00    +0.144 HD
ATOM     29  H   UNL     1      -4.265 -10.182  -0.011  0.00  0.00    +0.144 HD
ENDBRANCH  24  27
ENDBRANCH  21  24
ENDBRANCH  17  18
ENDBRANCH  16  17
ENDBRANCH   3  16
TORSDOF 8
