REMARK  Name = ZINC13477199
REMARK  3 active torsions:
REMARK  status: ('A' for Active; 'I' for Inactive)
REMARK    1  A    between atoms: C_6  and  N_7
REMARK    2  A    between atoms: C_11  and  C_12
REMARK    3  A    between atoms: C_16  and  N_18
REMARK                            x       y       z     vdW  Elec       q    Type
REMARK                         _______ _______ _______ _____ _____    ______ ____
ROOT
ATOM      1  N   UNL     1       5.831   2.845   0.261  0.00  0.00    -0.184 N 
ATOM      2  C   UNL     1       4.958   3.868   0.194  0.00  0.00    +0.272 C 
ATOM      3  O   UNL     1       5.227   5.054   0.217  0.00  0.00    -0.268 OA
ATOM      4  C   UNL     1       3.610   3.274   0.090  0.00  0.00    +0.102 C 
ATOM      5  C   UNL     1       2.407   3.937   0.001  0.00  0.00    +0.026 C 
ATOM      6  C   UNL     1       3.834   1.814   0.097  0.00  0.00    +0.266 C 
ATOM      7  O   UNL     1       2.981   0.949   0.023  0.00  0.00    -0.268 OA
ATOM      8  N   UNL     1       5.163   1.623   0.199  0.00  0.00    -0.223 N 
ATOM      9  H   UNL     1       5.595   0.755   0.227  0.00  0.00    +0.174 HD
ENDROOT
BRANCH   1  15
ATOM     10  C   UNL     1       7.785   4.256   0.418  0.00  0.00    +0.026 A 
ATOM     11  C   UNL     1       9.154   4.396   0.530  0.00  0.00    +0.017 A 
ATOM     12  C   UNL     1       9.962   3.274   0.585  0.00  0.00    +0.018 A 
ATOM     13  C   UNL     1       9.401   2.010   0.532  0.00  0.00    +0.017 A 
ATOM     14  C   UNL     1       8.032   1.865   0.425  0.00  0.00    +0.026 A 
ATOM     15  C   UNL     1       7.218   2.989   0.370  0.00  0.00    +0.056 A 
ATOM     16 BR   UNL     1      11.838   3.468   0.732  0.00  0.00    -0.050 Br
ENDBRANCH   1  15
BRANCH   5  17
ATOM     17  C   UNL     1       1.149   3.187   0.082  0.00  0.00    -0.022 A 
ATOM     18  C   UNL     1       1.030   2.103   0.962  0.00  0.00    +0.009 A 
ATOM     19  C   UNL     1      -0.155   1.404   1.032  0.00  0.00    +0.018 A 
ATOM     20  C   UNL     1      -1.226   1.768   0.231  0.00  0.00    +0.048 A 
ATOM     21  C   UNL     1      -1.119   2.842  -0.638  0.00  0.00    +0.141 A 
ATOM     22  C   UNL     1       0.059   3.551  -0.720  0.00  0.00    +0.041 A 
ATOM     23 BR   UNL     1      -2.846   0.796   0.329  0.00  0.00    -0.048 Br
BRANCH  21  24
ATOM     24  N   UNL     1      -2.272   3.225  -1.484  0.00  0.00    +0.058 N 
ATOM     25  O   UNL     1      -2.178   4.166  -2.252  0.00  0.00    -0.126 OA
ATOM     26  O   UNL     1      -3.314   2.599  -1.413  0.00  0.00    -0.126 OA
ENDBRANCH  21  24
ENDBRANCH   5  17
TORSDOF 3
