REMARK  Name = ZINC43554311
REMARK  12 active torsions:
REMARK  status: ('A' for Active; 'I' for Inactive)
REMARK    1  A    between atoms: C_1  and  C_2
REMARK    2  A    between atoms: C_2  and  C_3
REMARK    3  A    between atoms: C_3  and  C_4
REMARK    4  A    between atoms: C_4  and  C_5
REMARK    5  A    between atoms: C_5  and  C_6
REMARK    6  A    between atoms: C_17  and  C_38
REMARK    7  A    between atoms: C_18  and  C_20
REMARK    8  A    between atoms: C_20  and  C_21
REMARK    9  A    between atoms: C_31  and  O_37
REMARK   10  A    between atoms: C_33  and  C_34
REMARK   11  A    between atoms: C_33  and  C_35
REMARK   12  A    between atoms: C_35  and  O_36
REMARK                            x       y       z     vdW  Elec       q    Type
REMARK                         _______ _______ _______ _____ _____    ______ ____
ROOT
ATOM      1  C   UNL     1      -2.517  -4.133  -0.512  0.00  0.00    +0.219 C 
ATOM      2  O   UNL     1      -1.515  -4.815  -0.457  0.00  0.00    -0.275 OA
ATOM      3  N   UNL     1      -3.732  -4.712  -0.438  0.00  0.00    -0.265 N 
ATOM      4  C   UNL     1      -3.837  -6.091  -0.300  0.00  0.00    +0.165 A 
ATOM      5  N   UNL     1      -4.927  -6.822  -0.213  0.00  0.00    -0.229 NA
ATOM      6  C   UNL     1      -4.872  -8.141  -0.077  0.00  0.00    +0.058 A 
ATOM      7  C   UNL     1      -3.624  -8.670  -0.043  0.00  0.00    +0.015 A 
ATOM      8  S   UNL     1      -2.600  -7.232  -0.204  0.00  0.00    -0.057 S 
ATOM      9  C   UNL     1      -3.241 -10.099   0.092  0.00  0.00    +0.049 C 
ATOM     10  C   UNL     1      -4.464 -11.018   0.277  0.00  0.00    +0.011 C 
ATOM     11  C   UNL     1      -5.674 -10.465  -0.466  0.00  0.00    -0.019 C 
ATOM     12  C   UNL     1      -6.057  -9.075   0.053  0.00  0.00    +0.054 C 
ATOM     13  C   UNL     1      -5.379 -10.450  -1.961  0.00  0.00    +0.010 C 
ATOM     14  C   UNL     1      -5.149 -11.882  -2.444  0.00  0.00    +0.032 C 
ATOM     15  C   UNL     1      -4.007 -12.555  -1.706  0.00  0.00    +0.123 C 
ATOM     16  C   UNL     1      -4.051 -12.412  -0.193  0.00  0.00    +0.021 C 
ATOM     17  C   UNL     1      -4.931 -13.510   0.417  0.00  0.00    +0.016 C 
ATOM     18  C   UNL     1      -6.923 -11.325  -0.220  0.00  0.00    +0.012 C 
ATOM     19  H   UNL     1      -4.532  -4.166  -0.482  0.00  0.00    +0.157 HD
ENDROOT
BRANCH  15  20
ATOM     20  O   UNL     1      -2.755 -12.076  -2.211  0.00  0.00    -0.391 OA
ATOM     21  H   UNL     1      -2.621 -12.245  -3.153  0.00  0.00    +0.210 HD
ENDBRANCH  15  20
BRANCH   1  22
ATOM     22  C   UNL     1      -2.403  -2.638  -0.661  0.00  0.00    +0.096 C 
BRANCH  22  23
ATOM     23  C   UNL     1      -0.926  -2.242  -0.720  0.00  0.00    +0.009 C 
BRANCH  23  24
ATOM     24  C   UNL     1      -0.810  -0.724  -0.872  0.00  0.00    +0.000 C 
BRANCH  24  26
ATOM     25  C   UNL     1       0.783   1.189  -1.083  0.00  0.00    +0.004 C 
ATOM     26  C   UNL     1       0.667  -0.329  -0.930  0.00  0.00    -0.003 C 
ENDBRANCH  24  26
ENDBRANCH  23  24
ENDBRANCH  22  23
ENDBRANCH   1  22
BRANCH  12  27
ATOM     27  C   UNL     1      -7.259  -8.527  -0.711  0.00  0.00    +0.106 C 
BRANCH  27  28
ATOM     28  C   UNL     1      -7.737  -7.259  -0.053  0.00  0.00    +0.216 C 
ATOM     29  O   UNL     1      -7.169  -6.835   0.932  0.00  0.00    -0.276 OA
ATOM     30  N   UNL     1      -8.794  -6.594  -0.559  0.00  0.00    -0.297 N 
ATOM     31  C   UNL     1      -9.502  -7.091  -1.749  0.00  0.00    +0.136 C 
ATOM     32  C   UNL     1     -11.003  -7.131  -1.438  0.00  0.00    +0.179 C 
ATOM     33  O   UNL     1     -11.414  -5.855  -0.941  0.00  0.00    -0.377 OA
ATOM     34  C   UNL     1     -10.787  -5.474   0.286  0.00  0.00    +0.179 C 
ATOM     35  C   UNL     1      -9.279  -5.353   0.066  0.00  0.00    +0.136 C 
ENDBRANCH  27  28
ENDBRANCH  12  27
BRANCH  16  36
ATOM     36  C   UNL     1      -2.620 -12.698   0.333  0.00  0.00    +0.165 C 
BRANCH  36  37
ATOM     37  O   UNL     1      -2.206 -13.998  -0.093  0.00  0.00    -0.394 OA
ATOM     38  H   UNL     1      -1.319 -14.244   0.201  0.00  0.00    +0.209 HD
ENDBRANCH  36  37
ENDBRANCH  16  36
TORSDOF 9
