REMARK  Name = ZINC64525918
REMARK  5 active torsions:
REMARK  status: ('A' for Active; 'I' for Inactive)
REMARK    1  A    between atoms: C_1  and  C_2
REMARK    2  A    between atoms: C_2  and  N_3
REMARK    3  A    between atoms: C_7  and  S_13
REMARK    4  A    between atoms: S_13  and  N_16
REMARK    5  A    between atoms: C_22  and  C_24
REMARK                            x       y       z     vdW  Elec       q    Type
REMARK                         _______ _______ _______ _____ _____    ______ ____
ROOT
ATOM      1  N   UNL     1      -6.243  -0.641   4.431  0.00  0.00    -0.174 NA
ATOM      2  C   UNL     1      -5.864   0.258   5.530  0.00  0.00    +0.128 C 
ATOM      3  C   UNL     1      -5.703   1.676   4.970  0.00  0.00    +0.125 C 
ATOM      4  N   UNL     1      -6.890   2.001   4.166  0.00  0.00    -0.297 N 
ATOM      5  C   UNL     1      -7.268   1.102   3.067  0.00  0.00    +0.125 C 
ATOM      6  C   UNL     1      -7.426  -0.313   3.623  0.00  0.00    +0.128 C 
ATOM      7  C   UNL     1      -7.618   3.103   4.433  0.00  0.00    +0.242 C 
ATOM      8  O   UNL     1      -7.296   3.838   5.343  0.00  0.00    -0.273 OA
ENDROOT
BRANCH   7   9
ATOM      9  C   UNL     1      -8.832   3.424   3.600  0.00  0.00    +0.190 C 
ATOM     10  C   UNL     1      -9.866   2.329   3.743  0.00  0.00    +0.016 C 
ATOM     11  C   UNL     1     -10.966   2.918   4.265  0.00  0.00    -0.002 A 
ATOM     12  C   UNL     1     -12.289   2.402   4.635  0.00  0.00    +0.029 A 
ATOM     13  C   UNL     1     -13.207   3.254   5.147  0.00  0.00    +0.042 A 
ATOM     14  C   UNL     1     -12.925   4.616   5.332  0.00  0.00    +0.022 A 
ATOM     15  C   UNL     1     -11.732   5.163   5.017  0.00  0.00    +0.027 A 
ATOM     16  C   UNL     1     -10.694   4.359   4.471  0.00  0.00    +0.043 A 
ATOM     17  N   UNL     1      -9.472   4.650   4.090  0.00  0.00    -0.370 N 
ATOM     18 CL   UNL     1     -14.773   2.648   5.585  0.00  0.00    -0.084 Cl
ATOM     19  H   UNL     1      -9.061   5.528   4.125  0.00  0.00    +0.161 HD
ENDBRANCH   7   9
BRANCH   1  20
ATOM     20  S   UNL     1      -5.348  -1.996   4.104  0.00  0.00    +0.061 S 
ATOM     21  O   UNL     1      -6.211  -2.899   3.427  0.00  0.00    -0.153 OA
ATOM     22  O   UNL     1      -4.677  -2.340   5.308  0.00  0.00    -0.153 OA
BRANCH  20  27
ATOM     23  N   UNL     1      -1.372  -0.511   0.012  0.00  0.00    -0.274 N 
ATOM     24  C   UNL     1      -2.137  -0.797   1.143  0.00  0.00    +0.090 A 
ATOM     25  C   UNL     1      -1.892  -0.712   2.504  0.00  0.00    +0.031 A 
ATOM     26  C   UNL     1      -2.875  -1.078   3.404  0.00  0.00    +0.031 A 
ATOM     27  C   UNL     1      -4.101  -1.530   2.949  0.00  0.00    +0.109 A 
ATOM     28  C   UNL     1      -4.353  -1.617   1.593  0.00  0.00    +0.077 A 
ATOM     29  C   UNL     1      -3.373  -1.252   0.683  0.00  0.00    +0.159 A 
ATOM     30  O   UNL     1      -3.331  -1.231  -0.672  0.00  0.00    -0.407 OA
ATOM     31  C   UNL     1      -2.131  -0.781  -1.069  0.00  0.00    +0.421 A 
ATOM     32  O   UNL     1      -1.780  -0.641  -2.225  0.00  0.00    -0.223 OA
BRANCH  23  34
ATOM     33  C   UNL     1      -0.019   1.526   0.010  0.00  0.00    +0.027 C 
ATOM     34  C   UNL     1       0.002  -0.004   0.002  0.00  0.00    +0.125 C 
ENDBRANCH  23  34
ENDBRANCH  20  27
ENDBRANCH   1  20
TORSDOF 4
