REMARK  Name = ZINC67075861
REMARK  16 active torsions:
REMARK  status: ('A' for Active; 'I' for Inactive)
REMARK    1  A    between atoms: C_1  and  C_2
REMARK    2  A    between atoms: C_2  and  N_3
REMARK    3  A    between atoms: C_4  and  C_9
REMARK    4  A    between atoms: C_9  and  C_10
REMARK    5  A    between atoms: C_10  and  N_11
REMARK    6  A    between atoms: C_12  and  C_14
REMARK    7  A    between atoms: C_14  and  C_16
REMARK    8  A    between atoms: C_14  and  N_20
REMARK    9  A    between atoms: C_16  and  C_17
REMARK   10  A    between atoms: C_17  and  C_18
REMARK   11  A    between atoms: C_17  and  C_19
REMARK   12  A    between atoms: C_21  and  O_23
REMARK   13  A    between atoms: O_23  and  C_24
REMARK   14  A    between atoms: C_24  and  C_25
REMARK   15  A    between atoms: C_24  and  C_26
REMARK   16  A    between atoms: C_24  and  C_27
REMARK                            x       y       z     vdW  Elec       q    Type
REMARK                         _______ _______ _______ _____ _____    ______ ____
ROOT
ATOM      1  N   UNL     1      -2.329  -0.883   4.893  0.00  0.00    -0.313 N 
ATOM      2  C   UNL     1      -3.158  -1.192   5.910  0.00  0.00    +0.233 C 
ATOM      3  O   UNL     1      -4.275  -1.603   5.679  0.00  0.00    -0.274 OA
ATOM      4  H   UNL     1      -1.436  -0.554   5.079  0.00  0.00    +0.149 HD
ENDROOT
BRANCH   1   5
ATOM      5  C   UNL     1      -2.779  -1.043   3.508  0.00  0.00    +0.112 C 
BRANCH   5   6
ATOM      6  C   UNL     1      -1.656  -0.625   2.556  0.00  0.00    +0.095 C 
BRANCH   6   8
ATOM      7  N   UNL     1      -1.372  -0.511   0.012  0.00  0.00    -0.307 N 
ATOM      8  C   UNL     1      -2.118  -0.790   1.131  0.00  0.00    +0.133 A 
ATOM      9  N   UNL     1      -3.282  -1.218   0.762  0.00  0.00    -0.159 NA
ATOM     10  N   UNL     1      -3.319  -1.227  -0.639  0.00  0.00    -0.254 N 
ATOM     11  C   UNL     1      -2.123  -0.778  -1.075  0.00  0.00    +0.176 A 
ATOM     12  S   UNL     1      -1.646  -0.587  -2.708  0.00  0.00    -0.011 S 
ATOM     13  H   UNL     1      -4.067  -1.501  -1.193  0.00  0.00    +0.191 HD
BRANCH   7  15
ATOM     14  C   UNL     1      -0.019   1.526   0.010  0.00  0.00    +0.027 C 
ATOM     15  C   UNL     1       0.002  -0.004   0.002  0.00  0.00    +0.122 C 
ENDBRANCH   7  15
ENDBRANCH   6   8
ENDBRANCH   5   6
ENDBRANCH   1   5
BRANCH   2  16
ATOM     16  C   UNL     1      -2.696  -1.027   7.335  0.00  0.00    +0.162 C 
BRANCH  16  17
ATOM     17  N   UNL     1      -3.771  -1.427   8.247  0.00  0.00    -0.270 N 
ATOM     18  C   UNL     1      -3.817  -0.923   9.496  0.00  0.00    +0.401 C 
ATOM     19  O   UNL     1      -2.968  -0.138   9.866  0.00  0.00    -0.226 OA
ATOM     20  H   UNL     1      -4.449  -2.054   7.951  0.00  0.00    +0.153 HD
BRANCH  18  21
ATOM     21  O   UNL     1      -4.806  -1.291  10.333  0.00  0.00    -0.445 OA
BRANCH  21  22
ATOM     22  C   UNL     1      -4.793  -0.718  11.642  0.00  0.00    +0.107 C 
ATOM     23  C   UNL     1      -4.892   0.805  11.533  0.00  0.00    +0.055 C 
ATOM     24  C   UNL     1      -5.983  -1.250  12.443  0.00  0.00    +0.055 C 
ATOM     25  C   UNL     1      -3.491  -1.095  12.352  0.00  0.00    +0.055 C 
ENDBRANCH  21  22
ENDBRANCH  18  21
ENDBRANCH  16  17
BRANCH  16  26
ATOM     26  C   UNL     1      -1.468  -1.907   7.578  0.00  0.00    +0.035 C 
BRANCH  26  27
ATOM     27  C   UNL     1      -0.924  -1.647   8.985  0.00  0.00    -0.015 C 
ATOM     28  C   UNL     1       0.226  -2.614   9.274  0.00  0.00    +0.007 C 
ATOM     29  C   UNL     1      -0.415  -0.207   9.076  0.00  0.00    +0.007 C 
ENDBRANCH  26  27
ENDBRANCH  16  26
ENDBRANCH   2  16
TORSDOF 10
