REMARK  Name = ZINC64109850
REMARK  5 active torsions:
REMARK  status: ('A' for Active; 'I' for Inactive)
REMARK    1  A    between atoms: C_6  and  C_7
REMARK    2  A    between atoms: N_11  and  C_19
REMARK    3  A    between atoms: C_13  and  C_14
REMARK    4  A    between atoms: C_13  and  C_16
REMARK    5  A    between atoms: C_19  and  C_20
REMARK                            x       y       z     vdW  Elec       q    Type
REMARK                         _______ _______ _______ _____ _____    ______ ____
ROOT
ATOM      1  C   UNL     1      -1.850  -0.447  -0.727  0.00  0.00    +0.028 C 
ATOM      2  C   UNL     1      -1.723  -1.780  -0.506  0.00  0.00    +0.079 A 
ATOM      3  C   UNL     1      -2.738  -2.847  -0.602  0.00  0.00    +0.266 A 
ATOM      4  O   UNL     1      -3.889  -2.606  -0.917  0.00  0.00    -0.266 OA
ATOM      5  N   UNL     1      -2.340  -4.078  -0.329  0.00  0.00    -0.298 N 
ATOM      6  C   UNL     1      -1.039  -4.334   0.025  0.00  0.00    +0.112 A 
ATOM      7  C   UNL     1      -0.451  -5.560   0.344  0.00  0.00    +0.158 C 
ATOM      8  S   UNL     1      -0.279  -2.719  -0.029  0.00  0.00    -0.064 S 
ENDROOT
BRANCH   1  14
ATOM      9  C   UNL     1      -0.661   1.716  -1.028  0.00  0.00    +0.009 A 
ATOM     10  C   UNL     1       0.388   2.561  -0.735  0.00  0.00    +0.023 A 
ATOM     11  C   UNL     1       1.369   2.169   0.160  0.00  0.00    +0.076 A 
ATOM     12  C   UNL     1       1.305   0.923   0.768  0.00  0.00    +0.142 A 
ATOM     13  C   UNL     1       0.261   0.067   0.484  0.00  0.00    +0.047 A 
ATOM     14  C   UNL     1      -0.734   0.458  -0.419  0.00  0.00    -0.021 A 
ATOM     15  F   UNL     1       2.267   0.548   1.639  0.00  0.00    -0.204 F 
ATOM     16 CL   UNL     1       2.687   3.240   0.521  0.00  0.00    -0.081 Cl
ENDBRANCH   1  14
BRANCH   7  17
ATOM     17  C   UNL     1       0.949  -5.627   0.638  0.00  0.00    +0.113 C 
ATOM     18  N   UNL     1       2.059  -5.681   0.872  0.00  0.00    -0.190 NA
ENDBRANCH   7  17
BRANCH   7  19
ATOM     19  C   UNL     1      -1.248  -6.749   0.376  0.00  0.00    +0.113 C 
ATOM     20  N   UNL     1      -1.879  -7.693   0.401  0.00  0.00    -0.190 NA
ENDBRANCH   7  19
BRANCH   5  21
ATOM     21  C   UNL     1      -3.299  -5.183  -0.405  0.00  0.00    +0.157 C 
BRANCH  21  22
ATOM     22  C   UNL     1      -3.817  -5.506   0.997  0.00  0.00    +0.138 C 
ATOM     23  C   UNL     1      -4.873  -6.630   0.920  0.00  0.00    +0.035 C 
ATOM     24  C   UNL     1      -5.923  -6.169   1.967  0.00  0.00    +0.031 C 
ATOM     25  C   UNL     1      -5.841  -4.630   1.808  0.00  0.00    +0.160 C 
ATOM     26  O   UNL     1      -4.455  -4.352   1.557  0.00  0.00    -0.375 OA
ENDBRANCH  21  22
ENDBRANCH   5  21
TORSDOF 5
