REMARK  Name = ZINC64661222
REMARK  7 active torsions:
REMARK  status: ('A' for Active; 'I' for Inactive)
REMARK    1  A    between atoms: C_1  and  O_2
REMARK    2  A    between atoms: O_2  and  C_3
REMARK    3  A    between atoms: C_3  and  C_5
REMARK    4  A    between atoms: C_5  and  C_6
REMARK    5  A    between atoms: N_10  and  C_18
REMARK    6  A    between atoms: C_18  and  C_19
REMARK    7  A    between atoms: N_21  and  C_22
REMARK                            x       y       z     vdW  Elec       q    Type
REMARK                         _______ _______ _______ _____ _____    ______ ____
ROOT
ATOM      1  C   UNL     1      -2.632  -2.629  -0.109  0.00  0.00    +0.024 C 
ATOM      2  C   UNL     1      -3.181  -2.964  -1.292  0.00  0.00    +0.087 C 
ATOM      3  C   UNL     1      -4.502  -3.378  -1.582  0.00  0.00    +0.246 C 
ATOM      4  O   UNL     1      -4.732  -3.621  -2.753  0.00  0.00    -0.270 OA
ATOM      5  N   UNL     1      -5.541  -3.541  -0.738  0.00  0.00    -0.257 N 
ATOM      6  C   UNL     1      -5.570  -3.337   0.652  0.00  0.00    +0.058 A 
ATOM      7  C   UNL     1      -6.818  -3.605   1.186  0.00  0.00    +0.025 A 
ATOM      8  C   UNL     1      -7.032  -3.458   2.546  0.00  0.00    +0.002 A 
ATOM      9  C   UNL     1      -6.005  -3.044   3.371  0.00  0.00    +0.002 A 
ATOM     10  C   UNL     1      -4.753  -2.774   2.843  0.00  0.00    +0.025 A 
ATOM     11  C   UNL     1      -4.532  -2.919   1.484  0.00  0.00    +0.053 A 
ATOM     12  N   UNL     1      -3.209  -2.607   1.134  0.00  0.00    -0.316 N 
ATOM     13  H   UNL     1      -2.630  -2.336   1.865  0.00  0.00    +0.152 HD
ENDROOT
BRANCH   1  14
ATOM     14  C   UNL     1      -1.179  -2.229  -0.157  0.00  0.00    +0.171 C 
BRANCH  14  15
ATOM     15  C   UNL     1      -1.074  -0.729  -0.250  0.00  0.00    +0.312 C 
ATOM     16  O   UNL     1      -2.076  -0.053  -0.275  0.00  0.00    -0.250 OA
BRANCH  15  18
ATOM     17  C   UNL     1       0.157   1.283  -0.394  0.00  0.00    +0.280 C 
ATOM     18  O   UNL     1       0.132  -0.143  -0.306  0.00  0.00    -0.468 OA
ENDBRANCH  15  18
ENDBRANCH  14  15
ENDBRANCH   1  14
BRANCH   5  19
ATOM     19  C   UNL     1      -6.798  -3.986  -1.347  0.00  0.00    +0.210 C 
BRANCH  19  20
ATOM     20  C   UNL     1      -7.684  -2.793  -1.598  0.00  0.00    +0.235 C 
ATOM     21  O   UNL     1      -7.304  -1.681  -1.298  0.00  0.00    -0.274 OA
ATOM     22  N   UNL     1      -8.899  -2.962  -2.156  0.00  0.00    -0.283 N 
ATOM     23  H   UNL     1      -9.226  -3.856  -2.344  0.00  0.00    +0.155 HD
BRANCH  22  24
ATOM     24  C   UNL     1      -9.689  -1.849  -2.463  0.00  0.00    +0.047 A 
ATOM     25  C   UNL     1      -9.534  -0.667  -1.750  0.00  0.00    +0.024 A 
ATOM     26  C   UNL     1     -10.315   0.430  -2.056  0.00  0.00    +0.002 A 
ATOM     27  C   UNL     1     -11.251   0.353  -3.071  0.00  0.00    +0.001 A 
ATOM     28  C   UNL     1     -11.409  -0.821  -3.783  0.00  0.00    +0.017 A 
ATOM     29  C   UNL     1     -10.627  -1.921  -3.486  0.00  0.00    +0.039 A 
ATOM     30 BR   UNL     1     -10.838  -3.525  -4.464  0.00  0.00    -0.048 Br
ENDBRANCH  22  24
ENDBRANCH  19  20
ENDBRANCH   5  19
TORSDOF 6
