REMARK  Name = ZINC15734912
REMARK  8 active torsions:
REMARK  status: ('A' for Active; 'I' for Inactive)
REMARK    1  A    between atoms: C_1  and  C_2
REMARK    2  A    between atoms: C_2  and  C_3
REMARK    3  A    between atoms: C_9  and  C_10
REMARK    4  A    between atoms: C_9  and  N_70
REMARK    5  A    between atoms: C_13  and  C_15
REMARK    6  A    between atoms: C_15  and  N_16
REMARK    7  A    between atoms: C_17  and  C_19
REMARK    8  A    between atoms: C_28  and  C_31
REMARK                            x       y       z     vdW  Elec       q    Type
REMARK                         _______ _______ _______ _____ _____    ______ ____
ROOT
ATOM      1  N   UNL     1      -2.268  -0.486   2.041  0.00  0.00    -0.308 N 
ATOM      2  C   UNL     1      -0.927  -0.490   1.909  0.00  0.00    +0.217 C 
ATOM      3  O   UNL     1      -0.240   0.142   2.683  0.00  0.00    -0.276 OA
ATOM      4  H   UNL     1      -2.818  -0.992   1.421  0.00  0.00    +0.149 HD
ENDROOT
BRANCH   2   5
ATOM      5  C   UNL     1      -0.281  -1.280   0.799  0.00  0.00    +0.078 C 
ATOM      6  C   UNL     1      -0.779  -0.765  -0.554  0.00  0.00    +0.031 C 
ATOM      7  C   UNL     1      -0.074  -1.530  -1.676  0.00  0.00    +0.107 C 
ATOM      8  N   UNL     1       1.377  -1.339  -1.564  0.00  0.00    -0.314 N 
ATOM      9  C   UNL     1       1.886  -1.869  -0.292  0.00  0.00    +0.107 C 
ATOM     10  C   UNL     1       1.240  -1.113   0.871  0.00  0.00    +0.031 C 
ATOM     11  C   UNL     1       2.040  -1.913  -2.644  0.00  0.00    +0.144 A 
ATOM     12  C   UNL     1       1.700  -1.546  -3.947  0.00  0.00    +0.047 A 
ATOM     13  C   UNL     1       2.389  -2.138  -4.989  0.00  0.00    +0.034 A 
ATOM     14  C   UNL     1       3.380  -3.077  -4.672  0.00  0.00    +0.100 A 
ATOM     15  N   UNL     1       3.631  -3.366  -3.401  0.00  0.00    -0.147 NA
ATOM     16  N   UNL     1       2.992  -2.811  -2.436  0.00  0.00    -0.134 NA
BRANCH  14  17
ATOM     17  C   UNL     1       4.141  -3.744  -5.748  0.00  0.00    +0.039 A 
ATOM     18  C   UNL     1       5.137  -4.679  -5.649  0.00  0.00    +0.018 A 
ATOM     19  C   UNL     1       5.708  -5.164  -6.805  0.00  0.00    +0.008 A 
ATOM     20  C   UNL     1       5.269  -4.702  -8.004  0.00  0.00    +0.046 A 
ATOM     21  S   UNL     1       3.998  -3.546  -7.516  0.00  0.00    -0.095 S 
ENDBRANCH  14  17
ENDBRANCH   2   5
BRANCH   1  22
ATOM     22  C   UNL     1      -2.896   0.281   3.119  0.00  0.00    +0.178 C 
BRANCH  22  26
ATOM     23  C   UNL     1      -6.493   0.465   2.516  0.00  0.00    +0.089 A 
ATOM     24  C   UNL     1      -6.466  -0.613   3.321  0.00  0.00    +0.043 A 
ATOM     25  C   UNL     1      -5.112  -0.835   3.662  0.00  0.00    +0.046 A 
ATOM     26  C   UNL     1      -4.392   0.119   3.045  0.00  0.00    +0.122 A 
ATOM     27  O   UNL     1      -5.235   0.907   2.357  0.00  0.00    -0.465 OA
BRANCH  23  28
ATOM     28  C   UNL     1      -7.726   1.075   1.901  0.00  0.00    -0.003 C 
BRANCH  28  34
ATOM     29  C   UNL     1      -9.414   2.785   2.196  0.00  0.00    -0.068 C 
ATOM     30  C   UNL     1     -10.044   3.735   3.217  0.00  0.00    -0.015 C 
ATOM     31  C   UNL     1      -8.996   4.752   3.676  0.00  0.00    -0.003 C 
ATOM     32  C   UNL     1      -7.795   4.006   4.264  0.00  0.00    -0.019 C 
ATOM     33  C   UNL     1      -7.230   3.049   3.213  0.00  0.00    -0.078 C 
ATOM     34  N   UNL     1      -8.280   2.080   2.831  0.00  0.00    +0.386 N 
ATOM     35  H   UNL     1      -8.616   1.604   3.676  0.00  0.00    -0.081 HD
BRANCH  29  37
ATOM     36  C   UNL     1     -11.581   2.461   0.996  0.00  0.00    +0.002 C 
ATOM     37  C   UNL     1     -10.452   1.754   1.749  0.00  0.00    -0.019 C 
ENDBRANCH  29  37
ENDBRANCH  28  34
ENDBRANCH  23  28
ENDBRANCH  22  26
ENDBRANCH   1  22
TORSDOF 7
