REMARK  Name = ZINC39295630
REMARK  3 active torsions:
REMARK  status: ('A' for Active; 'I' for Inactive)
REMARK    1  A    between atoms: C_4  and  N_7
REMARK    2  A    between atoms: C_8  and  C_24
REMARK    3  A    between atoms: C_27  and  O_30
REMARK                            x       y       z     vdW  Elec       q    Type
REMARK                         _______ _______ _______ _____ _____    ______ ____
ROOT
ATOM      1  N   UNL     1       3.794  -0.640  -0.105  0.00  0.00    -0.243 N 
ATOM      2  C   UNL     1       3.794  -2.132  -0.052  0.00  0.00    +0.169 C 
ATOM      3  C   UNL     1       5.251  -2.476   0.181  0.00  0.00    +0.201 C 
ATOM      4  C   UNL     1       5.876  -1.252  -0.594  0.00  0.00    +0.207 C 
ATOM      5  O   UNL     1       5.169  -0.184  -0.069  0.00  0.00    -0.261 OA
ATOM      6  C   UNL     1       7.300  -1.492  -0.843  0.00  0.00    +0.010 A 
ATOM      7  C   UNL     1       8.394  -0.627  -0.821  0.00  0.00    +0.008 A 
ATOM      8  C   UNL     1       9.656  -1.057  -1.161  0.00  0.00    +0.000 A 
ATOM      9  C   UNL     1       9.881  -2.369  -1.534  0.00  0.00    +0.002 A 
ATOM     10  C   UNL     1       8.819  -3.257  -1.528  0.00  0.00    +0.027 A 
ATOM     11  C   UNL     1       7.572  -2.838  -1.161  0.00  0.00    +0.094 A 
ATOM     12  S   UNL     1       6.017  -3.741  -0.887  0.00  0.00    +0.005 S 
ATOM     13  O   UNL     1       6.361  -4.904  -0.146  0.00  0.00    -0.169 OA
ATOM     14  O   UNL     1       5.360  -3.824  -2.144  0.00  0.00    -0.169 OA
ENDROOT
BRANCH   1  18
ATOM     15  C   UNL     1       0.423   1.793  -0.336  0.00  0.00    +0.000 A 
ATOM     16  C   UNL     1       1.683   2.361  -0.308  0.00  0.00    +0.002 A 
ATOM     17  C   UNL     1       2.803   1.557  -0.232  0.00  0.00    +0.028 A 
ATOM     18  C   UNL     1       2.663   0.176  -0.182  0.00  0.00    +0.065 A 
ATOM     19  C   UNL     1       1.396  -0.392  -0.211  0.00  0.00    +0.028 A 
ATOM     20  C   UNL     1       0.280   0.418  -0.288  0.00  0.00    +0.002 A 
ENDBRANCH   1  18
BRANCH   2  21
ATOM     21  C   UNL     1       3.311  -2.710  -1.357  0.00  0.00    -0.021 A 
ATOM     22  C   UNL     1       2.697  -3.948  -1.379  0.00  0.00    +0.009 A 
ATOM     23  C   UNL     1       2.253  -4.480  -2.574  0.00  0.00    +0.046 A 
ATOM     24  C   UNL     1       2.424  -3.771  -3.753  0.00  0.00    +0.117 A 
ATOM     25  C   UNL     1       3.040  -2.528  -3.729  0.00  0.00    +0.046 A 
ATOM     26  C   UNL     1       3.477  -1.998  -2.531  0.00  0.00    +0.009 A 
BRANCH  24  27
ATOM     27  O   UNL     1       1.989  -4.292  -4.931  0.00  0.00    -0.507 OA
ATOM     28  H   UNL     1       1.078  -4.056  -5.152  0.00  0.00    +0.292 HD
ENDBRANCH  24  27
ENDBRANCH   2  21
TORSDOF 3
