REMARK  Name = ZINC03653309
REMARK  7 active torsions:
REMARK  status: ('A' for Active; 'I' for Inactive)
REMARK    1  A    between atoms: C_1  and  C_2
REMARK    2  A    between atoms: C_2  and  O_3
REMARK    3  A    between atoms: O_3  and  C_4
REMARK    4  A    between atoms: C_7  and  C_10
REMARK    5  A    between atoms: C_22  and  S_25
REMARK    6  A    between atoms: S_25  and  C_26
REMARK    7  A    between atoms: C_26  and  C_27
REMARK                            x       y       z     vdW  Elec       q    Type
REMARK                         _______ _______ _______ _____ _____    ______ ____
ROOT
ATOM      1  C   UNL     1       0.464  -0.693  -1.199  0.00  0.00    +0.294 C 
ATOM      2  N   UNL     1      -0.008  -0.028   0.011  0.00  0.00    -0.305 N 
ATOM      3  C   UNL     1      -0.046   1.369   0.039  0.00  0.00    +0.039 A 
ATOM      4  C   UNL     1      -1.246   2.057   0.058  0.00  0.00    +0.024 A 
ATOM      5  C   UNL     1      -1.247   3.439   0.069  0.00  0.00    +0.002 A 
ATOM      6  C   UNL     1      -0.054   4.142   0.058  0.00  0.00    +0.001 A 
ATOM      7  C   UNL     1       1.152   3.470   0.044  0.00  0.00    +0.012 A 
ATOM      8  C   UNL     1       1.168   2.081   0.042  0.00  0.00    +0.028 A 
ATOM      9  C   UNL     1       2.436   1.321   0.053  0.00  0.00    +0.156 A 
ATOM     10  C   UNL     1       2.615   0.247  -0.849  0.00  0.00    +0.248 A 
ATOM     11  N   UNL     1       3.752  -0.427  -0.816  0.00  0.00    -0.184 NA
ATOM     12  C   UNL     1       4.691  -0.076   0.057  0.00  0.00    +0.213 A 
ATOM     13  N   UNL     1       4.505   0.938   0.892  0.00  0.00    -0.122 NA
ATOM     14  N   UNL     1       3.413   1.620   0.896  0.00  0.00    -0.141 NA
ATOM     15  O   UNL     1       1.631  -0.070  -1.724  0.00  0.00    -0.449 OA
ATOM     16  H   UNL     1      -0.289  -0.545   0.782  0.00  0.00    +0.150 HD
ENDROOT
BRANCH   1  20
ATOM     17  C   UNL     1      -2.626  -0.567  -4.149  0.00  0.00    +0.121 A 
ATOM     18  C   UNL     1      -1.301  -0.391  -4.523  0.00  0.00    +0.046 A 
ATOM     19  C   UNL     1      -0.304  -0.432  -3.567  0.00  0.00    +0.012 A 
ATOM     20  C   UNL     1      -0.626  -0.648  -2.240  0.00  0.00    +0.011 A 
ATOM     21  C   UNL     1      -1.945  -0.829  -1.866  0.00  0.00    +0.012 A 
ATOM     22  C   UNL     1      -2.946  -0.783  -2.817  0.00  0.00    +0.046 A 
BRANCH  17  23
ATOM     23  O   UNL     1      -3.608  -0.526  -5.088  0.00  0.00    -0.492 OA
BRANCH  23  25
ATOM     24  C   UNL     1      -5.908  -0.637  -5.821  0.00  0.00    +0.048 C 
ATOM     25  C   UNL     1      -4.949  -0.715  -4.631  0.00  0.00    +0.225 C 
ENDBRANCH  23  25
ENDBRANCH  17  23
ENDBRANCH   1  20
BRANCH  12  26
ATOM     26  S   UNL     1       6.208  -0.972   0.106  0.00  0.00    -0.080 S 
BRANCH  26  27
ATOM     27  C   UNL     1       7.058  -0.080   1.431  0.00  0.00    +0.112 C 
BRANCH  27  28
ATOM     28  C   UNL     1       8.418  -0.689   1.656  0.00  0.00    -0.037 A 
ATOM     29  C   UNL     1       8.573  -1.715   2.569  0.00  0.00    +0.006 A 
ATOM     30  C   UNL     1       9.819  -2.279   2.771  0.00  0.00    +0.020 A 
ATOM     31  C   UNL     1      10.913  -1.808   2.067  0.00  0.00    +0.041 A 
ATOM     32  C   UNL     1      10.758  -0.777   1.157  0.00  0.00    +0.020 A 
ATOM     33  C   UNL     1       9.511  -0.218   0.952  0.00  0.00    +0.006 A 
ATOM     34 CL   UNL     1      12.479  -2.510   2.325  0.00  0.00    -0.084 Cl
ENDBRANCH  27  28
ENDBRANCH  26  27
ENDBRANCH  12  26
TORSDOF 6
