REMARK  Name = ZINC01199349
REMARK  10 active torsions:
REMARK  status: ('A' for Active; 'I' for Inactive)
REMARK    1  A    between atoms: C_1  and  C_2
REMARK    2  A    between atoms: C_3  and  C_31
REMARK    3  A    between atoms: C_4  and  C_24
REMARK    4  A    between atoms: C_6  and  C_22
REMARK    5  A    between atoms: C_7  and  S_9
REMARK    6  A    between atoms: S_9  and  C_10
REMARK    7  A    between atoms: C_10  and  C_11
REMARK    8  A    between atoms: C_11  and  C_13
REMARK    9  A    between atoms: C_16  and  N_19
REMARK   10  A    between atoms: C_31  and  C_33
REMARK                            x       y       z     vdW  Elec       q    Type
REMARK                         _______ _______ _______ _____ _____    ______ ____
ROOT
ATOM      1  C   UNL     1       7.000   5.156  -0.772  0.00  0.00    +0.061 C 
ATOM      2  C   UNL     1       6.018   6.229  -0.377  0.00  0.00    +0.013 C 
ATOM      3  C   UNL     1       6.406   7.521  -0.386  0.00  0.00    +0.024 C 
ATOM      4  C   UNL     1       5.469   8.627   0.007  0.00  0.00    +0.096 C 
ATOM      5  C   UNL     1       4.045   8.148   0.003  0.00  0.00    +0.069 C 
ATOM      6  C   UNL     1       3.747   6.822  -0.003  0.00  0.00    +0.080 C 
ATOM      7  N   UNL     1       4.750   5.878  -0.010  0.00  0.00    -0.312 N 
ATOM      8  H   UNL     1       4.529   4.841   0.282  0.00  0.00    +0.152 HD
ENDROOT
BRANCH   4   9
ATOM      9  C   UNL     1       5.826   9.111   1.389  0.00  0.00    -0.035 A 
ATOM     10  C   UNL     1       5.753   8.246   2.464  0.00  0.00    +0.005 A 
ATOM     11  C   UNL     1       6.084   8.688   3.731  0.00  0.00    +0.015 A 
ATOM     12  C   UNL     1       6.479   9.999   3.925  0.00  0.00    +0.018 A 
ATOM     13  C   UNL     1       6.548  10.866   2.849  0.00  0.00    +0.015 A 
ATOM     14  C   UNL     1       6.221  10.422   1.581  0.00  0.00    +0.005 A 
ATOM     15 BR   UNL     1       6.927  10.607   5.659  0.00  0.00    -0.050 Br
ENDBRANCH   4   9
BRANCH   3  16
ATOM     16  C   UNL     1       7.716   7.839  -0.774  0.00  0.00    +0.159 C 
ATOM     17  O   UNL     1       8.518   6.952  -0.991  0.00  0.00    -0.293 OA
ATOM     18  C   UNL     1       8.130   9.281  -0.921  0.00  0.00    +0.091 C 
ENDBRANCH   3  16
BRANCH   5  19
ATOM     19  C   UNL     1       2.982   9.107   0.006  0.00  0.00    +0.098 C 
ATOM     20  N   UNL     1       2.138   9.868   0.008  0.00  0.00    -0.191 NA
ENDBRANCH   5  19
BRANCH   6  21
ATOM     21  S   UNL     1       2.062   6.306   0.004  0.00  0.00    -0.101 S 
BRANCH  21  22
ATOM     22  C   UNL     1       2.284   4.509  -0.009  0.00  0.00    +0.155 C 
BRANCH  22  23
ATOM     23  C   UNL     1       0.935   3.837  -0.005  0.00  0.00    +0.173 C 
ATOM     24  O   UNL     1      -0.076   4.505   0.005  0.00  0.00    -0.291 OA
BRANCH  23  25
ATOM     25  C   UNL     1       0.846   2.368  -0.014  0.00  0.00    +0.018 A 
ATOM     26  C   UNL     1      -0.404   1.740  -0.010  0.00  0.00    +0.013 A 
ATOM     27  C   UNL     1      -0.479   0.363  -0.019  0.00  0.00    +0.033 A 
ATOM     28  C   UNL     1       0.677  -0.397  -0.031  0.00  0.00    +0.126 A 
ATOM     29  C   UNL     1       1.918   0.217  -0.035  0.00  0.00    +0.033 A 
ATOM     30  C   UNL     1       2.010   1.593  -0.026  0.00  0.00    +0.013 A 
BRANCH  28  31
ATOM     31  N   UNL     1       0.587  -1.875  -0.040  0.00  0.00    +0.056 N 
ATOM     32  O   UNL     1      -0.503  -2.418  -0.036  0.00  0.00    -0.126 OA
ATOM     33  O   UNL     1       1.603  -2.547  -0.051  0.00  0.00    -0.126 OA
ENDBRANCH  28  31
ENDBRANCH  23  25
ENDBRANCH  22  23
ENDBRANCH  21  22
ENDBRANCH   6  21
TORSDOF 8
