REMARK  Name = ZINC08896125
REMARK  7 active torsions:
REMARK  status: ('A' for Active; 'I' for Inactive)
REMARK    1  A    between atoms: C_1  and  C_2
REMARK    2  A    between atoms: C_3  and  C_15
REMARK    3  A    between atoms: C_4  and  C_14
REMARK    4  A    between atoms: N_5  and  C_7
REMARK    5  A    between atoms: C_7  and  C_8
REMARK    6  A    between atoms: N_26  and  C_27
REMARK    7  A    between atoms: C_27  and  C_28
REMARK                            x       y       z     vdW  Elec       q    Type
REMARK                         _______ _______ _______ _____ _____    ______ ____
ROOT
ATOM      1  C   UNL     1      -0.535   2.553   1.061  0.00  0.00    +0.196 C 
ATOM      2  N   UNL     1      -1.899   2.117   0.738  0.00  0.00    -0.321 N 
ATOM      3  C   UNL     1      -2.285   2.069  -0.594  0.00  0.00    +0.041 A 
ATOM      4  C   UNL     1      -3.225   1.163  -1.054  0.00  0.00    +0.024 A 
ATOM      5  C   UNL     1      -3.569   1.155  -2.392  0.00  0.00    +0.002 A 
ATOM      6  C   UNL     1      -2.982   2.047  -3.276  0.00  0.00    +0.001 A 
ATOM      7  C   UNL     1      -2.044   2.957  -2.833  0.00  0.00    +0.015 A 
ATOM      8  C   UNL     1      -1.689   2.977  -1.487  0.00  0.00    +0.058 A 
ATOM      9  C   UNL     1      -0.695   3.929  -0.960  0.00  0.00    +0.250 C 
ATOM     10  O   UNL     1      -0.341   4.881  -1.629  0.00  0.00    -0.270 OA
ATOM     11  N   UNL     1      -0.183   3.734   0.273  0.00  0.00    -0.270 N 
ATOM     12  H   UNL     1      -2.518   1.865   1.440  0.00  0.00    +0.148 HD
ENDROOT
BRANCH   1  15
ATOM     13  C   UNL     1       1.149   2.237  -1.605  0.00  0.00    +0.068 C 
ATOM     14  C   UNL     1       1.174   1.298  -0.427  0.00  0.00    +0.067 A 
ATOM     15  C   UNL     1       0.432   1.440   0.751  0.00  0.00    +0.034 A 
ATOM     16  C   UNL     1       0.732   0.397   1.560  0.00  0.00    +0.043 A 
ATOM     17  N   UNL     1       1.631  -0.377   0.917  0.00  0.00    -0.264 N 
ATOM     18  N   UNL     1       1.893   0.209  -0.328  0.00  0.00    -0.176 NA
ATOM     19  C   UNL     1       0.163   0.145   2.932  0.00  0.00    +0.065 C 
BRANCH  17  20
ATOM     20  C   UNL     1       2.228  -1.613   1.430  0.00  0.00    +0.178 C 
BRANCH  20  21
ATOM     21  C   UNL     1       1.374  -2.787   1.029  0.00  0.00    -0.026 A 
ATOM     22  C   UNL     1       0.354  -3.215   1.858  0.00  0.00    +0.005 A 
ATOM     23  C   UNL     1      -0.433  -4.290   1.488  0.00  0.00    +0.000 A 
ATOM     24  C   UNL     1      -0.193  -4.943   0.293  0.00  0.00    +0.000 A 
ATOM     25  C   UNL     1       0.830  -4.518  -0.533  0.00  0.00    +0.000 A 
ATOM     26  C   UNL     1       1.614  -3.441  -0.166  0.00  0.00    +0.005 A 
ENDBRANCH  20  21
ENDBRANCH  17  20
ENDBRANCH   1  15
BRANCH  11  27
ATOM     27  C   UNL     1       0.743   4.722   0.832  0.00  0.00    +0.145 C 
BRANCH  27  28
ATOM     28  C   UNL     1       2.144   4.415   0.370  0.00  0.00    -0.026 A 
ATOM     29  C   UNL     1       2.648   5.029  -0.761  0.00  0.00    +0.009 A 
ATOM     30  C   UNL     1       3.934   4.750  -1.188  0.00  0.00    +0.050 A 
ATOM     31  C   UNL     1       4.720   3.854  -0.482  0.00  0.00    +0.166 A 
ATOM     32  C   UNL     1       4.212   3.235   0.658  0.00  0.00    +0.167 A 
ATOM     33  C   UNL     1       2.925   3.523   1.083  0.00  0.00    +0.054 A 
ATOM     34  O   UNL     1       5.169   2.406   1.167  0.00  0.00    -0.453 OA
ATOM     35  C   UNL     1       6.118   2.213   0.102  0.00  0.00    +0.466 C 
ATOM     36  O   UNL     1       5.995   3.412  -0.686  0.00  0.00    -0.453 OA
ENDBRANCH  27  28
ENDBRANCH  11  27
TORSDOF 5
