REMARK  Name = ZINC19213102
REMARK  6 active torsions:
REMARK  status: ('A' for Active; 'I' for Inactive)
REMARK    1  A    between atoms: C_1  and  C_2
REMARK    2  A    between atoms: C_7  and  N_8
REMARK    3  A    between atoms: C_9  and  C_11
REMARK    4  A    between atoms: C_11  and  S_12
REMARK    5  A    between atoms: S_12  and  C_13
REMARK    6  A    between atoms: C_13  and  C_14
REMARK                            x       y       z     vdW  Elec       q    Type
REMARK                         _______ _______ _______ _____ _____    ______ ____
ROOT
ATOM      1  C   UNL     1      -0.145   2.451  -6.816  0.00  0.00    +0.143 C 
ENDROOT
BRANCH   1   2
ATOM      2  C   UNL     1      -0.271   2.202  -5.335  0.00  0.00    +0.121 A 
ATOM      3  N   UNL     1       0.780   1.673  -4.656  0.00  0.00    -0.310 N 
ATOM      4  H   UNL     1       1.712   1.431  -5.188  0.00  0.00    +0.170 HD
ATOM      5  C   UNL     1       0.710   1.435  -3.333  0.00  0.00    +0.260 A 
ATOM      6  O   UNL     1       1.661   0.959  -2.737  0.00  0.00    -0.267 OA
ATOM      7  C   UNL     1      -0.503   1.750  -2.639  0.00  0.00    +0.075 A 
ATOM      8  C   UNL     1      -0.802   1.574  -1.210  0.00  0.00    -0.023 A 
ATOM      9  C   UNL     1      -2.024   1.949  -0.794  0.00  0.00    -0.004 A 
ATOM     10  S   UNL     1      -2.842   2.548  -2.255  0.00  0.00    -0.073 S 
ATOM     11  C   UNL     1      -1.531   2.291  -3.421  0.00  0.00    +0.116 A 
ATOM     12  N   UNL     1      -1.389   2.500  -4.728  0.00  0.00    -0.226 NA
ATOM     13  C   UNL     1      -2.215   1.728   0.682  0.00  0.00    +0.043 C 
ATOM     14  C   UNL     1      -0.782   1.559   1.238  0.00  0.00    +0.010 C 
ATOM     15  C   UNL     1      -0.027   1.040  -0.002  0.00  0.00    +0.037 C 
ENDBRANCH   1   2
BRANCH   1  16
ATOM     16  S   UNL     1      -1.694   3.156  -7.444  0.00  0.00    -0.144 S 
BRANCH  16  17
ATOM     17  C   UNL     1      -1.381   3.393  -9.216  0.00  0.00    +0.165 C 
BRANCH  17  19
ATOM     18  N   UNL     1      -2.605   4.245 -11.189  0.00  0.00    -0.285 N 
ATOM     19  C   UNL     1      -2.606   3.981  -9.867  0.00  0.00    +0.227 C 
ATOM     20  O   UNL     1      -3.592   4.218  -9.203  0.00  0.00    -0.275 OA
ATOM     21  H   UNL     1      -1.683   4.116 -11.775  0.00  0.00    +0.155 HD
BRANCH  18  28
ATOM     22  C   UNL     1      -2.362   5.757 -13.587  0.00  0.00    +0.045 C 
ATOM     23  C   UNL     1      -3.704   5.423 -12.989  0.00  0.00    -0.029 A 
ATOM     24  C   UNL     1      -4.863   5.853 -13.605  0.00  0.00    +0.005 A 
ATOM     25  C   UNL     1      -6.094   5.546 -13.057  0.00  0.00    +0.000 A 
ATOM     26  C   UNL     1      -6.170   4.808 -11.890  0.00  0.00    +0.002 A 
ATOM     27  C   UNL     1      -5.016   4.370 -11.271  0.00  0.00    +0.023 A 
ATOM     28  C   UNL     1      -3.777   4.682 -11.816  0.00  0.00    +0.036 A 
ENDBRANCH  18  28
ENDBRANCH  17  19
ENDBRANCH  16  17
ENDBRANCH   1  16
TORSDOF 5
