REMARK  Name = ZINC35556235
REMARK  7 active torsions:
REMARK  status: ('A' for Active; 'I' for Inactive)
REMARK    1  A    between atoms: C_1  and  C_2
REMARK    2  A    between atoms: C_2  and  C_3
REMARK    3  A    between atoms: C_12  and  C_13
REMARK    4  A    between atoms: C_13  and  C_15
REMARK    5  A    between atoms: C_13  and  C_28
REMARK    6  A    between atoms: C_15  and  C_16
REMARK    7  A    between atoms: C_32  and  N_34
REMARK                            x       y       z     vdW  Elec       q    Type
REMARK                         _______ _______ _______ _____ _____    ______ ____
ROOT
ATOM      1  C   UNL     1      -5.233  -1.635  -3.040  0.00  0.00    +0.060 C 
ENDROOT
BRANCH   1  11
ATOM      2  C   UNL     1      -1.412  -0.526   0.013  0.00  0.00    -0.024 A 
ATOM      3  C   UNL     1      -2.015  -0.863   1.205  0.00  0.00    +0.005 A 
ATOM      4  C   UNL     1      -3.316  -1.345   1.228  0.00  0.00    +0.001 A 
ATOM      5  C   UNL     1      -4.023  -1.492   0.067  0.00  0.00    +0.010 A 
ATOM      6  C   UNL     1      -3.432  -1.155  -1.151  0.00  0.00    +0.004 A 
ATOM      7  C   UNL     1      -2.114  -0.662  -1.180  0.00  0.00    +0.050 A 
ATOM      8  N   UNL     1      -1.802  -0.414  -2.498  0.00  0.00    -0.360 N 
ATOM      9  H   UNL     1      -0.952  -0.069  -2.814  0.00  0.00    +0.165 HD
ATOM     10  C   UNL     1      -2.869  -0.725  -3.295  0.00  0.00    +0.088 A 
ATOM     11  C   UNL     1      -3.883  -1.186  -2.545  0.00  0.00    -0.015 A 
BRANCH   2  13
ATOM     12  C   UNL     1      -0.019   1.526   0.010  0.00  0.00    +0.009 C 
ATOM     13  C   UNL     1       0.002  -0.004   0.002  0.00  0.00    +0.034 C 
ENDBRANCH   2  13
ENDBRANCH   1  11
BRANCH   1  14
ATOM     14  C   UNL     1      -5.908  -0.496  -3.761  0.00  0.00    -0.037 A 
ATOM     15  C   UNL     1      -5.316   0.062  -4.879  0.00  0.00    +0.004 A 
ATOM     16  C   UNL     1      -5.934   1.106  -5.540  0.00  0.00    +0.003 A 
ATOM     17  C   UNL     1      -7.146   1.592  -5.084  0.00  0.00    +0.033 A 
ATOM     18  C   UNL     1      -7.738   1.034  -3.967  0.00  0.00    +0.126 A 
ATOM     19  C   UNL     1      -7.121  -0.013  -3.308  0.00  0.00    +0.037 A 
BRANCH  18  20
ATOM     20  N   UNL     1      -9.034   1.555  -3.478  0.00  0.00    +0.056 N 
ATOM     21  O   UNL     1      -9.575   2.469  -4.056  0.00  0.00    -0.126 OA
ATOM     22  O   UNL     1      -9.552   1.066  -2.501  0.00  0.00    -0.126 OA
ENDBRANCH  18  20
ENDBRANCH   1  14
BRANCH   1  23
ATOM     23  C   UNL     1      -5.058  -2.814  -4.000  0.00  0.00    +0.109 C 
BRANCH  23  24
ATOM     24  C   UNL     1      -6.412  -3.341  -4.399  0.00  0.00    +0.217 C 
ATOM     25  O   UNL     1      -7.418  -2.825  -3.960  0.00  0.00    -0.276 OA
ATOM     26  N   UNL     1      -6.506  -4.386  -5.245  0.00  0.00    -0.297 N 
ATOM     27  C   UNL     1      -7.813  -4.922  -5.660  0.00  0.00    +0.113 C 
ATOM     28  C   UNL     1      -7.954  -4.702  -7.165  0.00  0.00    +0.054 C 
ATOM     29  C   UNL     1      -6.710  -5.144  -7.890  0.00  0.00    -0.041 A 
ATOM     30  C   UNL     1      -6.818  -5.415  -9.249  0.00  0.00    +0.004 A 
ATOM     31  C   UNL     1      -5.716  -5.815  -9.974  0.00  0.00    +0.000 A 
ATOM     32  C   UNL     1      -4.490  -5.946  -9.347  0.00  0.00    +0.000 A 
ATOM     33  C   UNL     1      -4.381  -5.681  -7.998  0.00  0.00    +0.005 A 
ATOM     34  C   UNL     1      -5.492  -5.285  -7.265  0.00  0.00    -0.027 A 
ATOM     35  C   UNL     1      -5.309  -5.033  -5.794  0.00  0.00    +0.143 C 
ENDBRANCH  23  24
ENDBRANCH   1  23
TORSDOF 6
