REMARK  Name = ZINC12293750
REMARK  7 active torsions:
REMARK  status: ('A' for Active; 'I' for Inactive)
REMARK    1  A    between atoms: C_1  and  C_2
REMARK    2  A    between atoms: C_7  and  C_8
REMARK    3  A    between atoms: C_15  and  C_16
REMARK    4  A    between atoms: C_15  and  N_56
REMARK    5  A    between atoms: C_16  and  C_18
REMARK    6  A    between atoms: C_16  and  O_25
REMARK    7  A    between atoms: C_27  and  O_29
REMARK                            x       y       z     vdW  Elec       q    Type
REMARK                         _______ _______ _______ _____ _____    ______ ____
ROOT
ATOM      1  C   UNL     1      -0.549   9.734  -3.887  0.00  0.00    +0.044 C 
ATOM      2  C   UNL     1      -0.344   8.246  -3.761  0.00  0.00    -0.047 A 
ATOM      3  C   UNL     1      -1.306   7.373  -4.231  0.00  0.00    +0.013 A 
ATOM      4  C   UNL     1      -1.123   6.005  -4.119  0.00  0.00    +0.023 A 
ATOM      5  C   UNL     1       0.029   5.510  -3.533  0.00  0.00    +0.127 A 
ATOM      6  C   UNL     1       0.995   6.392  -3.061  0.00  0.00    +0.049 A 
ATOM      7  C   UNL     1       0.808   7.755  -3.175  0.00  0.00    -0.044 A 
ATOM      8  C   UNL     1       1.857   8.706  -2.661  0.00  0.00    +0.044 C 
ATOM      9  O   UNL     1       0.251   4.176  -3.405  0.00  0.00    -0.485 OA
ATOM     10  C   UNL     1      -0.863   3.297  -3.551  0.00  0.00    +0.110 C 
ATOM     11  C   UNL     1      -0.373   1.852  -3.661  0.00  0.00    +0.029 C 
ATOM     12  C   UNL     1       0.329   1.454  -2.360  0.00  0.00    -0.075 C 
ATOM     13  C   UNL     1      -1.047   2.985  -1.081  0.00  0.00    -0.075 C 
ATOM     14  C   UNL     1      -1.791   3.429  -2.342  0.00  0.00    +0.029 C 
ATOM     15  C   UNL     1      -1.625   3.678  -4.825  0.00  0.00    +0.084 C 
ATOM     16  C   UNL     1      -2.198   5.085  -4.639  0.00  0.00    +0.152 C 
ATOM     17  N   UNL     1      -0.631   1.575  -1.242  0.00  0.00    +0.382 N 
ATOM     18  H   UNL     1      -1.459   1.005  -1.450  0.00  0.00    -0.082 HD
ENDROOT
BRANCH  16  19
ATOM     19  O   UNL     1      -2.675   5.573  -5.895  0.00  0.00    -0.387 OA
ATOM     20  H   UNL     1      -3.055   6.461  -5.853  0.00  0.00    +0.210 HD
ENDBRANCH  16  19
BRANCH  17  21
ATOM     21  C   UNL     1      -0.013   1.086   0.008  0.00  0.00    -0.042 C 
BRANCH  21  22
ATOM     22  C   UNL     1       0.201  -0.425  -0.107  0.00  0.00    +0.128 C 
BRANCH  22  23
ATOM     23  C   UNL     1       0.816  -0.944   1.167  0.00  0.00    -0.021 A 
ATOM     24  C   UNL     1       0.009  -1.267   2.243  0.00  0.00    +0.009 A 
ATOM     25  C   UNL     1       0.572  -1.747   3.410  0.00  0.00    +0.039 A 
ATOM     26  C   UNL     1       1.946  -1.894   3.506  0.00  0.00    +0.123 A 
ATOM     27  C   UNL     1       2.753  -1.565   2.430  0.00  0.00    +0.039 A 
ATOM     28  C   UNL     1       2.187  -1.090   1.262  0.00  0.00    +0.009 A 
ATOM     29  F   UNL     1       2.497  -2.359   4.648  0.00  0.00    -0.205 F 
ENDBRANCH  22  23
BRANCH  22  30
ATOM     30  O   UNL     1      -1.057  -1.068  -0.325  0.00  0.00    -0.389 OA
ATOM     31  H   UNL     1      -1.700  -0.924   0.383  0.00  0.00    +0.210 HD
ENDBRANCH  22  30
ENDBRANCH  21  22
ENDBRANCH  17  21
TORSDOF 5
