REMARK  Name = ZINC21087201
REMARK  10 active torsions:
REMARK  status: ('A' for Active; 'I' for Inactive)
REMARK    1  A    between atoms: C_1  and  C_2
REMARK    2  A    between atoms: C_2  and  C_3
REMARK    3  A    between atoms: C_2  and  C_4
REMARK    4  A    between atoms: C_2  and  C_5
REMARK    5  A    between atoms: C_8  and  C_11
REMARK    6  A    between atoms: C_14  and  S_17
REMARK    7  A    between atoms: N_15  and  N_16
REMARK    8  A    between atoms: S_17  and  C_18
REMARK    9  A    between atoms: C_18  and  C_19
REMARK   10  A    between atoms: N_21  and  C_22
REMARK                            x       y       z     vdW  Elec       q    Type
REMARK                         _______ _______ _______ _____ _____    ______ ____
ROOT
ATOM      1  C   UNL     1     -11.036   0.290   2.561  0.00  0.00    +0.182 A 
ATOM      2  N   UNL     1     -10.644  -0.373   1.498  0.00  0.00    -0.127 NA
ATOM      3  N   UNL     1      -9.374  -0.249   1.347  0.00  0.00    -0.121 NA
ATOM      4  C   UNL     1      -8.875   0.494   2.309  0.00  0.00    +0.209 A 
ATOM      5  N   UNL     1      -9.915   0.867   3.113  0.00  0.00    -0.224 N 
ENDROOT
BRANCH   1   9
ATOM      6  C   UNL     1     -15.013   0.602   4.019  0.00  0.00    -0.042 A 
ATOM      7  C   UNL     1     -14.050   1.498   4.447  0.00  0.00    +0.005 A 
ATOM      8  C   UNL     1     -12.756   1.403   3.978  0.00  0.00    +0.012 A 
ATOM      9  C   UNL     1     -12.420   0.399   3.068  0.00  0.00    +0.021 A 
ATOM     10  C   UNL     1     -13.397  -0.498   2.636  0.00  0.00    +0.012 A 
ATOM     11  C   UNL     1     -14.686  -0.395   3.117  0.00  0.00    +0.005 A 
BRANCH   6  13
ATOM     12  C   UNL     1     -16.998   2.081   4.164  0.00  0.00    +0.015 C 
ATOM     13  C   UNL     1     -16.424   0.713   4.536  0.00  0.00    -0.013 C 
ATOM     14  C   UNL     1     -17.284  -0.388   3.912  0.00  0.00    +0.015 C 
ATOM     15  C   UNL     1     -16.423   0.557   6.059  0.00  0.00    +0.015 C 
ENDBRANCH   6  13
ENDBRANCH   1   9
BRANCH   5  16
ATOM     16  N   UNL     1      -9.854   1.649   4.231  0.00  0.00    -0.295 N 
ATOM     17  H   UNL     1      -8.888   2.051   4.570  0.00  0.00    +0.163 HD
ATOM     18  H   UNL     1     -10.772   1.876   4.793  0.00  0.00    +0.163 HD
ENDBRANCH   5  16
BRANCH   4  19
ATOM     19  S   UNL     1      -7.182   0.935   2.518  0.00  0.00    -0.075 S 
BRANCH  19  20
ATOM     20  C   UNL     1      -6.457   0.082   1.097  0.00  0.00    +0.173 C 
BRANCH  20  21
ATOM     21  C   UNL     1      -4.970   0.324   1.071  0.00  0.00    +0.224 C 
ATOM     22  O   UNL     1      -4.451   1.007   1.929  0.00  0.00    -0.275 OA
ATOM     23  N   UNL     1      -4.216  -0.218   0.094  0.00  0.00    -0.309 N 
ATOM     24  H   UNL     1      -4.686  -0.837  -0.684  0.00  0.00    +0.149 HD
BRANCH  23  25
ATOM     25  C   UNL     1      -2.770   0.018   0.068  0.00  0.00    +0.035 C 
ATOM     26  C   UNL     1      -2.157  -0.704  -1.133  0.00  0.00    +0.029 C 
ATOM     27  C   UNL     1      -0.647  -0.458  -1.160  0.00  0.00    -0.008 C 
ATOM     28  C   UNL     1      -0.020  -0.992   0.130  0.00  0.00    +0.007 C 
ATOM     29  C   UNL     1      -0.634  -0.270   1.331  0.00  0.00    -0.008 C 
ATOM     30  C   UNL     1      -2.143  -0.516   1.358  0.00  0.00    +0.029 C 
ATOM     31  C   UNL     1      -0.363   1.231   1.217  0.00  0.00    +0.007 C 
ATOM     32  C   UNL     1      -0.990   1.765  -0.073  0.00  0.00    -0.008 C 
ATOM     33  C   UNL     1      -0.377   1.044  -1.275  0.00  0.00    +0.007 C 
ATOM     34  C   UNL     1      -2.500   1.519  -0.046  0.00  0.00    +0.029 C 
ENDBRANCH  23  25
ENDBRANCH  20  21
ENDBRANCH  19  20
ENDBRANCH   4  19
TORSDOF 7
