REMARK  Name = ZINC67379181
REMARK  9 active torsions:
REMARK  status: ('A' for Active; 'I' for Inactive)
REMARK    1  A    between atoms: C_1  and  C_2
REMARK    2  A    between atoms: C_2  and  C_3
REMARK    3  A    between atoms: C_2  and  C_4
REMARK    4  A    between atoms: C_2  and  O_5
REMARK    5  A    between atoms: O_5  and  C_6
REMARK    6  A    between atoms: C_12  and  C_15
REMARK    7  A    between atoms: C_15  and  N_16
REMARK    8  A    between atoms: C_21  and  C_23
REMARK    9  A    between atoms: C_23  and  N_24
REMARK                            x       y       z     vdW  Elec       q    Type
REMARK                         _______ _______ _______ _____ _____    ______ ____
ROOT
ATOM      1  N   UNL     1       5.938   1.972  -3.508  0.00  0.00    +0.383 N 
ATOM      2  C   UNL     1       5.875   1.400  -2.158  0.00  0.00    -0.078 C 
ATOM      3  C   UNL     1       6.325   2.445  -1.135  0.00  0.00    -0.019 C 
ATOM      4  C   UNL     1       7.764   2.868  -1.445  0.00  0.00    -0.003 C 
ATOM      5  C   UNL     1       7.832   3.395  -2.881  0.00  0.00    -0.014 C 
ATOM      6  C   UNL     1       7.326   2.314  -3.840  0.00  0.00    -0.051 C 
ATOM      7  H   UNL     1       5.369   2.805  -3.545  0.00  0.00    -0.081 HD
ENDROOT
BRANCH   1   8
ATOM      8  C   UNL     1       5.431   0.992  -4.478  0.00  0.00    -0.073 C 
BRANCH   8  15
ATOM      9  C   UNL     1       0.933   1.802  -2.949  0.00  0.00    +0.403 C 
ATOM     10  O   UNL     1       1.410   2.431  -2.025  0.00  0.00    -0.226 OA
ATOM     11  N   UNL     1       1.723   1.019  -3.711  0.00  0.00    -0.267 N 
ATOM     12  C   UNL     1       1.162   0.258  -4.835  0.00  0.00    +0.111 C 
ATOM     13  C   UNL     1       1.961   0.587  -6.100  0.00  0.00    +0.019 C 
ATOM     14  C   UNL     1       3.447   0.325  -5.843  0.00  0.00    +0.005 C 
ATOM     15  C   UNL     1       3.938   1.231  -4.712  0.00  0.00    -0.010 C 
ATOM     16  C   UNL     1       3.163   0.915  -3.435  0.00  0.00    +0.112 C 
BRANCH   9  17
ATOM     17  O   UNL     1      -0.384   1.889  -3.213  0.00  0.00    -0.445 OA
BRANCH  17  19
ATOM     18  C   UNL     1      -0.630   4.170  -2.453  0.00  0.00    +0.055 C 
ATOM     19  C   UNL     1      -1.161   2.737  -2.366  0.00  0.00    +0.107 C 
ATOM     20  C   UNL     1      -1.063   2.244  -0.921  0.00  0.00    +0.055 C 
ATOM     21  C   UNL     1      -2.623   2.708  -2.817  0.00  0.00    +0.055 C 
ENDBRANCH  17  19
ENDBRANCH   9  17
ENDBRANCH   8  15
ENDBRANCH   1   8
BRANCH   6  22
ATOM     22  C   UNL     1       7.393   2.836  -5.276  0.00  0.00    +0.090 C 
BRANCH  22  23
ATOM     23  N   UNL     1       6.431   3.929  -5.444  0.00  0.00    -0.301 N 
ATOM     24  C   UNL     1       6.298   4.531  -6.643  0.00  0.00    +0.297 C 
ATOM     25  O   UNL     1       6.974   4.166  -7.585  0.00  0.00    -0.253 OA
ATOM     26  N   UNL     1       5.413   5.536  -6.797  0.00  0.00    -0.313 N 
ATOM     27  H   UNL     1       5.891   4.220  -4.693  0.00  0.00    +0.150 HD
ATOM     28  H   UNL     1       4.873   5.827  -6.045  0.00  0.00    +0.146 HD
ATOM     29  H   UNL     1       5.317   5.969  -7.660  0.00  0.00    +0.146 HD
ENDBRANCH  22  23
ENDBRANCH   6  22
TORSDOF 6
