REMARK  Name = ZINC42342766
REMARK  6 active torsions:
REMARK  status: ('A' for Active; 'I' for Inactive)
REMARK    1  A    between atoms: C_1  and  C_2
REMARK    2  A    between atoms: C_5  and  S_9
REMARK    3  A    between atoms: S_9  and  N_12
REMARK    4  A    between atoms: C_15  and  C_18
REMARK    5  A    between atoms: C_18  and  C_19
REMARK    6  A    between atoms: C_18  and  C_20
REMARK                            x       y       z     vdW  Elec       q    Type
REMARK                         _______ _______ _______ _____ _____    ______ ____
ROOT
ATOM      1  S   UNL     1       0.062  -4.531  -0.025  0.00  0.00    +0.102 S 
ATOM      2  O   UNL     1      -0.953  -4.956   0.873  0.00  0.00    -0.146 OA
ATOM      3  O   UNL     1       0.088  -4.928  -1.389  0.00  0.00    -0.146 OA
ENDROOT
BRANCH   1   8
ATOM      4  C   UNL     1      -0.018   1.503   0.010  0.00  0.00    +0.044 C 
ATOM      5  C   UNL     1       0.002  -0.004   0.002  0.00  0.00    -0.049 A 
ATOM      6  C   UNL     1       0.006  -0.689  -1.199  0.00  0.00    +0.005 A 
ATOM      7  C   UNL     1       0.025  -2.071  -1.207  0.00  0.00    +0.030 A 
ATOM      8  C   UNL     1       0.040  -2.769  -0.015  0.00  0.00    +0.126 A 
ATOM      9  C   UNL     1       0.036  -2.085   1.187  0.00  0.00    +0.045 A 
ATOM     10  C   UNL     1       0.023  -0.701   1.195  0.00  0.00    +0.020 A 
ATOM     11 BR   UNL     1       0.056  -3.039   2.820  0.00  0.00    -0.048 Br
ENDBRANCH   1   8
BRANCH   1  12
ATOM     12  N   UNL     1       1.506  -5.006   0.633  0.00  0.00    -0.103 NA
ATOM     13  C   UNL     1       1.786  -6.281   0.747  0.00  0.00    +0.192 A 
ATOM     14  N   UNL     1       2.911  -6.885   1.264  0.00  0.00    -0.336 N 
ATOM     15  C   UNL     1       2.972  -8.248   1.274  0.00  0.00    +0.027 A 
ATOM     16  C   UNL     1       1.959  -8.968   0.791  0.00  0.00    +0.070 A 
ATOM     17  S   UNL     1       0.808  -7.701   0.281  0.00  0.00    -0.057 S 
ATOM     18  H   UNL     1       3.644  -6.354   1.612  0.00  0.00    +0.168 HD
BRANCH  15  19
ATOM     19  C   UNL     1       4.188  -8.942   1.831  0.00  0.00    +0.030 C 
ATOM     20  C   UNL     1       5.425  -8.522   1.035  0.00  0.00    +0.013 C 
ATOM     21  C   UNL     1       4.369  -8.552   3.300  0.00  0.00    +0.013 C 
ENDBRANCH  15  19
ENDBRANCH   1  12
TORSDOF 3
