REMARK  Name = ZINC61270419
REMARK  6 active torsions:
REMARK  status: ('A' for Active; 'I' for Inactive)
REMARK    1  A    between atoms: C_1  and  C_2
REMARK    2  A    between atoms: C_7  and  C_8
REMARK    3  A    between atoms: C_7  and  C_9
REMARK    4  A    between atoms: C_11  and  N_13
REMARK    5  A    between atoms: C_14  and  C_16
REMARK    6  A    between atoms: C_16  and  N_17
REMARK                            x       y       z     vdW  Elec       q    Type
REMARK                         _______ _______ _______ _____ _____    ______ ____
ROOT
ATOM      1  N   UNL     1      -0.124  -0.708  -2.377  0.00  0.00    -0.313 N 
ATOM      2  C   UNL     1      -0.275   0.393  -3.139  0.00  0.00    +0.197 C 
ATOM      3  O   UNL     1       0.308   1.416  -2.849  0.00  0.00    -0.278 OA
ATOM      4  H   UNL     1      -0.590  -1.527  -2.609  0.00  0.00    +0.149 HD
ENDROOT
BRANCH   1  14
ATOM      5  C   UNL     1      -0.267   1.301   0.200  0.00  0.00    +0.013 C 
ATOM      6  C   UNL     1      -0.061  -0.208   0.056  0.00  0.00    -0.008 C 
ATOM      7  C   UNL     1      -1.358  -1.075   0.051  0.00  0.00    +0.009 C 
ATOM      8  C   UNL     1      -0.877  -2.499   0.412  0.00  0.00    +0.005 C 
ATOM      9  C   UNL     1       0.665  -2.358   0.601  0.00  0.00    -0.003 C 
ATOM     10  C   UNL     1       0.753  -0.910   1.199  0.00  0.00    -0.025 C 
ATOM     11  C   UNL     1       0.048  -0.805   2.553  0.00  0.00    +0.012 C 
ATOM     12  C   UNL     1       2.195  -0.405   1.269  0.00  0.00    +0.012 C 
ATOM     13  C   UNL     1       1.215  -2.131  -0.840  0.00  0.00    +0.027 C 
ATOM     14  C   UNL     1       0.744  -0.669  -1.197  0.00  0.00    +0.080 C 
ENDBRANCH   1  14
BRANCH   2  15
ATOM     15  C   UNL     1      -1.167   0.353  -4.353  0.00  0.00    +0.019 C 
BRANCH  15  16
ATOM     16  N   UNL     1      -1.163   1.667  -5.008  0.00  0.00    +0.386 N 
ATOM     17  C   UNL     1      -2.187   1.673  -6.074  0.00  0.00    -0.077 C 
ATOM     18  C   UNL     1      -2.560   3.102  -6.381  0.00  0.00    -0.003 C 
ATOM     19  C   UNL     1      -1.730   3.675  -7.544  0.00  0.00    +0.079 C 
ATOM     20  N   UNL     1      -0.306   3.276  -7.468  0.00  0.00    -0.318 NA
ATOM     21  C   UNL     1       0.238   3.324  -6.130  0.00  0.00    +0.062 C 
ATOM     22  C   UNL     1       0.123   1.925  -5.494  0.00  0.00    -0.063 C 
ATOM     23  H   UNL     1      -0.163   2.368  -7.885  0.00  0.00    +0.122 HD
ATOM     24  H   UNL     1      -1.400   2.372  -4.325  0.00  0.00    -0.081 HD
ENDBRANCH  15  16
ENDBRANCH   2  15
TORSDOF 3
