REMARK  Name = ZINC06535838
REMARK  4 active torsions:
REMARK  status: ('A' for Active; 'I' for Inactive)
REMARK    1  A    between atoms: N_9  and  C_12
REMARK    2  A    between atoms: C_12  and  S_13
REMARK    3  A    between atoms: S_13  and  C_14
REMARK    4  A    between atoms: N_19  and  C_20
REMARK                            x       y       z     vdW  Elec       q    Type
REMARK                         _______ _______ _______ _____ _____    ______ ____
ROOT
ATOM      1  C   UNL     1       5.178  -2.764  -2.377  0.00  0.00    +0.161 A 
ATOM      2  N   UNL     1       5.617  -1.648  -1.827  0.00  0.00    -0.133 NA
ATOM      3  N   UNL     1       6.606  -0.921  -2.449  0.00  0.00    -0.125 NA
ATOM      4  C   UNL     1       7.110  -1.343  -3.592  0.00  0.00    +0.187 A 
ATOM      5  S   UNL     1       6.183  -2.848  -3.851  0.00  0.00    -0.024 S 
ATOM      6  N   UNL     1       8.102  -0.772  -4.381  0.00  0.00    -0.290 N 
ATOM      7  H   UNL     1       8.312  -1.154  -5.248  0.00  0.00    +0.154 HD
ENDROOT
BRANCH   6   8
ATOM      8  C   UNL     1       8.797   0.352  -3.926  0.00  0.00    +0.068 A 
ATOM      9  C   UNL     1       8.631   0.792  -2.619  0.00  0.00    +0.026 A 
ATOM     10  C   UNL     1       9.319   1.903  -2.172  0.00  0.00    +0.002 A 
ATOM     11  C   UNL     1      10.173   2.579  -3.024  0.00  0.00    +0.003 A 
ATOM     12  C   UNL     1      10.343   2.145  -4.326  0.00  0.00    +0.040 A 
ATOM     13  C   UNL     1       9.662   1.030  -4.779  0.00  0.00    +0.144 A 
ATOM     14  F   UNL     1       9.832   0.603  -6.049  0.00  0.00    -0.204 F 
ENDBRANCH   6   8
BRANCH   1  15
ATOM     15  S   UNL     1       3.938  -3.878  -1.806  0.00  0.00    -0.077 S 
BRANCH  15  16
ATOM     16  C   UNL     1       3.364  -3.137  -0.253  0.00  0.00    +0.193 C 
BRANCH  16  25
ATOM     17  C   UNL     1      -0.698   1.224  -1.480  0.00  0.00    +0.001 A 
ATOM     18  C   UNL     1       0.414   2.045  -1.461  0.00  0.00    +0.001 A 
ATOM     19  C   UNL     1       1.672   1.520  -1.210  0.00  0.00    +0.014 A 
ATOM     20  C   UNL     1       1.815   0.162  -0.978  0.00  0.00    +0.049 A 
ATOM     21  C   UNL     1       0.681  -0.676  -0.997  0.00  0.00    +0.049 A 
ATOM     22  C   UNL     1      -0.570  -0.137  -1.249  0.00  0.00    +0.014 A 
ATOM     23  C   UNL     1       1.181  -2.039  -0.716  0.00  0.00    +0.255 C 
ATOM     24  O   UNL     1       0.501  -3.043  -0.650  0.00  0.00    -0.270 OA
ATOM     25  N   UNL     1       2.514  -1.980  -0.548  0.00  0.00    -0.224 N 
ATOM     26  C   UNL     1       2.965  -0.720  -0.686  0.00  0.00    +0.255 C 
ATOM     27  O   UNL     1       4.122  -0.367  -0.588  0.00  0.00    -0.270 OA
ENDBRANCH  16  25
ENDBRANCH  15  16
ENDBRANCH   1  15
TORSDOF 4
