REMARK  Name = ZINC09752673
REMARK  4 active torsions:
REMARK  status: ('A' for Active; 'I' for Inactive)
REMARK    1  A    between atoms: C_1  and  C_2
REMARK    2  A    between atoms: C_4  and  N_9
REMARK    3  A    between atoms: C_16  and  C_27
REMARK    4  A    between atoms: C_21  and  N_24
REMARK                            x       y       z     vdW  Elec       q    Type
REMARK                         _______ _______ _______ _____ _____    ______ ____
ROOT
ATOM      1  N   UNL     1       0.543  -0.474  -1.270  0.00  0.00    -0.216 N 
ATOM      2  C   UNL     1       0.342  -1.740  -1.646  0.00  0.00    +0.310 C 
ATOM      3  O   UNL     1       1.018  -2.203  -2.544  0.00  0.00    -0.252 OA
ATOM      4  N   UNL     1      -0.583  -2.522  -1.064  0.00  0.00    -0.292 N 
ATOM      5  C   UNL     1      -1.360  -2.009   0.077  0.00  0.00    +0.114 C 
ATOM      6  C   UNL     1      -1.643  -0.521  -0.187  0.00  0.00    +0.096 C 
ATOM      7  C   UNL     1      -0.282   0.185  -0.262  0.00  0.00    +0.185 C 
ATOM      8  O   UNL     1       0.336   0.122   1.021  0.00  0.00    -0.468 OA
ATOM      9  C   UNL     1       0.317  -1.055   1.698  0.00  0.00    +0.128 A 
ATOM     10  C   UNL     1      -0.483  -2.114   1.304  0.00  0.00    +0.017 A 
ATOM     11  C   UNL     1      -0.482  -3.292   2.028  0.00  0.00    +0.041 A 
ATOM     12  C   UNL     1       0.322  -3.420   3.145  0.00  0.00    +0.127 A 
ATOM     13  C   UNL     1       1.128  -2.368   3.539  0.00  0.00    +0.036 A 
ATOM     14  C   UNL     1       1.127  -1.189   2.821  0.00  0.00    +0.048 A 
ATOM     15  C   UNL     1      -0.490   1.649  -0.653  0.00  0.00    +0.079 C 
ATOM     16  H   UNL     1      -0.738  -3.421  -1.393  0.00  0.00    +0.151 HD
ENDROOT
BRANCH   1  20
ATOM     17  C   UNL     1       5.190   1.129  -1.181  0.00  0.00    +0.045 C 
ATOM     18  C   UNL     1       3.844   1.038  -1.852  0.00  0.00    -0.035 A 
ATOM     19  C   UNL     1       2.819   0.333  -1.252  0.00  0.00    +0.028 A 
ATOM     20  C   UNL     1       1.581   0.245  -1.874  0.00  0.00    +0.042 A 
ATOM     21  C   UNL     1       1.373   0.877  -3.093  0.00  0.00    +0.025 A 
ATOM     22  C   UNL     1       2.398   1.586  -3.686  0.00  0.00    +0.017 A 
ATOM     23  C   UNL     1       3.633   1.667  -3.067  0.00  0.00    +0.021 A 
ATOM     24 BR   UNL     1       5.036   2.638  -3.882  0.00  0.00    -0.050 Br
ENDBRANCH   1  20
BRANCH  12  25
ATOM     25  N   UNL     1       0.321  -4.682   3.918  0.00  0.00    +0.056 N 
ATOM     26  O   UNL     1      -0.388  -5.609   3.570  0.00  0.00    -0.126 OA
ATOM     27  O   UNL     1       1.030  -4.794   4.902  0.00  0.00    -0.126 OA
ENDBRANCH  12  25
TORSDOF 2
