REMARK  Name = ZINC37494751
REMARK  3 active torsions:
REMARK  status: ('A' for Active; 'I' for Inactive)
REMARK    1  A    between atoms: C_6  and  C_7
REMARK    2  A    between atoms: N_9  and  C_10
REMARK    3  A    between atoms: C_11  and  C_20
REMARK                            x       y       z     vdW  Elec       q    Type
REMARK                         _______ _______ _______ _____ _____    ______ ____
ROOT
ATOM      1  C   UNL     1      -2.112  -3.059   0.007  0.00  0.00    +0.090 A 
ATOM      2  C   UNL     1      -2.135  -4.442   0.006  0.00  0.00    +0.084 A 
ATOM      3  C   UNL     1      -3.438  -5.091   0.014  0.00  0.00    -0.018 A 
ATOM      4  C   UNL     1      -4.477  -4.230   0.016  0.00  0.00    -0.004 A 
ATOM      5  S   UNL     1      -3.732  -2.623   0.026  0.00  0.00    -0.077 S 
ATOM      6  C   UNL     1      -5.938  -4.559   0.005  0.00  0.00    +0.043 C 
ATOM      7  C   UNL     1      -6.224  -5.612   1.084  0.00  0.00    +0.005 C 
ATOM      8  C   UNL     1      -6.053  -6.998   0.469  0.00  0.00    +0.001 C 
ATOM      9  C   UNL     1      -4.957  -6.972  -0.594  0.00  0.00    +0.005 C 
ATOM     10  C   UNL     1      -3.615  -6.602   0.032  0.00  0.00    +0.037 C 
ENDROOT
BRANCH   1  13
ATOM     11  C   UNL     1      -1.169  -0.886   0.009  0.00  0.00    +0.265 C 
ATOM     12  O   UNL     1      -2.289  -0.411   0.023  0.00  0.00    -0.268 OA
ATOM     13  N   UNL     1      -1.004  -2.224   0.000  0.00  0.00    -0.274 N 
ATOM     14  H   UNL     1      -0.111  -2.603  -0.011  0.00  0.00    +0.156 HD
BRANCH  11  20
ATOM     15  C   UNL     1      -0.017   1.375   0.010  0.00  0.00    +0.047 A 
ATOM     16  C   UNL     1       1.315   1.804  -0.001  0.00  0.00    +0.036 A 
ATOM     17  C   UNL     1       2.106   0.704  -0.014  0.00  0.00    +0.098 A 
ATOM     18  N   UNL     1       1.320  -0.401  -0.013  0.00  0.00    -0.356 N 
ATOM     19  H   UNL     1       1.634  -1.319  -0.021  0.00  0.00    +0.165 HD
ATOM     20  C   UNL     1       0.002  -0.004   0.002  0.00  0.00    +0.103 A 
ATOM     21 BR   UNL     1       1.905   3.601   0.003  0.00  0.00    -0.049 Br
ENDBRANCH  11  20
ENDBRANCH   1  13
BRANCH   2  22
ATOM     22  C   UNL     1      -0.923  -5.206  -0.004  0.00  0.00    +0.102 C 
ATOM     23  N   UNL     1       0.037  -5.812  -0.012  0.00  0.00    -0.191 NA
ENDBRANCH   2  22
TORSDOF 3
