REMARK  Name = ZINC09342338
REMARK  10 active torsions:
REMARK  status: ('A' for Active; 'I' for Inactive)
REMARK    1  A    between atoms: C_1  and  C_2
REMARK    2  A    between atoms: C_5  and  O_37
REMARK    3  A    between atoms: C_6  and  N_8
REMARK    4  A    between atoms: C_10  and  C_15
REMARK    5  A    between atoms: N_17  and  C_18
REMARK    6  A    between atoms: C_21  and  C_25
REMARK    7  A    between atoms: C_23  and  C_24
REMARK    8  A    between atoms: C_25  and  C_27
REMARK    9  A    between atoms: C_25  and  C_29
REMARK   10  A    between atoms: O_37  and  C_38
REMARK                            x       y       z     vdW  Elec       q    Type
REMARK                         _______ _______ _______ _____ _____    ______ ____
ROOT
ATOM      1  C   UNL     1       5.554   1.050  -5.697  0.00  0.00    +0.222 C 
ATOM      2  O   UNL     1       5.149  -0.068  -5.458  0.00  0.00    -0.275 OA
ATOM      3  N   UNL     1       5.400   2.031  -4.787  0.00  0.00    -0.285 N 
ATOM      4  H   UNL     1       5.775   2.910  -4.953  0.00  0.00    +0.155 HD
ENDROOT
BRANCH   3   5
ATOM      5  C   UNL     1       4.699   1.782  -3.601  0.00  0.00    +0.038 A 
ATOM      6  C   UNL     1       4.662   0.499  -3.072  0.00  0.00    +0.044 A 
ATOM      7  C   UNL     1       3.974   0.258  -1.898  0.00  0.00    +0.047 A 
ATOM      8  C   UNL     1       3.313   1.291  -1.257  0.00  0.00    -0.008 A 
ATOM      9  C   UNL     1       3.348   2.569  -1.783  0.00  0.00    +0.011 A 
ATOM     10  C   UNL     1       4.040   2.818  -2.953  0.00  0.00    -0.029 A 
ATOM     11  C   UNL     1       4.077   4.211  -3.525  0.00  0.00    +0.045 C 
ATOM     12 CL   UNL     1       3.933  -1.344  -1.230  0.00  0.00    -0.083 Cl
BRANCH   8  13
ATOM     13  C   UNL     1       2.558   1.024   0.020  0.00  0.00    +0.153 C 
BRANCH  13  14
ATOM     14  C   UNL     1       1.084   1.233  -0.215  0.00  0.00    -0.026 A 
ATOM     15  C   UNL     1       0.220   0.154  -0.187  0.00  0.00    +0.006 A 
ATOM     16  C   UNL     1      -1.131   0.344  -0.407  0.00  0.00    +0.020 A 
ATOM     17  C   UNL     1      -1.620   1.617  -0.646  0.00  0.00    +0.041 A 
ATOM     18  C   UNL     1      -0.755   2.696  -0.673  0.00  0.00    +0.020 A 
ATOM     19  C   UNL     1       0.597   2.503  -0.458  0.00  0.00    +0.006 A 
ATOM     20 CL   UNL     1      -3.318   1.857  -0.917  0.00  0.00    -0.084 Cl
ENDBRANCH  13  14
BRANCH  13  21
ATOM     21  C   UNL     1       3.024   1.946   1.068  0.00  0.00    +0.075 C 
ATOM     22  N   UNL     1       3.383   2.659   1.876  0.00  0.00    -0.196 NA
ENDBRANCH  13  21
ENDBRANCH   8  13
ENDBRANCH   3   5
BRANCH   1  25
ATOM     23  N   UNL     1       7.591  -0.542  -7.598  0.00  0.00    -0.267 N 
ATOM     24  C   UNL     1       6.293   0.075  -7.894  0.00  0.00    +0.127 C 
ATOM     25  C   UNL     1       6.228   1.342  -7.013  0.00  0.00    +0.102 C 
ATOM     26  C   UNL     1       7.727   1.660  -6.808  0.00  0.00    +0.110 C 
ATOM     27  C   UNL     1       8.418   0.327  -6.993  0.00  0.00    +0.221 C 
ATOM     28  O   UNL     1       9.554   0.079  -6.645  0.00  0.00    -0.275 OA
BRANCH  23  34
ATOM     29  C   UNL     1       9.460  -3.811 -10.760  0.00  0.00    +0.044 C 
ATOM     30  C   UNL     1       8.832  -3.481  -9.431  0.00  0.00    -0.048 A 
ATOM     31  C   UNL     1       8.586  -4.488  -8.515  0.00  0.00    +0.007 A 
ATOM     32  C   UNL     1       8.010  -4.191  -7.294  0.00  0.00    +0.048 A 
ATOM     33  C   UNL     1       7.683  -2.882  -6.982  0.00  0.00    +0.141 A 
ATOM     34  C   UNL     1       7.925  -1.868  -7.906  0.00  0.00    +0.078 A 
ATOM     35  C   UNL     1       8.503  -2.173  -9.129  0.00  0.00    +0.030 A 
BRANCH  33  36
ATOM     36  O   UNL     1       7.122  -2.587  -5.778  0.00  0.00    -0.493 OA
ATOM     37  C   UNL     1       6.903  -3.678  -4.881  0.00  0.00    +0.277 C 
ENDBRANCH  33  36
ENDBRANCH  23  34
ENDBRANCH   1  25
TORSDOF 7
