REMARK  Name = ZINC59474782
REMARK  8 active torsions:
REMARK  status: ('A' for Active; 'I' for Inactive)
REMARK    1  A    between atoms: C_4  and  O_32
REMARK    2  A    between atoms: C_5  and  C_7
REMARK    3  A    between atoms: N_8  and  C_9
REMARK    4  A    between atoms: C_16  and  S_18
REMARK    5  A    between atoms: S_18  and  C_19
REMARK    6  A    between atoms: C_19  and  C_20
REMARK    7  A    between atoms: N_22  and  C_23
REMARK    8  A    between atoms: C_28  and  N_29
REMARK                            x       y       z     vdW  Elec       q    Type
REMARK                         _______ _______ _______ _____ _____    ______ ____
ROOT
ATOM      1  C   UNL     1       2.480  -4.152   0.065  0.00  0.00    +0.065 A 
ATOM      2  C   UNL     1       1.646  -4.888   0.917  0.00  0.00    +0.030 A 
ATOM      3  C   UNL     1       1.648  -6.245   0.911  0.00  0.00    +0.031 A 
ATOM      4  C   UNL     1       2.495  -6.971   0.039  0.00  0.00    +0.080 A 
ATOM      5  C   UNL     1       3.327  -6.205  -0.812  0.00  0.00    +0.042 A 
ATOM      6  C   UNL     1       3.326  -4.836  -0.813  0.00  0.00    +0.045 A 
ATOM      7  S   UNL     1       4.203  -7.460  -1.716  0.00  0.00    -0.061 S 
ATOM      8  C   UNL     1       3.437  -8.874  -0.936  0.00  0.00    +0.136 A 
ATOM      9  N   UNL     1       2.609  -8.310  -0.084  0.00  0.00    -0.233 NA
ENDROOT
BRANCH   1  11
ATOM     10  C   UNL     1       1.325  -2.147   0.118  0.00  0.00    +0.123 C 
ATOM     11  N   UNL     1       2.462  -2.784   0.088  0.00  0.00    -0.255 NA
BRANCH  10  16
ATOM     12  C   UNL     1       0.079   1.388   0.197  0.00  0.00    +0.001 A 
ATOM     13  C   UNL     1       1.269   2.096   0.188  0.00  0.00    +0.004 A 
ATOM     14  C   UNL     1       2.479   1.430   0.157  0.00  0.00    +0.046 A 
ATOM     15  C   UNL     1       2.510   0.045   0.134  0.00  0.00    +0.125 A 
ATOM     16  C   UNL     1       1.306  -0.677   0.143  0.00  0.00    +0.034 A 
ATOM     17  C   UNL     1       0.089   0.011   0.175  0.00  0.00    +0.013 A 
BRANCH  15  18
ATOM     18  O   UNL     1       3.697  -0.611   0.103  0.00  0.00    -0.506 OA
ATOM     19  H   UNL     1       4.057  -0.815   0.977  0.00  0.00    +0.292 HD
ENDBRANCH  15  18
ENDBRANCH  10  16
ENDBRANCH   1  11
BRANCH   8  20
ATOM     20  S   UNL     1       3.719 -10.588  -1.233  0.00  0.00    -0.089 S 
BRANCH  20  21
ATOM     21  C   UNL     1       2.595 -11.424  -0.082  0.00  0.00    +0.172 C 
BRANCH  21  22
ATOM     22  C   UNL     1       2.737 -12.916  -0.235  0.00  0.00    +0.228 C 
ATOM     23  O   UNL     1       3.521 -13.371  -1.042  0.00  0.00    -0.275 OA
ATOM     24  N   UNL     1       1.994 -13.746   0.524  0.00  0.00    -0.283 N 
ATOM     25  H   UNL     1       1.416 -13.384   1.214  0.00  0.00    +0.155 HD
BRANCH  24  26
ATOM     26  C   UNL     1       2.058 -15.128   0.318  0.00  0.00    +0.064 A 
ATOM     27  C   UNL     1       3.258 -15.723  -0.049  0.00  0.00    +0.025 A 
ATOM     28  C   UNL     1       3.317 -17.088  -0.253  0.00  0.00    +0.002 A 
ATOM     29  C   UNL     1       2.182 -17.862  -0.091  0.00  0.00    +0.002 A 
ATOM     30  C   UNL     1       0.986 -17.273   0.273  0.00  0.00    +0.034 A 
ATOM     31  C   UNL     1       0.922 -15.909   0.484  0.00  0.00    +0.147 A 
BRANCH  31  32
ATOM     32  N   UNL     1      -0.358 -15.280   0.881  0.00  0.00    +0.058 N 
ATOM     33  O   UNL     1      -1.322 -15.970   1.121  0.00  0.00    -0.126 OA
ATOM     34  O   UNL     1      -0.440 -14.077   0.966  0.00  0.00    -0.126 OA
ENDBRANCH  31  32
ENDBRANCH  24  26
ENDBRANCH  21  22
ENDBRANCH  20  21
ENDBRANCH   8  20
TORSDOF 8
