REMARK  Name = ZINC32899480
REMARK  11 active torsions:
REMARK  status: ('A' for Active; 'I' for Inactive)
REMARK    1  A    between atoms: C_1  and  C_2
REMARK    2  A    between atoms: N_5  and  C_11
REMARK    3  A    between atoms: C_7  and  C_10
REMARK    4  A    between atoms: C_11  and  C_12
REMARK    5  A    between atoms: C_12  and  C_13
REMARK    6  A    between atoms: C_13  and  N_14
REMARK    7  A    between atoms: N_14  and  C_15
REMARK    8  A    between atoms: C_18  and  S_24
REMARK    9  A    between atoms: C_20  and  N_21
REMARK   10  A    between atoms: S_24  and  N_27
REMARK   11  A    between atoms: N_27  and  C_28
REMARK                            x       y       z     vdW  Elec       q    Type
REMARK                         _______ _______ _______ _____ _____    ______ ____
ROOT
ATOM      1  C   UNL     1       0.453   1.369  -1.911  0.00  0.00    +0.058 A 
ATOM      2  C   UNL     1       1.471   0.494  -2.271  0.00  0.00    +0.027 A 
ATOM      3  C   UNL     1       1.681   0.193  -3.602  0.00  0.00    +0.031 A 
ATOM      4  C   UNL     1       0.886   0.768  -4.577  0.00  0.00    +0.111 A 
ATOM      5  C   UNL     1      -0.124   1.643  -4.222  0.00  0.00    +0.063 A 
ATOM      6  C   UNL     1      -0.343   1.945  -2.892  0.00  0.00    +0.149 A 
ENDROOT
BRANCH   6   7
ATOM      7  N   UNL     1      -1.425   2.881  -2.513  0.00  0.00    +0.058 N 
ATOM      8  O   UNL     1      -2.478   2.874  -3.125  0.00  0.00    -0.126 OA
ATOM      9  O   UNL     1      -1.262   3.658  -1.589  0.00  0.00    -0.126 OA
ENDBRANCH   6   7
BRANCH   4  10
ATOM     10  S   UNL     1       1.161   0.386  -6.275  0.00  0.00    +0.072 S 
ATOM     11  O   UNL     1       1.811  -0.878  -6.306  0.00  0.00    -0.150 OA
ATOM     12  O   UNL     1      -0.065   0.629  -6.950  0.00  0.00    -0.150 OA
BRANCH  10  13
ATOM     13  N   UNL     1       2.249   1.491  -6.856  0.00  0.00    -0.215 N 
ATOM     14  H   UNL     1       1.969   2.152  -7.690  0.00  0.00    +0.174 HD
BRANCH  13  15
ATOM     15  C   UNL     1       3.522   1.585  -6.287  0.00  0.00    +0.066 A 
ATOM     16  C   UNL     1       4.167   0.442  -5.833  0.00  0.00    +0.026 A 
ATOM     17  C   UNL     1       5.428   0.537  -5.276  0.00  0.00    +0.002 A 
ATOM     18  C   UNL     1       6.043   1.770  -5.159  0.00  0.00    +0.002 A 
ATOM     19  C   UNL     1       5.401   2.912  -5.604  0.00  0.00    +0.022 A 
ATOM     20  C   UNL     1       4.142   2.823  -6.168  0.00  0.00    +0.063 A 
ATOM     21 CL   UNL     1       3.337   4.256  -6.725  0.00  0.00    -0.082 Cl
ENDBRANCH  13  15
ENDBRANCH  10  13
ENDBRANCH   4  10
BRANCH   1  22
ATOM     22  N   UNL     1       0.235   1.671  -0.565  0.00  0.00    -0.342 N 
ATOM     23  H   UNL     1      -0.517   2.424  -0.286  0.00  0.00    +0.146 HD
BRANCH  22  24
ATOM     24  C   UNL     1       1.007   0.986   0.475  0.00  0.00    +0.103 C 
BRANCH  24  25
ATOM     25  C   UNL     1       0.576   1.498   1.851  0.00  0.00    +0.034 C 
BRANCH  25  26
ATOM     26  C   UNL     1       1.382   0.783   2.937  0.00  0.00    +0.086 C 
BRANCH  26  30
ATOM     27  C   UNL     1      -2.405   1.876   5.885  0.00  0.00    +0.039 C 
ATOM     28  C   UNL     1      -0.882   1.896   5.733  0.00  0.00    +0.130 C 
ATOM     29  C   UNL     1      -0.496   1.323   4.367  0.00  0.00    +0.115 C 
ATOM     30  N   UNL     1       0.969   1.275   4.258  0.00  0.00    -0.297 NA
ATOM     31  C   UNL     1       1.544   0.451   5.330  0.00  0.00    +0.115 C 
ATOM     32  C   UNL     1       1.138   1.032   6.687  0.00  0.00    +0.130 C 
ATOM     33  O   UNL     1      -0.289   1.101   6.763  0.00  0.00    -0.371 OA
ATOM     34  C   UNL     1       1.667   0.134   7.807  0.00  0.00    +0.039 C 
ENDBRANCH  26  30
ENDBRANCH  25  26
ENDBRANCH  24  25
ENDBRANCH  22  24
ENDBRANCH   1  22
TORSDOF 9
