REMARK  Name = ZINC02576539
REMARK  12 active torsions:
REMARK  status: ('A' for Active; 'I' for Inactive)
REMARK    1  A    between atoms: C_1  and  C_2
REMARK    2  A    between atoms: C_5  and  C_8
REMARK    3  A    between atoms: N_10  and  C_11
REMARK    4  A    between atoms: C_11  and  C_22
REMARK    5  A    between atoms: C_12  and  C_13
REMARK    6  A    between atoms: C_16  and  C_19
REMARK    7  A    between atoms: C_19  and  C_20
REMARK    8  A    between atoms: C_19  and  C_21
REMARK    9  A    between atoms: N_24  and  C_25
REMARK   10  A    between atoms: C_26  and  C_38
REMARK   11  A    between atoms: N_27  and  C_37
REMARK   12  A    between atoms: N_28  and  C_31
REMARK                            x       y       z     vdW  Elec       q    Type
REMARK                         _______ _______ _______ _____ _____    ______ ____
ROOT
ATOM      1  C   UNL     1      -2.649   4.377   5.061  0.00  0.00    +0.097 C 
ATOM      2  C   UNL     1      -2.462   3.069   4.771  0.00  0.00    +0.036 C 
ENDROOT
BRANCH   2   3
ATOM      3  C   UNL     1      -1.711   2.683   3.566  0.00  0.00    -0.023 A 
ATOM      4  C   UNL     1      -1.974   1.462   2.935  0.00  0.00    +0.008 A 
ATOM      5  C   UNL     1      -1.267   1.107   1.806  0.00  0.00    +0.004 A 
ATOM      6  C   UNL     1      -0.299   1.956   1.296  0.00  0.00    -0.045 A 
ATOM      7  C   UNL     1      -0.030   3.163   1.917  0.00  0.00    +0.004 A 
ATOM      8  C   UNL     1      -0.732   3.534   3.044  0.00  0.00    +0.008 A 
BRANCH   6   9
ATOM      9  C   UNL     1       0.469   1.560   0.061  0.00  0.00    +0.013 C 
ATOM     10  C   UNL     1       1.944   1.371   0.417  0.00  0.00    +0.012 C 
ATOM     11  C   UNL     1       0.336   2.659  -0.996  0.00  0.00    +0.012 C 
ENDBRANCH   6   9
ENDBRANCH   2   3
BRANCH   1  14
ATOM     12  C   UNL     1      -3.510   6.039   6.526  0.00  0.00    +0.248 C 
ATOM     13  O   UNL     1      -3.388   6.866   5.643  0.00  0.00    -0.270 OA
ATOM     14  N   UNL     1      -3.209   4.748   6.286  0.00  0.00    -0.277 N 
ATOM     15  H   UNL     1      -3.381   4.075   6.964  0.00  0.00    +0.155 HD
BRANCH  12  20
ATOM     16  C   UNL     1      -5.376   7.640  11.729  0.00  0.00    +0.044 C 
ATOM     17  C   UNL     1      -4.887   7.221  10.367  0.00  0.00    -0.050 A 
ATOM     18  C   UNL     1      -4.748   8.165   9.364  0.00  0.00    +0.004 A 
ATOM     19  C   UNL     1      -4.301   7.787   8.115  0.00  0.00    +0.013 A 
ATOM     20  C   UNL     1      -3.989   6.451   7.863  0.00  0.00    +0.037 A 
ATOM     21  C   UNL     1      -4.136   5.503   8.877  0.00  0.00    +0.013 A 
ATOM     22  C   UNL     1      -4.579   5.894  10.123  0.00  0.00    +0.004 A 
ENDBRANCH  12  20
ENDBRANCH   1  14
BRANCH   1  23
ATOM     23  C   UNL     1      -2.264   5.408   4.086  0.00  0.00    +0.263 C 
ATOM     24  O   UNL     1      -1.362   6.183   4.345  0.00  0.00    -0.268 OA
ATOM     25  N   UNL     1      -2.909   5.495   2.906  0.00  0.00    -0.275 N 
ATOM     26  H   UNL     1      -3.681   4.934   2.733  0.00  0.00    +0.155 HD
BRANCH  25  27
ATOM     27  C   UNL     1      -2.463   6.401   1.925  0.00  0.00    +0.122 A 
ATOM     28  C   UNL     1      -3.091   6.702   0.766  0.00  0.00    +0.059 A 
ATOM     29  N   UNL     1      -2.340   7.625   0.088  0.00  0.00    -0.282 N 
ATOM     30  N   UNL     1      -1.191   7.918   0.833  0.00  0.00    -0.216 N 
ATOM     31  C   UNL     1      -1.229   7.188   1.966  0.00  0.00    +0.293 A 
ATOM     32  O   UNL     1      -0.397   7.184   2.855  0.00  0.00    -0.264 OA
ATOM     33  C   UNL     1      -2.681   8.209  -1.211  0.00  0.00    +0.171 C 
ATOM     34  C   UNL     1      -4.401   6.120   0.299  0.00  0.00    +0.067 C 
BRANCH  30  35
ATOM     35  C   UNL     1      -0.181   8.813   0.466  0.00  0.00    +0.067 A 
ATOM     36  C   UNL     1       0.066   9.071  -0.876  0.00  0.00    +0.028 A 
ATOM     37  C   UNL     1       1.061   9.959  -1.236  0.00  0.00    +0.002 A 
ATOM     38  C   UNL     1       1.819  10.582  -0.261  0.00  0.00    +0.000 A 
ATOM     39  C   UNL     1       1.580  10.322   1.076  0.00  0.00    +0.002 A 
ATOM     40  C   UNL     1       0.582   9.440   1.442  0.00  0.00    +0.028 A 
ENDBRANCH  30  35
ENDBRANCH  25  27
ENDBRANCH   1  23
TORSDOF 7
