REMARK  Name = ZINC19973209
REMARK  12 active torsions:
REMARK  status: ('A' for Active; 'I' for Inactive)
REMARK    1  A    between atoms: C_1  and  C_2
REMARK    2  A    between atoms: C_6  and  N_9
REMARK    3  A    between atoms: C_7  and  C_8
REMARK    4  A    between atoms: N_12  and  C_15
REMARK    5  A    between atoms: C_15  and  C_17
REMARK    6  A    between atoms: C_15  and  C_31
REMARK    7  A    between atoms: C_21  and  C_30
REMARK    8  A    between atoms: C_22  and  C_29
REMARK    9  A    between atoms: N_35  and  C_36
REMARK   10  A    between atoms: C_36  and  C_37
REMARK   11  A    between atoms: C_37  and  O_38
REMARK   12  A    between atoms: O_38  and  C_39
REMARK                            x       y       z     vdW  Elec       q    Type
REMARK                         _______ _______ _______ _____ _____    ______ ____
ROOT
ATOM      1  C   UNL     1      -4.986   3.843   0.046  0.00  0.00    +0.162 C 
ENDROOT
BRANCH   1   2
ATOM      2  C   UNL     1      -3.651   3.145   0.036  0.00  0.00    +0.042 A 
ATOM      3  C   UNL     1      -2.507   3.874   0.044  0.00  0.00    +0.021 A 
ATOM      4  C   UNL     1      -1.226   3.165   0.029  0.00  0.00    -0.001 A 
ATOM      5  C   UNL     1      -0.014   3.863   0.022  0.00  0.00    +0.013 A 
ATOM      6  C   UNL     1       1.165   3.172   0.007  0.00  0.00    -0.047 A 
ATOM      7  C   UNL     1       1.170   1.784   0.001  0.00  0.00    -0.046 A 
ATOM      8  C   UNL     1      -0.013   1.076   0.008  0.00  0.00    +0.030 A 
ATOM      9  C   UNL     1      -1.225   1.758   0.017  0.00  0.00    +0.049 A 
ATOM     10  N   UNL     1      -2.423   1.075   0.019  0.00  0.00    -0.322 N 
ATOM     11  H   UNL     1      -2.429  -0.025   0.013  0.00  0.00    +0.169 HD
ATOM     12  C   UNL     1      -3.595   1.735   0.028  0.00  0.00    +0.254 A 
ATOM     13  O   UNL     1      -4.635   1.099   0.030  0.00  0.00    -0.268 OA
ATOM     14  C   UNL     1       2.482   1.043  -0.016  0.00  0.00    +0.044 C 
ATOM     15  C   UNL     1       2.471   3.924  -0.001  0.00  0.00    +0.044 C 
ENDBRANCH   1   2
BRANCH   1  19
ATOM     16  N   UNL     1      -7.237   3.658  -3.524  0.00  0.00    -0.327 N 
ATOM     17  C   UNL     1      -7.945   3.458  -2.252  0.00  0.00    +0.120 C 
ATOM     18  C   UNL     1      -7.107   4.033  -1.108  0.00  0.00    +0.104 C 
ATOM     19  N   UNL     1      -5.794   3.372  -1.086  0.00  0.00    -0.286 NA
ATOM     20  C   UNL     1      -5.086   3.572  -2.358  0.00  0.00    +0.104 C 
ATOM     21  C   UNL     1      -5.924   2.998  -3.502  0.00  0.00    +0.120 C 
BRANCH  16  27
ATOM     22  C   UNL     1      -9.541   4.606  -7.760  0.00  0.00    +0.044 C 
ATOM     23  C   UNL     1      -9.137   3.648  -6.669  0.00  0.00    -0.046 A 
ATOM     24  C   UNL     1      -9.527   2.323  -6.734  0.00  0.00    +0.004 A 
ATOM     25  C   UNL     1      -9.158   1.440  -5.736  0.00  0.00    +0.002 A 
ATOM     26  C   UNL     1      -8.398   1.880  -4.670  0.00  0.00    +0.023 A 
ATOM     27  C   UNL     1      -8.005   3.210  -4.601  0.00  0.00    +0.033 A 
ATOM     28  C   UNL     1      -8.382   4.096  -5.603  0.00  0.00    -0.027 A 
ATOM     29  C   UNL     1      -7.963   5.541  -5.530  0.00  0.00    +0.046 C 
ENDBRANCH  16  27
ENDBRANCH   1  19
BRANCH   1  30
ATOM     30  C   UNL     1      -5.703   3.537   1.336  0.00  0.00    +0.173 A 
ATOM     31  N   UNL     1      -6.293   2.412   1.656  0.00  0.00    -0.111 NA
ATOM     32  N   UNL     1      -6.788   2.543   2.838  0.00  0.00    -0.023 NA
ATOM     33  N   UNL     1      -6.528   3.723   3.282  0.00  0.00    -0.044 NA
ATOM     34  N   UNL     1      -5.856   4.365   2.387  0.00  0.00    -0.225 N 
BRANCH  34  35
ATOM     35  C   UNL     1      -5.356   5.738   2.492  0.00  0.00    +0.175 C 
BRANCH  35  36
ATOM     36  C   UNL     1      -6.414   6.708   1.962  0.00  0.00    +0.183 C 
BRANCH  36  37
ATOM     37  O   UNL     1      -5.926   8.047   2.065  0.00  0.00    -0.381 OA
ATOM     38  C   UNL     1      -6.843   9.037   1.594  0.00  0.00    +0.194 C 
ENDBRANCH  36  37
ENDBRANCH  35  36
ENDBRANCH  34  35
ENDBRANCH   1  30
TORSDOF 7
