REMARK  Name = ZINC63676521
REMARK  7 active torsions:
REMARK  status: ('A' for Active; 'I' for Inactive)
REMARK    1  A    between atoms: C_1  and  O_2
REMARK    2  A    between atoms: O_2  and  C_3
REMARK    3  A    between atoms: C_9  and  C_12
REMARK    4  A    between atoms: C_12  and  C_13
REMARK    5  A    between atoms: C_13  and  N_14
REMARK    6  A    between atoms: C_15  and  C_17
REMARK    7  A    between atoms: C_19  and  N_28
REMARK                            x       y       z     vdW  Elec       q    Type
REMARK                         _______ _______ _______ _____ _____    ______ ____
ROOT
ATOM      1  N   UNL     1      -0.810  -6.381   2.663  0.00  0.00    -0.314 N 
ATOM      2  C   UNL     1      -0.835  -7.582   3.275  0.00  0.00    +0.229 C 
ATOM      3  O   UNL     1      -1.674  -7.814   4.120  0.00  0.00    -0.275 OA
ATOM      4  H   UNL     1      -0.139  -6.195   1.987  0.00  0.00    +0.149 HD
ENDROOT
BRANCH   2   5
ATOM      5  C   UNL     1       0.178  -8.635   2.909  0.00  0.00    +0.166 C 
ATOM      6  C   UNL     1       1.386  -8.614   3.873  0.00  0.00    +0.141 C 
ATOM      7  C   UNL     1       1.184  -9.543   5.043  0.00  0.00    +0.009 A 
ATOM      8  C   UNL     1       1.843  -9.496   6.275  0.00  0.00    +0.010 A 
ATOM      9  C   UNL     1       1.547 -10.441   7.240  0.00  0.00    +0.020 A 
ATOM     10  C   UNL     1       0.609 -11.420   6.981  0.00  0.00    +0.112 A 
ATOM     11  N   UNL     1      -0.011 -11.447   5.815  0.00  0.00    -0.248 NA
ATOM     12  C   UNL     1       0.240 -10.556   4.876  0.00  0.00    +0.103 A 
ATOM     13  S   UNL     1      -0.460 -10.327   3.253  0.00  0.00    -0.090 S 
BRANCH   6  14
ATOM     14  N   UNL     1       1.572  -7.250   4.375  0.00  0.00    -0.344 N 
ATOM     15  C   UNL     1       2.536  -6.377   3.966  0.00  0.00    +0.086 A 
ATOM     16  C   UNL     1       2.385  -5.228   4.655  0.00  0.00    +0.019 A 
ATOM     17  C   UNL     1       1.287  -5.398   5.522  0.00  0.00    +0.019 A 
ATOM     18  C   UNL     1       0.806  -6.642   5.325  0.00  0.00    +0.086 A 
ENDBRANCH   6  14
ENDBRANCH   2   5
BRANCH   1  19
ATOM     19  C   UNL     1      -1.795  -5.357   3.018  0.00  0.00    +0.108 C 
BRANCH  19  20
ATOM     20  C   UNL     1      -1.546  -4.099   2.184  0.00  0.00    +0.052 C 
BRANCH  20  27
ATOM     21  C   UNL     1      -1.426  -0.574   5.127  0.00  0.00    +0.121 A 
ATOM     22  C   UNL     1      -2.606   0.188   5.171  0.00  0.00    +0.047 A 
ATOM     23  C   UNL     1      -3.684  -0.096   4.410  0.00  0.00    +0.029 A 
ATOM     24  C   UNL     1      -3.647  -1.239   3.492  0.00  0.00    +0.043 A 
ATOM     25  N   UNL     1      -4.535  -1.724   2.661  0.00  0.00    -0.380 N 
ATOM     26  C   UNL     1      -3.956  -2.893   1.989  0.00  0.00    +0.144 C 
ATOM     27  C   UNL     1      -2.559  -3.045   2.549  0.00  0.00    -0.040 C 
ATOM     28  C   UNL     1      -2.404  -2.043   3.444  0.00  0.00    +0.002 A 
ATOM     29  C   UNL     1      -1.288  -1.646   4.310  0.00  0.00    +0.055 A 
ATOM     30  H   UNL     1      -5.426  -1.370   2.514  0.00  0.00    +0.160 HD
BRANCH  21  32
ATOM     31  C   UNL     1      -0.574   0.916   6.772  0.00  0.00    +0.277 C 
ATOM     32  O   UNL     1      -0.385  -0.221   5.926  0.00  0.00    -0.495 OA
ENDBRANCH  21  32
ENDBRANCH  20  27
ENDBRANCH  19  20
ENDBRANCH   1  19
TORSDOF 6
