REMARK  Name = ZINC05621245
REMARK  8 active torsions:
REMARK  status: ('A' for Active; 'I' for Inactive)
REMARK    1  A    between atoms: C_1  and  C_2
REMARK    2  A    between atoms: C_2  and  C_8
REMARK    3  A    between atoms: N_3  and  N_4
REMARK    4  A    between atoms: N_4  and  C_5
REMARK    5  A    between atoms: C_5  and  N_7
REMARK    6  A    between atoms: C_13  and  C_32
REMARK    7  A    between atoms: C_24  and  C_31
REMARK    8  A    between atoms: C_27  and  O_30
REMARK                            x       y       z     vdW  Elec       q    Type
REMARK                         _______ _______ _______ _____ _____    ______ ____
ROOT
ATOM      1  C   UNL     1      -3.434   3.868   4.019  0.00  0.00    -0.023 C 
ATOM      2  C   UNL     1      -2.288   4.532   4.265  0.00  0.00    -0.021 C 
ATOM      3  C   UNL     1      -1.198   4.048   3.301  0.00  0.00    +0.032 C 
ATOM      4  C   UNL     1      -2.074   3.626   2.114  0.00  0.00    +0.006 C 
ATOM      5  C   UNL     1      -3.178   2.889   2.902  0.00  0.00    -0.002 C 
ATOM      6  C   UNL     1      -4.311   2.561   1.965  0.00  0.00    +0.012 C 
ATOM      7  C   UNL     1      -3.756   1.662   0.840  0.00  0.00    +0.005 C 
ATOM      8  C   UNL     1      -2.648   2.361   0.078  0.00  0.00    -0.001 C 
ATOM      9  C   UNL     1      -1.504   2.831   0.990  0.00  0.00    -0.003 C 
ATOM     10  C   UNL     1      -0.621   1.652   1.361  0.00  0.00    +0.004 C 
ATOM     11  C   UNL     1       0.126   1.187   0.101  0.00  0.00    +0.004 C 
ATOM     12  C   UNL     1      -0.570   1.720  -1.150  0.00  0.00    -0.002 C 
ATOM     13  C   UNL     1      -2.083   1.529  -1.075  0.00  0.00    -0.026 C 
ATOM     14  C   UNL     1      -2.731   2.046  -2.368  0.00  0.00    +0.010 C 
ATOM     15  C   UNL     1      -2.140   1.364  -3.596  0.00  0.00    +0.032 C 
ATOM     16  C   UNL     1      -0.630   1.599  -3.645  0.00  0.00    +0.115 C 
ATOM     17  C   UNL     1       0.010   1.023  -2.381  0.00  0.00    +0.035 C 
ATOM     18  C   UNL     1      -2.426   0.051  -0.904  0.00  0.00    +0.012 C 
ATOM     19  C   UNL     1      -2.676   1.612   3.573  0.00  0.00    +0.016 C 
ENDROOT
BRANCH   1  21
ATOM     20  C   UNL     1      -4.831   5.072   5.814  0.00  0.00    +0.067 C 
ATOM     21  C   UNL     1      -4.712   4.054   4.710  0.00  0.00    +0.060 C 
ATOM     22  N   UNL     1      -5.744   3.340   4.371  0.00  0.00    -0.186 NA
BRANCH  22  23
ATOM     23  N   UNL     1      -6.966   3.517   5.031  0.00  0.00    -0.218 N 
ATOM     24  H   UNL     1      -7.043   4.173   5.742  0.00  0.00    +0.176 HD
BRANCH  23  25
ATOM     25  C   UNL     1      -8.036   2.777   4.679  0.00  0.00    +0.147 C 
ATOM     26  S   UNL     1      -9.530   2.994   5.487  0.00  0.00    -0.017 S 
BRANCH  25  27
ATOM     27  N   UNL     1      -7.930   1.866   3.692  0.00  0.00    -0.339 N 
ATOM     28  H   UNL     1      -7.083   1.743   3.235  0.00  0.00    +0.144 HD
ATOM     29  H   UNL     1      -8.700   1.333   3.439  0.00  0.00    +0.144 HD
ENDBRANCH  25  27
ENDBRANCH  23  25
ENDBRANCH  22  23
ENDBRANCH   1  21
BRANCH  16  30
ATOM     30  O   UNL     1      -0.082   0.954  -4.796  0.00  0.00    -0.392 OA
ATOM     31  H   UNL     1      -0.446   1.270  -5.635  0.00  0.00    +0.210 HD
ENDBRANCH  16  30
TORSDOF 5
