REMARK  Name = ZINC11297003
REMARK  6 active torsions:
REMARK  status: ('A' for Active; 'I' for Inactive)
REMARK    1  A    between atoms: C_1  and  C_2
REMARK    2  A    between atoms: C_9  and  C_11
REMARK    3  A    between atoms: C_11  and  O_12
REMARK    4  A    between atoms: O_12  and  C_13
REMARK    5  A    between atoms: C_13  and  C_15
REMARK    6  A    between atoms: C_20  and  N_21
REMARK                            x       y       z     vdW  Elec       q    Type
REMARK                         _______ _______ _______ _____ _____    ______ ____
ROOT
ATOM      1  C   UNL     1       1.241   2.120  -0.498  0.00  0.00    +0.342 C 
ATOM      2  O   UNL     1       2.240   1.453  -0.313  0.00  0.00    -0.245 OA
ENDROOT
BRANCH   1   3
ATOM      3  C   UNL     1       1.264   3.569  -0.234  0.00  0.00    +0.082 A 
ATOM      4  C   UNL     1       0.088   4.320  -0.327  0.00  0.00    +0.037 A 
ATOM      5  C   UNL     1       0.115   5.674  -0.073  0.00  0.00    +0.043 A 
ATOM      6  C   UNL     1       1.306   6.301   0.264  0.00  0.00    +0.042 A 
ATOM      7  C   UNL     1       2.476   5.574   0.354  0.00  0.00    +0.064 A 
ATOM      8  C   UNL     1       2.468   4.206   0.107  0.00  0.00    +0.057 A 
ATOM      9 CL   UNL     1       3.961   6.370   0.776  0.00  0.00    -0.082 Cl
ATOM     10 CL   UNL     1      -1.348   6.603  -0.183  0.00  0.00    -0.083 Cl
BRANCH   8  11
ATOM     11  N   UNL     1       3.644   3.472   0.197  0.00  0.00    -0.356 N 
ATOM     12  H   UNL     1       3.730   2.633  -0.281  0.00  0.00    +0.142 HD
ATOM     13  H   UNL     1       4.380   3.800   0.739  0.00  0.00    +0.142 HD
ENDBRANCH   8  11
ENDBRANCH   1   3
BRANCH   1  14
ATOM     14  O   UNL     1       0.113   1.535  -0.946  0.00  0.00    -0.452 OA
BRANCH  14  15
ATOM     15  C   UNL     1       0.163   0.104  -1.185  0.00  0.00    +0.328 C 
BRANCH  15  23
ATOM     16  C   UNL     1      -4.334  -4.012  -2.198  0.00  0.00    +0.039 C 
ATOM     17  C   UNL     1      -3.083  -3.367  -1.599  0.00  0.00    +0.132 C 
ATOM     18  C   UNL     1      -2.672  -2.160  -2.450  0.00  0.00    +0.139 C 
ATOM     19  N   UNL     1      -1.370  -1.673  -1.967  0.00  0.00    -0.294 N 
ATOM     20  C   UNL     1      -0.280  -2.650  -1.815  0.00  0.00    +0.136 C 
ATOM     21  C   UNL     1      -0.809  -3.834  -0.990  0.00  0.00    +0.179 C 
ATOM     22  O   UNL     1      -2.015  -4.318  -1.585  0.00  0.00    -0.374 OA
ATOM     23  C   UNL     1      -1.180  -0.370  -1.678  0.00  0.00    +0.253 C 
ATOM     24  O   UNL     1      -2.090   0.420  -1.815  0.00  0.00    -0.272 OA
ENDBRANCH  15  23
ENDBRANCH  14  15
ENDBRANCH   1  14
TORSDOF 5
