REMARK  Name = ZINC15770501
REMARK  7 active torsions:
REMARK  status: ('A' for Active; 'I' for Inactive)
REMARK    1  A    between atoms: C_4  and  C_7
REMARK    2  A    between atoms: C_9  and  C_31
REMARK    3  A    between atoms: N_10  and  C_14
REMARK    4  A    between atoms: C_14  and  C_16
REMARK    5  A    between atoms: C_14  and  C_22
REMARK    6  A    between atoms: C_22  and  C_24
REMARK    7  A    between atoms: C_22  and  O_30
REMARK                            x       y       z     vdW  Elec       q    Type
REMARK                         _______ _______ _______ _____ _____    ______ ____
ROOT
ATOM      1  C   UNL     1      -1.218   0.892   1.056  0.00  0.00    -0.011 A 
ATOM      2  C   UNL     1      -0.744   1.028  -0.264  0.00  0.00    +0.035 A 
ATOM      3  C   UNL     1      -0.022   2.131  -0.612  0.00  0.00    +0.053 A 
ATOM      4  N   UNL     1       0.247   3.108   0.307  0.00  0.00    -0.298 N 
ATOM      5  C   UNL     1      -0.192   3.008   1.575  0.00  0.00    +0.253 A 
ATOM      6  O   UNL     1       0.056   3.895   2.376  0.00  0.00    -0.268 OA
ATOM      7  C   UNL     1      -0.937   1.892   1.978  0.00  0.00    +0.079 A 
ENDROOT
BRANCH   1  11
ATOM      8  C   UNL     1      -3.474  -2.525   2.198  0.00  0.00    +0.000 A 
ATOM      9  C   UNL     1      -4.065  -1.274   2.207  0.00  0.00    +0.001 A 
ATOM     10  C   UNL     1      -3.338  -0.161   1.837  0.00  0.00    +0.008 A 
ATOM     11  C   UNL     1      -2.004  -0.299   1.454  0.00  0.00    -0.018 A 
ATOM     12  C   UNL     1      -1.415  -1.563   1.442  0.00  0.00    +0.008 A 
ATOM     13  C   UNL     1      -2.151  -2.667   1.819  0.00  0.00    +0.001 A 
ENDBRANCH   1  11
BRANCH   3  14
ATOM     14  C   UNL     1       0.475   2.273  -1.997  0.00  0.00    -0.001 A 
ATOM     15  C   UNL     1       0.192   3.428  -2.728  0.00  0.00    +0.010 A 
ATOM     16  C   UNL     1       0.663   3.557  -4.019  0.00  0.00    +0.001 A 
ATOM     17  C   UNL     1       1.405   2.539  -4.592  0.00  0.00    +0.000 A 
ATOM     18  C   UNL     1       1.684   1.389  -3.875  0.00  0.00    +0.001 A 
ATOM     19  C   UNL     1       1.224   1.251  -2.582  0.00  0.00    +0.010 A 
ENDBRANCH   3  14
BRANCH   4  20
ATOM     20  C   UNL     1       1.024   4.283  -0.096  0.00  0.00    +0.154 C 
BRANCH  20  21
ATOM     21  C   UNL     1       0.159   5.513  -0.007  0.00  0.00    -0.022 A 
ATOM     22  C   UNL     1      -1.215   5.401  -0.118  0.00  0.00    +0.006 A 
ATOM     23  C   UNL     1      -2.009   6.529  -0.032  0.00  0.00    +0.000 A 
ATOM     24  C   UNL     1      -1.430   7.770   0.155  0.00  0.00    +0.000 A 
ATOM     25  C   UNL     1      -0.056   7.883   0.261  0.00  0.00    +0.000 A 
ATOM     26  C   UNL     1       0.738   6.754   0.179  0.00  0.00    +0.006 A 
ENDBRANCH  20  21
BRANCH  20  27
ATOM     27  C   UNL     1       2.230   4.440   0.833  0.00  0.00    +0.172 C 
BRANCH  27  28
ATOM     28  C   UNL     1       2.989   3.139   0.895  0.00  0.00    -0.017 A 
ATOM     29  C   UNL     1       2.542   2.117   1.712  0.00  0.00    +0.006 A 
ATOM     30  C   UNL     1       3.236   0.922   1.766  0.00  0.00    +0.000 A 
ATOM     31  C   UNL     1       4.381   0.753   1.010  0.00  0.00    +0.000 A 
ATOM     32  C   UNL     1       4.830   1.777   0.197  0.00  0.00    +0.000 A 
ATOM     33  C   UNL     1       4.134   2.970   0.140  0.00  0.00    +0.006 A 
ENDBRANCH  27  28
BRANCH  27  34
ATOM     34  O   UNL     1       1.780   4.792   2.143  0.00  0.00    -0.385 OA
ATOM     35  H   UNL     1       1.815   4.065   2.779  0.00  0.00    +0.210 HD
ENDBRANCH  27  34
ENDBRANCH  20  27
ENDBRANCH   4  20
TORSDOF 7
