REMARK  Name = ZINC37370617
REMARK  4 active torsions:
REMARK  status: ('A' for Active; 'I' for Inactive)
REMARK    1  A    between atoms: C_3  and  S_16
REMARK    2  A    between atoms: C_6  and  O_7
REMARK    3  A    between atoms: O_7  and  C_8
REMARK    4  A    between atoms: S_16  and  N_19
REMARK                            x       y       z     vdW  Elec       q    Type
REMARK                         _______ _______ _______ _____ _____    ______ ____
ROOT
ATOM      1  C   UNL     1      -0.051   1.400   0.094  0.00  0.00    +0.048 A 
ATOM      2  C   UNL     1       1.125   2.126   0.097  0.00  0.00    +0.032 A 
ATOM      3  C   UNL     1       2.341   1.474   0.021  0.00  0.00    +0.105 A 
ATOM      4  C   UNL     1       2.385   0.094  -0.060  0.00  0.00    +0.032 A 
ATOM      5  C   UNL     1       1.213  -0.636  -0.064  0.00  0.00    +0.048 A 
ATOM      6  C   UNL     1      -0.010   0.015   0.013  0.00  0.00    +0.129 A 
ENDROOT
BRANCH   3   7
ATOM      7  S   UNL     1       3.839   2.402   0.025  0.00  0.00    +0.056 S 
ATOM      8  O   UNL     1       4.821   1.591  -0.605  0.00  0.00    -0.153 OA
ATOM      9  O   UNL     1       3.511   3.703  -0.442  0.00  0.00    -0.153 OA
BRANCH   7  10
ATOM     10  N   UNL     1       4.306   2.570   1.605  0.00  0.00    -0.204 NA
ATOM     11  H   UNL     1       5.248   2.642   1.827  0.00  0.00    +0.144 HD
ATOM     12  H   UNL     1       3.638   2.597   2.308  0.00  0.00    +0.144 HD
ENDBRANCH   7  10
ENDBRANCH   3   7
BRANCH   6  13
ATOM     13  O   UNL     1      -1.165  -0.701   0.010  0.00  0.00    -0.455 OA
BRANCH  13  14
ATOM     14  C   UNL     1      -1.983  -0.586  -1.069  0.00  0.00    +0.147 A 
ATOM     15  C   UNL     1      -1.573   0.139  -2.179  0.00  0.00    +0.049 A 
ATOM     16  C   UNL     1      -2.407   0.254  -3.274  0.00  0.00    +0.019 A 
ATOM     17  C   UNL     1      -3.650  -0.354  -3.266  0.00  0.00    +0.019 A 
ATOM     18  C   UNL     1      -4.062  -1.077  -2.161  0.00  0.00    +0.039 A 
ATOM     19  C   UNL     1      -3.229  -1.200  -1.065  0.00  0.00    +0.084 A 
ATOM     20 CL   UNL     1      -3.742  -2.115   0.318  0.00  0.00    -0.080 Cl
ATOM     21 BR   UNL     1      -4.788  -0.194  -4.768  0.00  0.00    -0.050 Br
ENDBRANCH  13  14
ENDBRANCH   6  13
TORSDOF 4
