REMARK  Name = ZINC66929095
REMARK  6 active torsions:
REMARK  status: ('A' for Active; 'I' for Inactive)
REMARK    1  A    between atoms: C_10  and  C_11
REMARK    2  A    between atoms: C_10  and  O_29
REMARK    3  A    between atoms: C_11  and  N_12
REMARK    4  A    between atoms: C_13  and  C_15
REMARK    5  A    between atoms: N_18  and  C_20
REMARK    6  A    between atoms: C_24  and  N_26
REMARK                            x       y       z     vdW  Elec       q    Type
REMARK                         _______ _______ _______ _____ _____    ______ ____
ROOT
ATOM      1  N   UNL     1       4.733   1.477  -0.622  0.00  0.00    -0.307 N 
ATOM      2  C   UNL     1       5.418   2.343  -1.394  0.00  0.00    +0.264 C 
ATOM      3  O   UNL     1       5.984   1.948  -2.395  0.00  0.00    -0.268 OA
ATOM      4  H   UNL     1       4.281   1.792   0.177  0.00  0.00    +0.149 HD
ENDROOT
BRANCH   2   5
ATOM      5  C   UNL     1       5.481   3.771  -1.026  0.00  0.00    +0.147 A 
ATOM      6  C   UNL     1       6.152   4.794  -1.737  0.00  0.00    +0.054 A 
ATOM      7  C   UNL     1       5.936   5.929  -1.031  0.00  0.00    +0.115 A 
ATOM      8  N   UNL     1       5.175   5.593   0.043  0.00  0.00    -0.239 N 
ATOM      9  N   UNL     1       4.917   4.335   0.025  0.00  0.00    -0.162 NA
BRANCH   8  10
ATOM     10  C   UNL     1       4.732   6.489   1.025  0.00  0.00    +0.068 A 
ATOM     11  C   UNL     1       5.063   7.835   0.938  0.00  0.00    +0.028 A 
ATOM     12  C   UNL     1       4.625   8.716   1.907  0.00  0.00    +0.004 A 
ATOM     13  C   UNL     1       3.857   8.259   2.963  0.00  0.00    +0.033 A 
ATOM     14  C   UNL     1       3.527   6.920   3.052  0.00  0.00    +0.128 A 
ATOM     15  C   UNL     1       3.957   6.035   2.083  0.00  0.00    +0.060 A 
BRANCH  14  16
ATOM     16  N   UNL     1       2.705   6.434   4.184  0.00  0.00    +0.056 N 
ATOM     17  O   UNL     1       2.324   7.209   5.030  0.00  0.00    -0.126 OA
ATOM     18  O   UNL     1       2.416   5.263   4.262  0.00  0.00    -0.126 OA
ENDBRANCH  14  16
ENDBRANCH   8  10
ENDBRANCH   2   5
BRANCH   1  19
ATOM     19  C   UNL     1       4.671   0.060  -0.987  0.00  0.00    +0.144 C 
BRANCH  19  29
ATOM     20  C   UNL     1       3.635  -4.797  -1.159  0.00  0.00    +0.000 A 
ATOM     21  C   UNL     1       3.604  -3.797  -2.113  0.00  0.00    +0.000 A 
ATOM     22  C   UNL     1       3.643  -2.475  -1.720  0.00  0.00    +0.007 A 
ATOM     23  C   UNL     1       3.714  -2.140  -0.374  0.00  0.00    -0.011 A 
ATOM     24  C   UNL     1       3.749  -3.136   0.575  0.00  0.00    -0.041 A 
ATOM     25  C   UNL     1       3.706  -4.467   0.178  0.00  0.00    +0.004 A 
ATOM     26  C   UNL     1       3.843  -2.847   2.051  0.00  0.00    +0.035 C 
ATOM     27  C   UNL     1       3.451  -1.399   2.340  0.00  0.00    +0.008 C 
ATOM     28  C   UNL     1       4.257  -0.485   1.410  0.00  0.00    +0.041 C 
ATOM     29  C   UNL     1       3.746  -0.677  -0.016  0.00  0.00    +0.107 C 
BRANCH  29  30
ATOM     30  O   UNL     1       2.427  -0.138  -0.121  0.00  0.00    -0.382 OA
ATOM     31  H   UNL     1       2.042  -0.209  -1.006  0.00  0.00    +0.211 HD
ENDBRANCH  29  30
ENDBRANCH  19  29
ENDBRANCH   1  19
TORSDOF 6
