REMARK  Name = ZINC33937302
REMARK  15 active torsions:
REMARK  status: ('A' for Active; 'I' for Inactive)
REMARK    1  A    between atoms: C_1  and  C_2
REMARK    2  A    between atoms: C_2  and  C_3
REMARK    3  A    between atoms: C_3  and  C_4
REMARK    4  A    between atoms: C_4  and  C_6
REMARK    5  A    between atoms: C_4  and  N_18
REMARK    6  A    between atoms: N_10  and  C_11
REMARK    7  A    between atoms: C_11  and  C_12
REMARK    8  A    between atoms: N_18  and  C_19
REMARK    9  A    between atoms: N_18  and  C_28
REMARK   10  A    between atoms: C_19  and  C_20
REMARK   11  A    between atoms: C_20  and  C_21
REMARK   12  A    between atoms: C_21  and  N_22
REMARK   13  A    between atoms: C_28  and  C_29
REMARK   14  A    between atoms: C_33  and  C_42
REMARK   15  A    between atoms: C_35  and  C_41
REMARK                            x       y       z     vdW  Elec       q    Type
REMARK                         _______ _______ _______ _____ _____    ______ ____
ROOT
ATOM      1  N   UNL     1      -0.935  -2.798   1.311  0.00  0.00    +0.389 N 
ATOM      2  H   UNL     1      -1.482  -2.570   2.128  0.00  0.00    -0.080 HD
ENDROOT
BRANCH   1   3
ATOM      3  C   UNL     1      -1.512  -2.132   0.136  0.00  0.00    +0.003 C 
BRANCH   3   4
ATOM      4  C   UNL     1      -0.838  -2.644  -1.112  0.00  0.00    +0.138 A 
ATOM      5  N   UNL     1      -0.501  -3.885  -1.366  0.00  0.00    -0.115 NA
ATOM      6  N   UNL     1       0.049  -3.917  -2.531  0.00  0.00    -0.023 NA
ATOM      7  N   UNL     1       0.071  -2.729  -3.026  0.00  0.00    -0.044 NA
ATOM      8  N   UNL     1      -0.472  -1.917  -2.183  0.00  0.00    -0.228 N 
BRANCH   8   9
ATOM      9  C   UNL     1      -0.652  -0.473  -2.358  0.00  0.00    +0.178 C 
BRANCH   9  10
ATOM     10  C   UNL     1       0.576   0.263  -1.818  0.00  0.00    +0.140 C 
ATOM     11  C   UNL     1       0.447   1.786  -2.075  0.00  0.00    +0.035 C 
ATOM     12  C   UNL     1       1.362   2.352  -0.956  0.00  0.00    +0.031 C 
ATOM     13  C   UNL     1       1.141   1.343   0.191  0.00  0.00    +0.160 C 
ATOM     14  O   UNL     1       0.652   0.127  -0.390  0.00  0.00    -0.375 OA
ENDBRANCH   9  10
ENDBRANCH   8   9
ENDBRANCH   3   4
BRANCH   3  15
ATOM     15  C   UNL     1      -3.011  -2.431   0.065  0.00  0.00    -0.008 C 
BRANCH  15  17
ATOM     16  C   UNL     1      -5.189  -2.210   1.269  0.00  0.00    +0.004 C 
ATOM     17  C   UNL     1      -3.712  -1.811   1.276  0.00  0.00    -0.005 C 
ENDBRANCH  15  17
ENDBRANCH   3  15
ENDBRANCH   1   3
BRANCH   1  18
ATOM     18  C   UNL     1       0.447  -2.340   1.504  0.00  0.00    -0.076 C 
BRANCH  18  19
ATOM     19  C   UNL     1       1.274  -2.678   0.262  0.00  0.00    -0.003 C 
BRANCH  19  20
ATOM     20  C   UNL     1       2.743  -2.336   0.518  0.00  0.00    +0.083 C 
BRANCH  20  21
ATOM     21  N   UNL     1       3.517  -2.543  -0.713  0.00  0.00    -0.298 NA
ATOM     22  C   UNL     1       3.477  -3.952  -1.130  0.00  0.00    +0.112 C 
ATOM     23  C   UNL     1       4.243  -4.112  -2.446  0.00  0.00    +0.175 C 
ATOM     24  O   UNL     1       5.581  -3.636  -2.273  0.00  0.00    -0.377 OA
ATOM     25  C   UNL     1       5.657  -2.266  -1.869  0.00  0.00    +0.175 C 
ATOM     26  C   UNL     1       4.904  -2.088  -0.547  0.00  0.00    +0.112 C 
ENDBRANCH  20  21
ENDBRANCH  19  20
ENDBRANCH  18  19
ENDBRANCH   1  18
BRANCH   1  27
ATOM     27  C   UNL     1      -0.945  -4.252   1.105  0.00  0.00    -0.037 C 
BRANCH  27  28
ATOM     28  C   UNL     1      -0.565  -4.944   2.389  0.00  0.00    +0.001 A 
ATOM     29  C   UNL     1      -1.532  -5.387   3.229  0.00  0.00    +0.017 A 
ATOM     30  C   UNL     1      -1.129  -6.056   4.468  0.00  0.00    -0.001 A 
ATOM     31  C   UNL     1      -2.081  -6.535   5.374  0.00  0.00    +0.013 A 
ATOM     32  C   UNL     1      -1.673  -7.155   6.521  0.00  0.00    -0.050 A 
ATOM     33  C   UNL     1      -0.321  -7.314   6.795  0.00  0.00    +0.008 A 
ATOM     34  C   UNL     1       0.634  -6.850   5.917  0.00  0.00    -0.026 A 
ATOM     35  C   UNL     1       0.242  -6.216   4.742  0.00  0.00    +0.052 A 
ATOM     36  N   UNL     1       1.176  -5.743   3.846  0.00  0.00    -0.322 N 
ATOM     37  H   UNL     1       2.121  -5.853   4.036  0.00  0.00    +0.169 HD
ATOM     38  C   UNL     1       0.797  -5.134   2.708  0.00  0.00    +0.251 A 
ATOM     39  O   UNL     1       1.650  -4.733   1.936  0.00  0.00    -0.268 OA
ATOM     40  C   UNL     1       2.098  -7.028   6.228  0.00  0.00    +0.046 C 
ATOM     41  C   UNL     1      -2.698  -7.671   7.497  0.00  0.00    +0.044 C 
ENDBRANCH  27  28
ENDBRANCH   1  27
TORSDOF 12
