REMARK  Name = ZINC54025094
REMARK  8 active torsions:
REMARK  status: ('A' for Active; 'I' for Inactive)
REMARK    1  A    between atoms: C_1  and  C_2
REMARK    2  A    between atoms: C_7  and  N_10
REMARK    3  A    between atoms: N_10  and  C_11
REMARK    4  A    between atoms: N_10  and  C_12
REMARK    5  A    between atoms: C_12  and  C_13
REMARK    6  A    between atoms: C_13  and  C_14
REMARK    7  A    between atoms: C_14  and  C_16
REMARK    8  A    between atoms: C_14  and  O_23
REMARK                            x       y       z     vdW  Elec       q    Type
REMARK                         _______ _______ _______ _____ _____    ______ ____
ROOT
ATOM      1  C   UNL     1       4.266   0.041   2.410  0.00  0.00    -0.076 C 
ENDROOT
BRANCH   1   2
ATOM      2  N   UNL     1       2.888  -0.468   2.421  0.00  0.00    +0.380 N 
ATOM      3  C   UNL     1       2.200   0.006   3.629  0.00  0.00    -0.096 C 
ATOM      4  H   UNL     1       2.902  -1.477   2.415  0.00  0.00    -0.082 HD
BRANCH   2  10
ATOM      5  C   UNL     1      -0.019   1.526   0.010  0.00  0.00    +0.007 C 
ATOM      6  C   UNL     1       0.002  -0.004   0.002  0.00  0.00    -0.016 C 
ATOM      7  C   UNL     1       0.718  -0.497  -1.257  0.00  0.00    +0.003 C 
ATOM      8  C   UNL     1       2.154   0.032  -1.268  0.00  0.00    -0.001 C 
ATOM      9  C   UNL     1       2.894  -0.475  -0.028  0.00  0.00    -0.015 C 
ATOM     10  C   UNL     1       2.178   0.019   1.231  0.00  0.00    -0.069 C 
ATOM     11  C   UNL     1       0.742  -0.511   1.242  0.00  0.00    -0.012 C 
ENDBRANCH   2  10
ENDBRANCH   1   2
BRANCH   1  12
ATOM     12  C   UNL     1       5.042  -0.566   3.581  0.00  0.00    +0.017 C 
BRANCH  12  13
ATOM     13  C   UNL     1       6.478  -0.036   3.571  0.00  0.00    +0.144 C 
BRANCH  13  14
ATOM     14  C   UNL     1       7.206  -0.535   4.791  0.00  0.00    -0.005 A 
ATOM     15  C   UNL     1       7.983  -1.676   4.715  0.00  0.00    +0.007 A 
ATOM     16  C   UNL     1       8.652  -2.134   5.834  0.00  0.00    +0.000 A 
ATOM     17  C   UNL     1       8.545  -1.451   7.031  0.00  0.00    +0.001 A 
ATOM     18  C   UNL     1       7.769  -0.310   7.109  0.00  0.00    +0.015 A 
ATOM     19  C   UNL     1       7.103   0.151   5.988  0.00  0.00    +0.023 A 
ATOM     20 BR   UNL     1       6.046   1.716   6.092  0.00  0.00    -0.050 Br
ENDBRANCH  13  14
BRANCH  13  21
ATOM     21  O   UNL     1       7.146  -0.497   2.395  0.00  0.00    -0.387 OA
ATOM     22  H   UNL     1       7.197  -1.460   2.323  0.00  0.00    +0.210 HD
ENDBRANCH  13  21
ENDBRANCH  12  13
ENDBRANCH   1  12
TORSDOF 6
