REMARK  Name = ZINC01293851
REMARK  5 active torsions:
REMARK  status: ('A' for Active; 'I' for Inactive)
REMARK    1  A    between atoms: C_5  and  C_7
REMARK    2  A    between atoms: C_9  and  O_21
REMARK    3  A    between atoms: C_11  and  O_20
REMARK    4  A    between atoms: O_21  and  C_22
REMARK    5  A    between atoms: C_22  and  C_24
REMARK                            x       y       z     vdW  Elec       q    Type
REMARK                         _______ _______ _______ _____ _____    ______ ____
ROOT
ATOM      1  C   UNL     1       1.248  -2.163  -0.022  0.00  0.00    +0.081 C 
ATOM      2  N   UNL     1       2.394  -2.745  -0.130  0.00  0.00    -0.232 NA
ATOM      3  C   UNL     1       2.510  -4.203  -0.128  0.00  0.00    +0.381 C 
ATOM      4  C   UNL     1       2.026  -4.724   1.196  0.00  0.00    +0.254 C 
ATOM      5  N   UNL     1       0.808  -4.605   1.579  0.00  0.00    -0.212 NA
ATOM      6  C   UNL     1      -0.196  -4.038   0.857  0.00  0.00    +0.077 A 
ATOM      7  C   UNL     1      -0.034  -2.875   0.100  0.00  0.00    +0.027 A 
ATOM      8  C   UNL     1      -1.137  -2.353  -0.590  0.00  0.00    +0.027 A 
ATOM      9  C   UNL     1      -2.362  -2.980  -0.527  0.00  0.00    +0.019 A 
ATOM     10  C   UNL     1      -2.515  -4.137   0.220  0.00  0.00    +0.017 A 
ATOM     11  C   UNL     1      -1.451  -4.663   0.896  0.00  0.00    +0.029 A 
ATOM     12 BR   UNL     1      -3.838  -2.259  -1.463  0.00  0.00    -0.050 Br
ENDROOT
BRANCH   1  17
ATOM     13  C   UNL     1       1.577   1.411  -1.135  0.00  0.00    +0.001 A 
ATOM     14  C   UNL     1       1.171   2.087   0.003  0.00  0.00    +0.001 A 
ATOM     15  C   UNL     1       0.791   1.386   1.133  0.00  0.00    +0.020 A 
ATOM     16  C   UNL     1       0.813   0.004   1.131  0.00  0.00    +0.050 A 
ATOM     17  C   UNL     1       1.221  -0.682  -0.013  0.00  0.00    +0.019 A 
ATOM     18  C   UNL     1       1.604   0.032  -1.149  0.00  0.00    +0.011 A 
ATOM     19 CL   UNL     1       0.335  -0.875   2.550  0.00  0.00    -0.083 Cl
ENDBRANCH   1  17
BRANCH   4  20
ATOM     20  O   UNL     1       2.904  -5.341   2.012  0.00  0.00    -0.492 OA
ATOM     21  H   UNL     1       2.519  -5.648   2.844  0.00  0.00    +0.294 HD
ENDBRANCH   4  20
BRANCH   3  22
ATOM     22  O   UNL     1       1.714  -4.750  -1.181  0.00  0.00    -0.426 OA
BRANCH  22  23
ATOM     23  C   UNL     1       2.191  -4.626  -2.435  0.00  0.00    +0.343 C 
ATOM     24  O   UNL     1       3.253  -4.070  -2.629  0.00  0.00    -0.245 OA
BRANCH  23  25
ATOM     25  C   UNL     1       1.421  -5.167  -3.574  0.00  0.00    +0.077 A 
ATOM     26  C   UNL     1       1.909  -5.050  -4.882  0.00  0.00    +0.018 A 
ATOM     27  C   UNL     1       1.150  -5.574  -5.914  0.00  0.00    +0.020 A 
ATOM     28  C   UNL     1      -0.055  -6.190  -5.623  0.00  0.00    +0.111 A 
ATOM     29  N   UNL     1      -0.489  -6.285  -4.381  0.00  0.00    -0.262 NA
ATOM     30  C   UNL     1       0.199  -5.808  -3.365  0.00  0.00    +0.125 A 
ENDBRANCH  23  25
ENDBRANCH  22  23
ENDBRANCH   3  22
TORSDOF 5
