REMARK  Name = ZINC16138955
REMARK  8 active torsions:
REMARK  status: ('A' for Active; 'I' for Inactive)
REMARK    1  A    between atoms: C_1  and  C_2
REMARK    2  A    between atoms: C_2  and  C_4
REMARK    3  A    between atoms: C_6  and  C_29
REMARK    4  A    between atoms: C_11  and  C_28
REMARK    5  A    between atoms: C_22  and  C_27
REMARK    6  A    between atoms: C_29  and  C_31
REMARK    7  A    between atoms: C_29  and  C_33
REMARK    8  A    between atoms: C_33  and  N_35
REMARK                            x       y       z     vdW  Elec       q    Type
REMARK                         _______ _______ _______ _____ _____    ______ ____
ROOT
ATOM      1  C   UNL     1       3.246  -0.730   1.795  0.00  0.00    +0.066 C 
ATOM      2  C   UNL     1       3.451   0.340   2.879  0.00  0.00    +0.023 C 
ATOM      3  C   UNL     1       2.712   1.611   2.409  0.00  0.00    +0.010 C 
ATOM      4  C   UNL     1       2.339   1.345   0.948  0.00  0.00    -0.001 C 
ATOM      5  C   UNL     1       2.187  -0.176   0.812  0.00  0.00    -0.019 C 
ATOM      6  C   UNL     1       0.800  -0.621   1.263  0.00  0.00    +0.008 C 
ATOM      7  C   UNL     1      -0.300   0.109   0.509  0.00  0.00    +0.005 C 
ATOM      8  C   UNL     1      -0.204   1.624   0.611  0.00  0.00    -0.001 C 
ATOM      9  C   UNL     1       1.186   2.153   0.427  0.00  0.00    -0.004 C 
ATOM     10  C   UNL     1       1.360   3.634   0.752  0.00  0.00    +0.004 C 
ATOM     11  C   UNL     1       0.630   4.026   2.034  0.00  0.00    +0.004 C 
ATOM     12  C   UNL     1      -0.849   3.686   1.866  0.00  0.00    -0.005 C 
ATOM     13  C   UNL     1      -1.022   2.169   1.773  0.00  0.00    -0.026 C 
ATOM     14  C   UNL     1      -2.511   1.889   1.498  0.00  0.00    +0.007 C 
ATOM     15  C   UNL     1      -3.380   2.462   2.612  0.00  0.00    +0.001 C 
ATOM     16  C   UNL     1      -3.157   3.965   2.762  0.00  0.00    +0.000 C 
ATOM     17  C   UNL     1      -1.677   4.260   3.010  0.00  0.00    +0.004 C 
ATOM     18  C   UNL     1      -0.649   1.504   3.094  0.00  0.00    +0.012 C 
ATOM     19  C   UNL     1       2.481  -0.637  -0.626  0.00  0.00    +0.012 C 
ENDROOT
BRANCH   1  21
ATOM     20  C   UNL     1       3.725  -3.244   2.285  0.00  0.00    +0.086 C 
ATOM     21  C   UNL     1       2.831  -2.038   2.407  0.00  0.00    +0.134 C 
ATOM     22  O   UNL     1       1.781  -2.122   2.998  0.00  0.00    -0.297 OA
ENDBRANCH   1  21
BRANCH   2  23
ATOM     23  C   UNL     1       2.887  -0.138   4.217  0.00  0.00    +0.146 C 
BRANCH  23  24
ATOM     24  C   UNL     1       3.663  -1.295   4.692  0.00  0.00    +0.073 C 
ATOM     25  N   UNL     1       4.263  -2.188   5.059  0.00  0.00    -0.196 NA
ENDBRANCH  23  24
BRANCH  23  26
ATOM     26  C   UNL     1       2.977   0.976   5.228  0.00  0.00    +0.064 C 
ATOM     27  S   UNL     1       3.597   2.389   4.806  0.00  0.00    -0.039 S 
BRANCH  26  28
ATOM     28  N   UNL     1       2.536   0.782   6.486  0.00  0.00    -0.354 N 
ATOM     29  H   UNL     1       2.160  -0.075   6.742  0.00  0.00    +0.143 HD
ATOM     30  H   UNL     1       2.594   1.500   7.136  0.00  0.00    +0.143 HD
ENDBRANCH  26  28
ENDBRANCH  23  26
ENDBRANCH   2  23
TORSDOF 5
