REMARK  Name = ZINC67214229
REMARK  9 active torsions:
REMARK  status: ('A' for Active; 'I' for Inactive)
REMARK    1  A    between atoms: C_1  and  C_2
REMARK    2  A    between atoms: N_5  and  C_8
REMARK    3  A    between atoms: C_8  and  C_10
REMARK    4  A    between atoms: C_8  and  C_24
REMARK    5  A    between atoms: C_10  and  N_11
REMARK    6  A    between atoms: C_12  and  C_14
REMARK    7  A    between atoms: C_17  and  C_19
REMARK    8  A    between atoms: C_19  and  N_20
REMARK    9  A    between atoms: C_21  and  C_23
REMARK                            x       y       z     vdW  Elec       q    Type
REMARK                         _______ _______ _______ _____ _____    ______ ____
ROOT
ATOM      1  C   UNL     1       2.582  -4.341   1.147  0.00  0.00    +0.094 C 
ENDROOT
BRANCH   1   2
ATOM      2  N   UNL     1       2.729  -5.799   1.138  0.00  0.00    -0.312 N 
ATOM      3  C   UNL     1       3.381  -6.416   2.144  0.00  0.00    +0.251 C 
ATOM      4  O   UNL     1       3.846  -5.763   3.059  0.00  0.00    -0.270 OA
ATOM      5  H   UNL     1       2.358  -6.319   0.409  0.00  0.00    +0.149 HD
BRANCH   3   6
ATOM      6  C   UNL     1       3.529  -7.874   2.135  0.00  0.00    +0.074 A 
ATOM      7  C   UNL     1       4.150  -8.695   3.064  0.00  0.00    +0.021 A 
ATOM      8  C   UNL     1       4.128 -10.040   2.781  0.00  0.00    +0.013 A 
ATOM      9  C   UNL     1       3.519 -10.465   1.646  0.00  0.00    +0.008 A 
ATOM     10  S   UNL     1       2.950  -9.055   0.932  0.00  0.00    -0.087 S 
BRANCH   9  11
ATOM     11  C   UNL     1       3.378 -11.879   1.145  0.00  0.00    +0.146 C 
BRANCH  11  12
ATOM     12  N   UNL     1       2.141 -12.463   1.670  0.00  0.00    -0.311 N 
ATOM     13  C   UNL     1       1.805 -13.728   1.351  0.00  0.00    +0.210 C 
ATOM     14  O   UNL     1       2.527 -14.384   0.631  0.00  0.00    -0.276 OA
ATOM     15  C   UNL     1       0.532 -14.328   1.891  0.00  0.00    +0.109 C 
ATOM     16  H   UNL     1       1.564 -11.938   2.246  0.00  0.00    +0.149 HD
ENDBRANCH  11  12
ENDBRANCH   9  11
ENDBRANCH   3   6
ENDBRANCH   1   2
BRANCH   1  17
ATOM     17  C   UNL     1       1.717  -3.909  -0.039  0.00  0.00    -0.020 C 
BRANCH  17  22
ATOM     18  C   UNL     1      -0.293   1.422   0.215  0.00  0.00    +0.007 C 
ATOM     19  C   UNL     1      -0.191  -0.104   0.153  0.00  0.00    -0.018 C 
ATOM     20  C   UNL     1       0.538  -0.517  -1.128  0.00  0.00    -0.015 C 
ATOM     21  C   UNL     1       0.708  -2.037  -1.145  0.00  0.00    -0.078 C 
ATOM     22  N   UNL     1       1.491  -2.459   0.023  0.00  0.00    +0.385 N 
ATOM     23  C   UNL     1       0.764  -2.130   1.255  0.00  0.00    -0.078 C 
ATOM     24  C   UNL     1       0.597  -0.613   1.364  0.00  0.00    -0.015 C 
ATOM     25  H   UNL     1       2.380  -1.982   0.021  0.00  0.00    -0.081 HD
ENDBRANCH  17  22
BRANCH  17  26
ATOM     26  C   UNL     1       2.421  -4.254  -1.326  0.00  0.00    -0.059 A 
ATOM     27  C   UNL     1       3.430  -3.438  -1.802  0.00  0.00    +0.002 A 
ATOM     28  C   UNL     1       4.075  -3.754  -2.982  0.00  0.00    +0.000 A 
ATOM     29  C   UNL     1       3.712  -4.886  -3.687  0.00  0.00    +0.000 A 
ATOM     30  C   UNL     1       2.704  -5.703  -3.211  0.00  0.00    +0.000 A 
ATOM     31  C   UNL     1       2.061  -5.389  -2.027  0.00  0.00    +0.002 A 
ENDBRANCH  17  26
ENDBRANCH   1  17
TORSDOF 7
