REMARK  Name = ZINC33933662
REMARK  9 active torsions:
REMARK  status: ('A' for Active; 'I' for Inactive)
REMARK    1  A    between atoms: C_1  and  C_2
REMARK    2  A    between atoms: C_3  and  C_31
REMARK    3  A    between atoms: C_5  and  C_18
REMARK    4  A    between atoms: N_6  and  C_7
REMARK    5  A    between atoms: C_7  and  C_9
REMARK    6  A    between atoms: C_7  and  C_10
REMARK    7  A    between atoms: C_10  and  C_11
REMARK    8  A    between atoms: C_11  and  C_12
REMARK    9  A    between atoms: C_20  and  C_23
REMARK                            x       y       z     vdW  Elec       q    Type
REMARK                         _______ _______ _______ _____ _____    ______ ____
ROOT
ATOM      1  C   UNL     1       0.227   0.822  -0.393  0.00  0.00    +0.064 C 
ATOM      2  C   UNL     1       0.127  -0.635  -0.022  0.00  0.00    +0.029 A 
ATOM      3  C   UNL     1       0.020  -1.688  -0.907  0.00  0.00    +0.058 A 
ATOM      4  C   UNL     1      -0.046  -2.874  -0.135  0.00  0.00    +0.044 A 
ATOM      5  C   UNL     1       0.022  -2.502   1.173  0.00  0.00    +0.089 A 
ATOM      6  N   UNL     1       0.133  -1.133   1.229  0.00  0.00    -0.338 N 
ENDROOT
BRANCH   5   7
ATOM      7  C   UNL     1      -0.012  -3.412   2.330  0.00  0.00    +0.184 A 
ATOM      8  C   UNL     1       0.077  -4.770   2.284  0.00  0.00    +0.082 A 
ATOM      9  C   UNL     1       0.003  -5.254   3.607  0.00  0.00    +0.115 A 
ATOM     10  N   UNL     1      -0.125  -4.223   4.410  0.00  0.00    -0.078 NA
ATOM     11  O   UNL     1      -0.132  -3.048   3.621  0.00  0.00    -0.353 OA
BRANCH   9  12
ATOM     12  C   UNL     1       0.061  -6.679   4.019  0.00  0.00    +0.022 A 
ATOM     13  C   UNL     1       0.206  -7.679   3.060  0.00  0.00    +0.013 A 
ATOM     14  C   UNL     1       0.259  -9.002   3.447  0.00  0.00    +0.021 A 
ATOM     15  C   UNL     1       0.168  -9.338   4.788  0.00  0.00    +0.042 A 
ATOM     16  C   UNL     1       0.024  -8.349   5.745  0.00  0.00    +0.040 A 
ATOM     17  C   UNL     1      -0.024  -7.021   5.368  0.00  0.00    +0.052 A 
ATOM     18 CL   UNL     1      -0.197  -5.781   6.571  0.00  0.00    -0.083 Cl
ATOM     19 CL   UNL     1       0.235 -11.004   5.268  0.00  0.00    -0.083 Cl
ENDBRANCH   9  12
ENDBRANCH   5   7
BRANCH   3  20
ATOM     20  C   UNL     1      -0.018  -1.597  -2.377  0.00  0.00    +0.243 C 
ATOM     21  O   UNL     1       0.048  -0.511  -2.921  0.00  0.00    -0.270 OA
ATOM     22  N   UNL     1      -0.125  -2.717  -3.119  0.00  0.00    -0.325 N 
ATOM     23  H   UNL     1      -0.178  -3.583  -2.686  0.00  0.00    +0.145 HD
ATOM     24  H   UNL     1      -0.150  -2.657  -4.087  0.00  0.00    +0.145 HD
ENDBRANCH   3  20
BRANCH   6  25
ATOM     25  C   UNL     1       0.238  -0.340   2.457  0.00  0.00    +0.085 C 
ATOM     26  C   UNL     1       1.467   0.568   2.374  0.00  0.00    +0.031 C 
BRANCH  25  27
ATOM     27  C   UNL     1      -1.019   0.517   2.619  0.00  0.00    +0.029 C 
BRANCH  27  28
ATOM     28  C   UNL     1      -0.973   1.240   3.967  0.00  0.00    +0.037 C 
BRANCH  28  29
ATOM     29  C   UNL     1      -2.211   2.084   4.127  0.00  0.00    -0.047 A 
ATOM     30  C   UNL     1      -2.218   3.392   3.682  0.00  0.00    +0.003 A 
ATOM     31  C   UNL     1      -3.353   4.167   3.828  0.00  0.00    +0.000 A 
ATOM     32  C   UNL     1      -4.482   3.632   4.420  0.00  0.00    +0.000 A 
ATOM     33  C   UNL     1      -4.476   2.324   4.865  0.00  0.00    +0.000 A 
ATOM     34  C   UNL     1      -3.342   1.548   4.715  0.00  0.00    +0.003 A 
ENDBRANCH  28  29
ENDBRANCH  27  28
ENDBRANCH  25  27
ENDBRANCH   6  25
TORSDOF 7
