REMARK  Name = ZINC26772763
REMARK  8 active torsions:
REMARK  status: ('A' for Active; 'I' for Inactive)
REMARK    1  A    between atoms: C_4  and  C_7
REMARK    2  A    between atoms: C_7  and  C_8
REMARK    3  A    between atoms: C_8  and  C_10
REMARK    4  A    between atoms: C_8  and  N_27
REMARK    5  A    between atoms: N_12  and  N_13
REMARK    6  A    between atoms: C_14  and  C_16
REMARK    7  A    between atoms: C_16  and  C_17
REMARK    8  A    between atoms: C_28  and  C_30
REMARK                            x       y       z     vdW  Elec       q    Type
REMARK                         _______ _______ _______ _____ _____    ______ ____
ROOT
ATOM      1  C   UNL     1       7.191   0.181  -0.666  0.00  0.00    +0.250 C 
ATOM      2  O   UNL     1       6.904   1.296  -1.047  0.00  0.00    -0.272 OA
ATOM      3  N   UNL     1       8.457  -0.268  -0.785  0.00  0.00    -0.233 N 
ATOM      4  H   UNL     1       8.716  -1.279  -0.440  0.00  0.00    +0.173 HD
ENDROOT
BRANCH   3   5
ATOM      5  N   UNL     1       9.441   0.555  -1.348  0.00  0.00    -0.234 N 
ATOM      6  C   UNL     1      10.707   0.106  -1.467  0.00  0.00    +0.230 C 
ATOM      7  O   UNL     1      10.993  -1.009  -1.086  0.00  0.00    -0.274 OA
ATOM      8  H   UNL     1       9.181   1.566  -1.694  0.00  0.00    +0.173 HD
BRANCH   6   9
ATOM      9  C   UNL     1      11.766   0.991  -2.073  0.00  0.00    +0.104 C 
BRANCH   9  10
ATOM     10  C   UNL     1      13.103   0.247  -2.089  0.00  0.00    -0.020 C 
ATOM     11  C   UNL     1      13.501  -0.118  -0.658  0.00  0.00    +0.011 C 
ATOM     12  C   UNL     1      14.838  -0.861  -0.675  0.00  0.00    -0.010 C 
ATOM     13  C   UNL     1      15.913   0.037  -1.290  0.00  0.00    +0.007 C 
ATOM     14  C   UNL     1      15.515   0.402  -2.721  0.00  0.00    -0.010 C 
ATOM     15  C   UNL     1      14.178   1.146  -2.704  0.00  0.00    +0.011 C 
ATOM     16  C   UNL     1      15.379  -0.874  -3.554  0.00  0.00    +0.007 C 
ATOM     17  C   UNL     1      14.303  -1.772  -2.939  0.00  0.00    -0.010 C 
ATOM     18  C   UNL     1      14.702  -2.138  -1.508  0.00  0.00    +0.007 C 
ATOM     19  C   UNL     1      12.966  -1.029  -2.922  0.00  0.00    +0.011 C 
ENDBRANCH   9  10
ENDBRANCH   6   9
ENDBRANCH   3   5
BRANCH   1  20
ATOM     20  C   UNL     1       6.132  -0.704  -0.061  0.00  0.00    +0.165 C 
BRANCH  20  21
ATOM     21  N   UNL     1       4.852   0.008  -0.045  0.00  0.00    -0.300 N 
ATOM     22  C   UNL     1       3.696  -0.685  -0.037  0.00  0.00    +0.245 C 
ATOM     23  O   UNL     1       3.715  -1.900  -0.044  0.00  0.00    -0.270 OA
ATOM     24  H   UNL     1       4.834   1.108  -0.038  0.00  0.00    +0.150 HD
BRANCH  22  25
ATOM     25  C   UNL     1       2.403   0.034  -0.021  0.00  0.00    +0.037 A 
ATOM     26  C   UNL     1       1.204  -0.681  -0.013  0.00  0.00    +0.013 A 
ATOM     27  C   UNL     1       0.002  -0.004   0.002  0.00  0.00    +0.001 A 
ATOM     28  C   UNL     1      -0.017   1.379   0.010  0.00  0.00    +0.000 A 
ATOM     29  C   UNL     1       1.168   2.094   0.002  0.00  0.00    +0.001 A 
ATOM     30  C   UNL     1       2.377   1.429  -0.013  0.00  0.00    +0.013 A 
ENDBRANCH  22  25
ENDBRANCH  20  21
BRANCH  20  31
ATOM     31  C   UNL     1       6.530  -1.069   1.371  0.00  0.00    +0.067 C 
BRANCH  31  35
ATOM     32  C   UNL     1       3.710  -3.852   2.968  0.00  0.00    +0.000 A 
ATOM     33  C   UNL     1       4.827  -4.310   2.294  0.00  0.00    +0.000 A 
ATOM     34  C   UNL     1       5.739  -3.409   1.777  0.00  0.00    +0.004 A 
ATOM     35  C   UNL     1       5.535  -2.051   1.934  0.00  0.00    -0.045 A 
ATOM     36  C   UNL     1       4.421  -1.594   2.613  0.00  0.00    +0.004 A 
ATOM     37  C   UNL     1       3.506  -2.494   3.125  0.00  0.00    +0.000 A 
ENDBRANCH  31  35
ENDBRANCH  20  31
ENDBRANCH   1  20
TORSDOF 8
