REMARK  Name = ZINC01134762
REMARK  9 active torsions:
REMARK  status: ('A' for Active; 'I' for Inactive)
REMARK    1  A    between atoms: C_1  and  C_2
REMARK    2  A    between atoms: C_6  and  C_12
REMARK    3  A    between atoms: C_7  and  C_11
REMARK    4  A    between atoms: C_13  and  O_15
REMARK    5  A    between atoms: O_15  and  C_16
REMARK    6  A    between atoms: C_16  and  C_18
REMARK    7  A    between atoms: C_16  and  C_24
REMARK    8  A    between atoms: C_24  and  O_26
REMARK    9  A    between atoms: O_26  and  C_27
REMARK                            x       y       z     vdW  Elec       q    Type
REMARK                         _______ _______ _______ _____ _____    ______ ____
ROOT
ATOM      1  C   UNL     1       1.860  -1.809  -3.681  0.00  0.00    +0.044 C 
ATOM      2  C   UNL     1       0.882  -0.663  -3.641  0.00  0.00    -0.043 A 
ATOM      3  C   UNL     1       0.135  -0.364  -4.763  0.00  0.00    +0.050 A 
ATOM      4  C   UNL     1      -0.768   0.689  -4.737  0.00  0.00    +0.143 A 
ATOM      5  C   UNL     1      -0.915   1.446  -3.561  0.00  0.00    +0.062 A 
ATOM      6  C   UNL     1      -1.871   2.554  -3.544  0.00  0.00    -0.027 A 
ATOM      7  C   UNL     1      -2.582   2.806  -4.674  0.00  0.00    +0.038 A 
ATOM      8  C   UNL     1      -2.384   2.006  -5.819  0.00  0.00    +0.340 A 
ATOM      9  O   UNL     1      -3.028   2.242  -6.825  0.00  0.00    -0.245 OA
ATOM     10  O   UNL     1      -1.506   0.992  -5.827  0.00  0.00    -0.422 OA
ATOM     11  C   UNL     1      -3.577   3.937  -4.705  0.00  0.00    +0.051 C 
ATOM     12  C   UNL     1      -2.062   3.393  -2.307  0.00  0.00    +0.045 C 
ATOM     13  C   UNL     1      -0.149   1.133  -2.427  0.00  0.00    +0.133 A 
ATOM     14  C   UNL     1       0.749   0.082  -2.481  0.00  0.00    +0.050 A 
ENDROOT
BRANCH  13  15
ATOM     15  O   UNL     1      -0.285   1.860  -1.289  0.00  0.00    -0.472 OA
BRANCH  15  16
ATOM     16  C   UNL     1       0.577   1.525  -0.199  0.00  0.00    +0.311 C 
BRANCH  16  17
ATOM     17  C   UNL     1      -0.047   1.983   1.094  0.00  0.00    +0.004 A 
ATOM     18  C   UNL     1      -0.783   3.152   1.130  0.00  0.00    +0.008 A 
ATOM     19  C   UNL     1      -1.359   3.570   2.315  0.00  0.00    +0.000 A 
ATOM     20  C   UNL     1      -1.191   2.824   3.466  0.00  0.00    +0.000 A 
ATOM     21  C   UNL     1      -0.450   1.657   3.432  0.00  0.00    +0.000 A 
ATOM     22  C   UNL     1       0.122   1.237   2.245  0.00  0.00    +0.008 A 
ENDBRANCH  16  17
BRANCH  16  23
ATOM     23  C   UNL     1       1.909   2.206  -0.384  0.00  0.00    +0.353 C 
ATOM     24  O   UNL     1       2.071   2.977  -1.299  0.00  0.00    -0.246 OA
BRANCH  23  25
ATOM     25  O   UNL     1       2.914   1.956   0.469  0.00  0.00    -0.465 OA
ATOM     26  C   UNL     1       4.168   2.648   0.231  0.00  0.00    +0.280 C 
ENDBRANCH  23  25
ENDBRANCH  16  23
ENDBRANCH  15  16
ENDBRANCH  13  15
TORSDOF 5
