REMARK  Name = ZINC05718870
REMARK  5 active torsions:
REMARK  status: ('A' for Active; 'I' for Inactive)
REMARK    1  A    between atoms: C_1  and  C_2
REMARK    2  A    between atoms: C_2  and  O_3
REMARK    3  A    between atoms: O_3  and  C_4
REMARK    4  A    between atoms: C_9  and  C_10
REMARK    5  A    between atoms: N_14  and  N_18
REMARK                            x       y       z     vdW  Elec       q    Type
REMARK                         _______ _______ _______ _____ _____    ______ ____
ROOT
ATOM      1  C   UNL     1      -0.057   5.318   0.031  0.00  0.00    +0.032 C 
ATOM      2  C   UNL     1       0.906   6.003   0.699  0.00  0.00    +0.079 C 
ATOM      3  C   UNL     1       2.104   5.500   1.401  0.00  0.00    +0.272 C 
ATOM      4  O   UNL     1       2.364   4.312   1.451  0.00  0.00    -0.268 OA
ATOM      5  N   UNL     1       2.881   6.406   1.971  0.00  0.00    -0.189 N 
ATOM      6  C   UNL     1       2.585   7.721   1.919  0.00  0.00    +0.135 C 
ATOM      7  S   UNL     1       3.454   9.033   2.593  0.00  0.00    -0.026 S 
ATOM      8  S   UNL     1       1.068   7.761   0.978  0.00  0.00    -0.060 S 
ENDROOT
BRANCH   1  14
ATOM      9  C   UNL     1      -0.994   3.012  -0.063  0.00  0.00    +0.128 A 
ATOM     10  C   UNL     1      -0.834   1.657  -0.300  0.00  0.00    +0.046 A 
ATOM     11  C   UNL     1       0.400   1.159  -0.672  0.00  0.00    +0.004 A 
ATOM     12  C   UNL     1       1.484   2.009  -0.821  0.00  0.00    +0.001 A 
ATOM     13  C   UNL     1       1.344   3.361  -0.594  0.00  0.00    +0.011 A 
ATOM     14  C   UNL     1       0.101   3.879  -0.212  0.00  0.00    +0.018 A 
BRANCH   9  15
ATOM     15  O   UNL     1      -2.205   3.502   0.307  0.00  0.00    -0.492 OA
BRANCH  15  17
ATOM     16  C   UNL     1      -4.548   3.292   0.859  0.00  0.00    +0.048 C 
ATOM     17  C   UNL     1      -3.272   2.561   0.439  0.00  0.00    +0.226 C 
ENDBRANCH  15  17
ENDBRANCH   9  15
ENDBRANCH   1  14
BRANCH   5  18
ATOM     18  N   UNL     1       4.006   6.000   2.631  0.00  0.00    -0.246 NA
ATOM     19  H   UNL     1       4.501   6.789   3.020  0.00  0.00    +0.141 HD
ATOM     20  H   UNL     1       3.781   5.325   3.347  0.00  0.00    +0.141 HD
ENDBRANCH   5  18
TORSDOF 4
