REMARK  Name = ZINC34864720
REMARK  15 active torsions:
REMARK  status: ('A' for Active; 'I' for Inactive)
REMARK    1  A    between atoms: C_1  and  C_2
REMARK    2  A    between atoms: N_8  and  C_9
REMARK    3  A    between atoms: C_9  and  C_10
REMARK    4  A    between atoms: C_10  and  C_11
REMARK    5  A    between atoms: C_11  and  N_12
REMARK    6  A    between atoms: C_13  and  C_15
REMARK    7  A    between atoms: C_18  and  C_20
REMARK    8  A    between atoms: C_20  and  N_21
REMARK    9  A    between atoms: N_21  and  C_22
REMARK   10  A    between atoms: C_22  and  C_23
REMARK   11  A    between atoms: C_23  and  O_24
REMARK   12  A    between atoms: O_24  and  C_25
REMARK   13  A    between atoms: N_28  and  C_29
REMARK   14  A    between atoms: C_32  and  O_35
REMARK   15  A    between atoms: O_35  and  C_36
REMARK                            x       y       z     vdW  Elec       q    Type
REMARK                         _______ _______ _______ _____ _____    ______ ____
ROOT
ATOM      1  C   UNL     1       7.302  -0.356   4.862  0.00  0.00    +0.133 A 
ATOM      2  C   UNL     1       8.569   0.003   5.239  0.00  0.00    +0.080 A 
ATOM      3  S   UNL     1       8.651  -0.565   6.817  0.00  0.00    -0.078 S 
ATOM      4  C   UNL     1       7.113  -1.226   6.949  0.00  0.00    +0.096 A 
ATOM      5  N   UNL     1       6.572  -0.991   5.784  0.00  0.00    -0.238 NA
ENDROOT
BRANCH   1   7
ATOM      6  N   UNL     1       5.519  -0.423   3.193  0.00  0.00    -0.310 N 
ATOM      7  C   UNL     1       6.773  -0.056   3.521  0.00  0.00    +0.263 C 
ATOM      8  O   UNL     1       7.469   0.523   2.708  0.00  0.00    -0.269 OA
ATOM      9  H   UNL     1       4.964  -0.885   3.841  0.00  0.00    +0.149 HD
BRANCH   6  10
ATOM     10  C   UNL     1       4.992  -0.124   1.859  0.00  0.00    +0.103 C 
BRANCH  10  11
ATOM     11  C   UNL     1       3.558  -0.644   1.748  0.00  0.00    +0.000 C 
BRANCH  11  12
ATOM     12  C   UNL     1       3.008  -0.332   0.355  0.00  0.00    -0.077 C 
BRANCH  12  19
ATOM     13  C   UNL     1       1.139   1.096  -1.179  0.00  0.00    -0.013 C 
ATOM     14  C   UNL     1       1.064  -0.426  -1.043  0.00  0.00    -0.072 C 
ATOM     15  C   UNL     1      -0.398  -0.873  -1.125  0.00  0.00    -0.016 C 
ATOM     16  C   UNL     1      -0.468  -2.397  -0.989  0.00  0.00    -0.003 C 
ATOM     17  C   UNL     1       0.194  -2.813   0.328  0.00  0.00    -0.019 C 
ATOM     18  C   UNL     1       1.633  -2.294   0.355  0.00  0.00    -0.078 C 
ATOM     19  N   UNL     1       1.631  -0.830   0.249  0.00  0.00    +0.381 N 
ATOM     20  H   UNL     1       1.075  -0.440   0.995  0.00  0.00    -0.081 HD
ENDBRANCH  12  19
ENDBRANCH  11  12
ENDBRANCH  10  11
ENDBRANCH   6  10
ENDBRANCH   1   7
BRANCH   4  21
ATOM     21  C   UNL     1       6.498  -1.921   8.136  0.00  0.00    +0.172 C 
BRANCH  21  22
ATOM     22  N   UNL     1       6.780  -3.357   8.060  0.00  0.00    -0.277 N 
ATOM     23  C   UNL     1       5.925  -4.179   7.421  0.00  0.00    +0.307 C 
ATOM     24  O   UNL     1       4.919  -3.729   6.907  0.00  0.00    -0.252 OA
ATOM     25  N   UNL     1       6.184  -5.500   7.351  0.00  0.00    -0.269 N 
ATOM     26  H   UNL     1       7.022  -5.848   7.693  0.00  0.00    +0.156 HD
BRANCH  25  27
ATOM     27  C   UNL     1       5.243  -6.370   6.785  0.00  0.00    +0.035 A 
ATOM     28  C   UNL     1       5.666  -7.495   6.091  0.00  0.00    +0.027 A 
ATOM     29  C   UNL     1       4.738  -8.353   5.534  0.00  0.00    +0.047 A 
ATOM     30  C   UNL     1       3.383  -8.089   5.667  0.00  0.00    +0.120 A 
ATOM     31  C   UNL     1       2.959  -6.965   6.359  0.00  0.00    +0.047 A 
ATOM     32  C   UNL     1       3.886  -6.110   6.922  0.00  0.00    +0.027 A 
BRANCH  30  33
ATOM     33  O   UNL     1       2.469  -8.934   5.118  0.00  0.00    -0.495 OA
ATOM     34  C   UNL     1       1.091  -8.601   5.293  0.00  0.00    +0.277 C 
ENDBRANCH  30  33
ENDBRANCH  25  27
BRANCH  22  35
ATOM     35  C   UNL     1       7.992  -3.899   8.680  0.00  0.00    +0.138 C 
BRANCH  35  36
ATOM     36  C   UNL     1       7.692  -4.295  10.127  0.00  0.00    +0.178 C 
BRANCH  36  37
ATOM     37  O   UNL     1       6.747  -5.367  10.142  0.00  0.00    -0.381 OA
ATOM     38  C   UNL     1       6.397  -5.815  11.453  0.00  0.00    +0.194 C 
ENDBRANCH  36  37
ENDBRANCH  35  36
ENDBRANCH  22  35
ENDBRANCH  21  22
ENDBRANCH   4  21
TORSDOF 12
