REMARK  Name = ZINC00647266
REMARK  8 active torsions:
REMARK  status: ('A' for Active; 'I' for Inactive)
REMARK    1  A    between atoms: C_1  and  C_2
REMARK    2  A    between atoms: C_2  and  O_3
REMARK    3  A    between atoms: O_3  and  C_4
REMARK    4  A    between atoms: C_4  and  C_6
REMARK    5  A    between atoms: C_10  and  N_11
REMARK    6  A    between atoms: C_12  and  C_14
REMARK    7  A    between atoms: C_20  and  C_29
REMARK    8  A    between atoms: C_23  and  C_25
REMARK                            x       y       z     vdW  Elec       q    Type
REMARK                         _______ _______ _______ _____ _____    ______ ____
ROOT
ATOM      1  C   UNL     1      -3.317  -2.669   4.912  0.00  0.00    +0.096 A 
ATOM      2  C   UNL     1      -2.063  -2.127   5.294  0.00  0.00    +0.149 A 
ATOM      3  N   UNL     1      -2.002  -2.117   6.598  0.00  0.00    -0.177 NA
ATOM      4  N   UNL     1      -3.185  -2.640   7.117  0.00  0.00    -0.238 N 
ATOM      5  C   UNL     1      -3.992  -2.970   6.080  0.00  0.00    +0.130 A 
ATOM      6  N   UNL     1      -5.254  -3.511   6.253  0.00  0.00    -0.322 N 
ATOM      7  C   UNL     1      -5.810  -3.447   7.619  0.00  0.00    +0.104 C 
ATOM      8  C   UNL     1      -4.704  -3.828   8.611  0.00  0.00    +0.063 C 
ATOM      9  C   UNL     1      -3.554  -2.821   8.524  0.00  0.00    +0.215 C 
ATOM     10  H   UNL     1      -5.747  -3.908   5.518  0.00  0.00    +0.148 HD
ENDROOT
BRANCH   7  11
ATOM     11  C   UNL     1      -6.961  -4.412   7.744  0.00  0.00    -0.027 A 
ATOM     12  C   UNL     1      -6.883  -5.660   7.154  0.00  0.00    +0.005 A 
ATOM     13  C   UNL     1      -7.939  -6.545   7.268  0.00  0.00    +0.000 A 
ATOM     14  C   UNL     1      -9.072  -6.182   7.972  0.00  0.00    +0.000 A 
ATOM     15  C   UNL     1      -9.150  -4.934   8.561  0.00  0.00    +0.000 A 
ATOM     16  C   UNL     1      -8.092  -4.051   8.451  0.00  0.00    +0.005 A 
ENDBRANCH   7  11
BRANCH   1  18
ATOM     17  N   UNL     1      -3.031  -2.522   2.495  0.00  0.00    -0.275 N 
ATOM     18  C   UNL     1      -3.806  -2.865   3.543  0.00  0.00    +0.253 C 
ATOM     19  O   UNL     1      -4.911  -3.338   3.353  0.00  0.00    -0.270 OA
ATOM     20  H   UNL     1      -2.151  -2.145   2.646  0.00  0.00    +0.156 HD
BRANCH  17  25
ATOM     21  C   UNL     1      -2.842  -2.416   0.016  0.00  0.00    +0.091 A 
ATOM     22  C   UNL     1      -3.552  -2.715  -1.227  0.00  0.00    -0.021 A 
ATOM     23  C   UNL     1      -4.776  -3.241  -1.047  0.00  0.00    -0.004 A 
ATOM     24  S   UNL     1      -4.970  -3.333   0.714  0.00  0.00    -0.077 S 
ATOM     25  C   UNL     1      -3.493  -2.708   1.202  0.00  0.00    +0.087 A 
ATOM     26  C   UNL     1      -5.463  -3.525  -2.356  0.00  0.00    +0.043 C 
ATOM     27  C   UNL     1      -4.669  -2.707  -3.399  0.00  0.00    +0.010 C 
ATOM     28  C   UNL     1      -3.285  -2.598  -2.727  0.00  0.00    +0.037 C 
BRANCH  21  29
ATOM     29  C   UNL     1      -1.497  -1.838   0.006  0.00  0.00    +0.342 C 
ATOM     30  O   UNL     1      -0.522  -2.566  -0.007  0.00  0.00    -0.245 OA
BRANCH  29  31
ATOM     31  O   UNL     1      -1.339  -0.499   0.012  0.00  0.00    -0.461 OA
BRANCH  31  33
ATOM     32  C   UNL     1      -0.019   1.526   0.010  0.00  0.00    +0.048 C 
ATOM     33  C   UNL     1       0.002  -0.004   0.002  0.00  0.00    +0.229 C 
ENDBRANCH  31  33
ENDBRANCH  29  31
ENDBRANCH  21  29
ENDBRANCH  17  25
ENDBRANCH   1  18
BRANCH   9  34
ATOM     34  C   UNL     1      -2.346  -3.337   9.309  0.00  0.00    +0.412 C 
ATOM     35  F   UNL     1      -1.301  -2.411   9.217  0.00  0.00    -0.168 F 
ATOM     36  F   UNL     1      -2.701  -3.509  10.651  0.00  0.00    -0.168 F 
ATOM     37  F   UNL     1      -1.932  -4.562   8.775  0.00  0.00    -0.168 F 
ENDBRANCH   9  34
TORSDOF 7
