REMARK  Name = ZINC09883124
REMARK  9 active torsions:
REMARK  status: ('A' for Active; 'I' for Inactive)
REMARK    1  A    between atoms: C_1  and  C_2
REMARK    2  A    between atoms: C_5  and  S_8
REMARK    3  A    between atoms: S_8  and  N_11
REMARK    4  A    between atoms: N_11  and  C_12
REMARK    5  A    between atoms: C_12  and  C_13
REMARK    6  A    between atoms: C_13  and  O_15
REMARK    7  A    between atoms: O_15  and  C_16
REMARK    8  A    between atoms: C_16  and  C_17
REMARK    9  A    between atoms: N_19  and  C_20
REMARK                            x       y       z     vdW  Elec       q    Type
REMARK                         _______ _______ _______ _____ _____    ______ ____
ROOT
ATOM      1  O   UNL     1      -4.522   3.831  -4.455  0.00  0.00    -0.454 OA
ENDROOT
BRANCH   1   2
ATOM      2  C   UNL     1      -4.396   2.529  -4.155  0.00  0.00    +0.323 C 
ATOM      3  O   UNL     1      -3.496   1.883  -4.636  0.00  0.00    -0.249 OA
BRANCH   2   4
ATOM      4  C   UNL     1      -5.378   1.873  -3.217  0.00  0.00    +0.226 C 
BRANCH   4   5
ATOM      5  N   UNL     1      -5.027   0.461  -3.053  0.00  0.00    -0.179 NA
ATOM      6  H   UNL     1      -4.408   0.040  -3.671  0.00  0.00    +0.149 HD
BRANCH   5   7
ATOM      7  S   UNL     1      -5.685  -0.418  -1.814  0.00  0.00    +0.059 S 
ATOM      8  O   UNL     1      -5.178  -1.739  -1.938  0.00  0.00    -0.153 OA
ATOM      9  O   UNL     1      -5.516   0.355  -0.633  0.00  0.00    -0.153 OA
BRANCH   7  14
ATOM     10  C   UNL     1     -11.625  -0.748  -2.820  0.00  0.00    +0.044 C 
ATOM     11  C   UNL     1     -10.142  -0.666  -2.568  0.00  0.00    -0.050 A 
ATOM     12  C   UNL     1      -9.299  -1.634  -3.081  0.00  0.00    +0.005 A 
ATOM     13  C   UNL     1      -7.938  -1.559  -2.850  0.00  0.00    +0.029 A 
ATOM     14  C   UNL     1      -7.420  -0.514  -2.108  0.00  0.00    +0.105 A 
ATOM     15  C   UNL     1      -8.263   0.452  -1.591  0.00  0.00    +0.029 A 
ATOM     16  C   UNL     1      -9.624   0.379  -1.826  0.00  0.00    +0.005 A 
ENDBRANCH   7  14
ENDBRANCH   5   7
ENDBRANCH   4   5
ENDBRANCH   2   4
ENDBRANCH   1   2
BRANCH   1  17
ATOM     17  C   UNL     1      -3.541   4.396  -5.364  0.00  0.00    +0.328 C 
BRANCH  17  18
ATOM     18  C   UNL     1      -3.841   5.857  -5.581  0.00  0.00    +0.255 C 
ATOM     19  O   UNL     1      -4.788   6.372  -5.024  0.00  0.00    -0.272 OA
ATOM     20  N   UNL     1      -3.056   6.592  -6.394  0.00  0.00    -0.278 N 
ATOM     21  H   UNL     1      -2.258   6.201  -6.781  0.00  0.00    +0.155 HD
BRANCH  20  22
ATOM     22  C   UNL     1      -3.395   7.923  -6.681  0.00  0.00    +0.111 A 
ATOM     23  C   UNL     1      -4.216   8.214  -7.763  0.00  0.00    +0.185 A 
ATOM     24  C   UNL     1      -4.553   9.528  -8.041  0.00  0.00    +0.198 A 
ATOM     25  C   UNL     1      -4.063  10.553  -7.247  0.00  0.00    +0.199 A 
ATOM     26  C   UNL     1      -3.240  10.265  -6.170  0.00  0.00    +0.198 A 
ATOM     27  C   UNL     1      -2.905   8.952  -5.886  0.00  0.00    +0.185 A 
ATOM     28  F   UNL     1      -2.101   8.671  -4.836  0.00  0.00    -0.200 F 
ATOM     29  F   UNL     1      -2.764  11.266  -5.398  0.00  0.00    -0.199 F 
ATOM     30  F   UNL     1      -4.389  11.835  -7.523  0.00  0.00    -0.199 F 
ATOM     31  F   UNL     1      -5.356   9.812  -9.091  0.00  0.00    -0.199 F 
ATOM     32  F   UNL     1      -4.689   7.216  -8.540  0.00  0.00    -0.200 F 
ENDBRANCH  20  22
ENDBRANCH  17  18
ENDBRANCH   1  17
TORSDOF 8
