REMARK  Name = ZINC20859668
REMARK  7 active torsions:
REMARK  status: ('A' for Active; 'I' for Inactive)
REMARK    1  A    between atoms: C_4  and  N_31
REMARK    2  A    between atoms: C_5  and  N_7
REMARK    3  A    between atoms: C_8  and  C_10
REMARK    4  A    between atoms: C_10  and  C_19
REMARK    5  A    between atoms: C_11  and  C_12
REMARK    6  A    between atoms: N_21  and  C_22
REMARK    7  A    between atoms: C_27  and  N_28
REMARK                            x       y       z     vdW  Elec       q    Type
REMARK                         _______ _______ _______ _____ _____    ______ ____
ROOT
ATOM      1  C   UNL     1      -4.704  -0.038   0.042  0.00  0.00    +0.099 C 
ATOM      2  C   UNL     1      -5.893  -0.729  -0.028  0.00  0.00    +0.026 C 
ENDROOT
BRANCH   2   3
ATOM      3  C   UNL     1      -5.908  -2.183   0.158  0.00  0.00    -0.024 A 
ATOM      4  C   UNL     1      -4.859  -2.968  -0.338  0.00  0.00    +0.009 A 
ATOM      5  C   UNL     1      -4.878  -4.333  -0.154  0.00  0.00    +0.020 A 
ATOM      6  C   UNL     1      -5.937  -4.932   0.509  0.00  0.00    +0.041 A 
ATOM      7  C   UNL     1      -6.982  -4.164   0.998  0.00  0.00    +0.020 A 
ATOM      8  C   UNL     1      -6.976  -2.797   0.828  0.00  0.00    +0.009 A 
ATOM      9 CL   UNL     1      -5.955  -6.654   0.730  0.00  0.00    -0.084 Cl
ENDBRANCH   2   3
BRANCH   1  11
ATOM     10  N   UNL     1      -3.512   2.080  -0.194  0.00  0.00    -0.279 N 
ATOM     11  C   UNL     1      -4.686   1.419  -0.161  0.00  0.00    +0.253 C 
ATOM     12  O   UNL     1      -5.731   2.026  -0.299  0.00  0.00    -0.270 OA
ATOM     13  H   UNL     1      -2.565   1.524  -0.131  0.00  0.00    +0.155 HD
BRANCH  10  18
ATOM     14  C   UNL     1      -4.512   5.505  -1.082  0.00  0.00    +0.002 A 
ATOM     15  C   UNL     1      -3.470   6.231  -0.535  0.00  0.00    +0.002 A 
ATOM     16  C   UNL     1      -2.442   5.583   0.124  0.00  0.00    +0.034 A 
ATOM     17  C   UNL     1      -2.453   4.207   0.239  0.00  0.00    +0.147 A 
ATOM     18  C   UNL     1      -3.498   3.474  -0.308  0.00  0.00    +0.064 A 
ATOM     19  C   UNL     1      -4.527   4.128  -0.975  0.00  0.00    +0.025 A 
BRANCH  17  20
ATOM     20  N   UNL     1      -1.352   3.513   0.945  0.00  0.00    +0.058 N 
ATOM     21  O   UNL     1      -0.481   4.160   1.498  0.00  0.00    -0.126 OA
ATOM     22  O   UNL     1      -1.318   2.296   0.973  0.00  0.00    -0.126 OA
ENDBRANCH  17  20
ENDBRANCH  10  18
ENDBRANCH   1  11
BRANCH   1  23
ATOM     23  C   UNL     1      -3.451  -0.758   0.319  0.00  0.00    +0.253 C 
ATOM     24  O   UNL     1      -2.663  -0.977  -0.582  0.00  0.00    -0.270 OA
ATOM     25  N   UNL     1      -3.175  -1.174   1.571  0.00  0.00    -0.279 N 
ATOM     26  H   UNL     1      -3.917  -1.038   2.372  0.00  0.00    +0.155 HD
BRANCH  25  27
ATOM     27  C   UNL     1      -1.946  -1.778   1.852  0.00  0.00    +0.064 A 
ATOM     28  C   UNL     1      -0.798  -1.364   1.188  0.00  0.00    +0.025 A 
ATOM     29  C   UNL     1       0.414  -1.964   1.468  0.00  0.00    +0.002 A 
ATOM     30  C   UNL     1       0.486  -2.975   2.409  0.00  0.00    +0.002 A 
ATOM     31  C   UNL     1      -0.653  -3.386   3.075  0.00  0.00    +0.034 A 
ATOM     32  C   UNL     1      -1.870  -2.794   2.796  0.00  0.00    +0.147 A 
BRANCH  32  33
ATOM     33  N   UNL     1      -3.090  -3.238   3.507  0.00  0.00    +0.058 N 
ATOM     34  O   UNL     1      -3.039  -4.186   4.270  0.00  0.00    -0.126 OA
ATOM     35  O   UNL     1      -4.144  -2.653   3.332  0.00  0.00    -0.126 OA
ENDBRANCH  32  33
ENDBRANCH  25  27
ENDBRANCH   1  23
TORSDOF 7
