REMARK  Name = ZINC05527764
REMARK  7 active torsions:
REMARK  status: ('A' for Active; 'I' for Inactive)
REMARK    1  A    between atoms: C_1  and  C_2
REMARK    2  A    between atoms: C_2  and  C_4
REMARK    3  A    between atoms: C_2  and  O_16
REMARK    4  A    between atoms: N_6  and  N_7
REMARK    5  A    between atoms: C_8  and  C_9
REMARK    6  A    between atoms: C_14  and  O_15
REMARK    7  A    between atoms: O_16  and  C_17
REMARK                            x       y       z     vdW  Elec       q    Type
REMARK                         _______ _______ _______ _____ _____    ______ ____
ROOT
ATOM      1  C   UNL     1       3.429   7.372  -0.158  0.00  0.00    +0.273 C 
ATOM      2  O   UNL     1       2.424   8.022   0.046  0.00  0.00    -0.270 OA
ATOM      3  N   UNL     1       3.344   6.039  -0.337  0.00  0.00    -0.204 N 
ATOM      4  H   UNL     1       4.147   5.520  -0.500  0.00  0.00    +0.177 HD
ENDROOT
BRANCH   1   6
ATOM      5  C   UNL     1       5.637   7.568   0.953  0.00  0.00    +0.062 C 
ATOM      6  C   UNL     1       4.771   8.056  -0.210  0.00  0.00    +0.257 C 
BRANCH   6   7
ATOM      7  O   UNL     1       4.589   9.470  -0.109  0.00  0.00    -0.478 OA
BRANCH   7   8
ATOM      8  C   UNL     1       5.561  10.256  -0.642  0.00  0.00    +0.140 A 
ATOM      9  C   UNL     1       6.718   9.683  -1.148  0.00  0.00    +0.048 A 
ATOM     10  C   UNL     1       7.703  10.484  -1.694  0.00  0.00    +0.023 A 
ATOM     11  C   UNL     1       7.540  11.858  -1.728  0.00  0.00    +0.043 A 
ATOM     12  C   UNL     1       6.389  12.432  -1.219  0.00  0.00    +0.043 A 
ATOM     13  C   UNL     1       5.399  11.634  -0.676  0.00  0.00    +0.084 A 
ATOM     14 CL   UNL     1       3.954  12.355  -0.039  0.00  0.00    -0.080 Cl
ATOM     15 CL   UNL     1       8.782  12.861  -2.409  0.00  0.00    -0.083 Cl
ENDBRANCH   7   8
ENDBRANCH   6   7
ENDBRANCH   1   6
BRANCH   3  16
ATOM     16  N   UNL     1       2.096   5.404  -0.289  0.00  0.00    -0.188 NA
ATOM     17  C   UNL     1       2.015   4.120  -0.462  0.00  0.00    +0.142 C 
BRANCH  17  18
ATOM     18  C   UNL     1       0.702   3.451  -0.411  0.00  0.00    +0.036 A 
ATOM     19  C   UNL     1       0.610   2.070  -0.596  0.00  0.00    +0.013 A 
ATOM     20  C   UNL     1      -0.621   1.450  -0.547  0.00  0.00    +0.001 A 
ATOM     21  C   UNL     1      -1.767   2.193  -0.319  0.00  0.00    +0.004 A 
ATOM     22  C   UNL     1      -1.689   3.559  -0.129  0.00  0.00    +0.046 A 
ATOM     23  C   UNL     1      -0.460   4.198  -0.175  0.00  0.00    +0.125 A 
BRANCH  23  24
ATOM     24  O   UNL     1      -0.383   5.541   0.007  0.00  0.00    -0.506 OA
ATOM     25  H   UNL     1      -0.457   6.054  -0.810  0.00  0.00    +0.292 HD
ENDBRANCH  23  24
ENDBRANCH  17  18
ENDBRANCH   3  16
TORSDOF 6
