REMARK  Name = ZINC02103723
REMARK  4 active torsions:
REMARK  status: ('A' for Active; 'I' for Inactive)
REMARK    1  A    between atoms: C_10  and  C_11
REMARK    2  A    between atoms: N_12  and  N_13
REMARK    3  A    between atoms: C_14  and  C_16
REMARK    4  A    between atoms: C_18  and  C_26
REMARK                            x       y       z     vdW  Elec       q    Type
REMARK                         _______ _______ _______ _____ _____    ______ ____
ROOT
ATOM      1  C   UNL     1      -0.846  -2.168  -0.044  0.00  0.00    +0.050 A 
ATOM      2  C   UNL     1       0.345  -2.873  -0.153  0.00  0.00    +0.042 A 
ATOM      3  C   UNL     1       0.316  -4.275  -0.157  0.00  0.00    +0.072 A 
ATOM      4  N   UNL     1      -0.806  -4.957  -0.059  0.00  0.00    -0.247 NA
ATOM      5  C   UNL     1      -1.995  -4.361   0.049  0.00  0.00    +0.072 A 
ATOM      6  C   UNL     1      -2.080  -2.946   0.068  0.00  0.00    +0.013 A 
ATOM      7  C   UNL     1      -3.329  -2.325   0.176  0.00  0.00    +0.011 A 
ATOM      8  C   UNL     1      -4.454  -3.089   0.273  0.00  0.00    +0.001 A 
ATOM      9  C   UNL     1      -4.377  -4.480   0.259  0.00  0.00    +0.002 A 
ATOM     10  C   UNL     1      -3.178  -5.116   0.151  0.00  0.00    +0.028 A 
ENDROOT
BRANCH   3  11
ATOM     11  C   UNL     1       1.595  -5.016  -0.273  0.00  0.00    +0.000 A 
ATOM     12  C   UNL     1       2.799  -4.322  -0.383  0.00  0.00    +0.011 A 
ATOM     13  C   UNL     1       3.986  -5.016  -0.486  0.00  0.00    +0.020 A 
ATOM     14  C   UNL     1       3.983  -6.401  -0.492  0.00  0.00    +0.041 A 
ATOM     15  C   UNL     1       2.790  -7.096  -0.389  0.00  0.00    +0.020 A 
ATOM     16  C   UNL     1       1.597  -6.411  -0.280  0.00  0.00    +0.011 A 
ATOM     17 CL   UNL     1       5.481  -7.269  -0.630  0.00  0.00    -0.084 Cl
ENDBRANCH   3  11
BRANCH   1  19
ATOM     18  N   UNL     1       0.292   0.000  -0.028  0.00  0.00    -0.203 N 
ATOM     19  C   UNL     1      -0.866  -0.690  -0.036  0.00  0.00    +0.264 C 
ATOM     20  O   UNL     1      -1.927  -0.096  -0.037  0.00  0.00    -0.268 OA
ATOM     21  H   UNL     1       1.139  -0.473  -0.027  0.00  0.00    +0.178 HD
BRANCH  18  23
ATOM     22  C   UNL     1       1.390   2.066  -0.012  0.00  0.00    +0.139 C 
ATOM     23  N   UNL     1       0.273   1.401  -0.020  0.00  0.00    -0.187 NA
BRANCH  22  33
ATOM     24  C   UNL     1      -2.246   5.706   0.354  0.00  0.00    +0.001 A 
ATOM     25  C   UNL     1      -2.268   4.314   0.351  0.00  0.00    +0.001 A 
ATOM     26  C   UNL     1      -1.115   3.595   0.236  0.00  0.00    +0.009 A 
ATOM     27  C   UNL     1       0.109   4.265   0.121  0.00  0.00    -0.009 A 
ATOM     28  C   UNL     1       0.135   5.681   0.125  0.00  0.00    -0.017 A 
ATOM     29  C   UNL     1      -1.074   6.389   0.244  0.00  0.00    +0.008 A 
ATOM     30  C   UNL     1       1.365   6.350   0.008  0.00  0.00    +0.008 A 
ATOM     31  C   UNL     1       2.527   5.651  -0.108  0.00  0.00    +0.001 A 
ATOM     32  C   UNL     1       2.550   4.263  -0.108  0.00  0.00    +0.010 A 
ATOM     33  C   UNL     1       1.370   3.537  -0.004  0.00  0.00    +0.002 A 
ENDBRANCH  22  33
ENDBRANCH  18  23
ENDBRANCH   1  19
TORSDOF 4
