REMARK  Name = ZINC44320720
REMARK  9 active torsions:
REMARK  status: ('A' for Active; 'I' for Inactive)
REMARK    1  A    between atoms: C_1  and  C_2
REMARK    2  A    between atoms: C_6  and  C_9
REMARK    3  A    between atoms: C_7  and  O_8
REMARK    4  A    between atoms: C_9  and  CA_10
REMARK    5  A    between atoms: CA_10  and  C_12
REMARK    6  A    between atoms: CA_10  and  N_15
REMARK    7  A    between atoms: C_16  and  O_18
REMARK    8  A    between atoms: O_18  and  C_19
REMARK    9  A    between atoms: C_19  and  C_20
REMARK                            x       y       z     vdW  Elec       q    Type
REMARK                         _______ _______ _______ _____ _____    ______ ____
ROOT
ATOM      1  N   UNL     1      -2.135  -3.864   2.064  0.00  0.00    -0.267 N 
ATOM      2  C   UNL     1      -3.477  -3.757   1.996  0.00  0.00    +0.401 C 
ATOM      3  O   UNL     1      -4.061  -2.965   2.709  0.00  0.00    -0.226 OA
ATOM      4  H   UNL     1      -1.670  -4.496   1.495  0.00  0.00    +0.153 HD
ENDROOT
BRANCH   1   5
ATOM      5  CA  UNL     1      -1.381  -3.024   2.998  0.00  0.00    +0.193 C 
BRANCH   5   6
ATOM      6  C   UNL     1      -1.357  -3.678   4.355  0.00  0.00    +0.376 C 
ATOM      7  O   UNL     1      -0.939  -3.063   5.321  0.00  0.00    -0.244 OA
ATOM      8  OXT UNL     1      -1.756  -4.823   4.487  0.00  0.00    -0.244 OA
ENDBRANCH   5   6
BRANCH   5   9
ATOM      9  C   UNL     1       0.052  -2.855   2.488  0.00  0.00    +0.072 C 
BRANCH   9  15
ATOM     10  C   UNL     1      -0.018   1.503   0.010  0.00  0.00    +0.047 C 
ATOM     11  C   UNL     1       0.002  -0.004   0.002  0.00  0.00    -0.007 A 
ATOM     12  C   UNL     1       0.006  -0.689  -1.198  0.00  0.00    +0.027 A 
ATOM     13  C   UNL     1       0.024  -2.072  -1.206  0.00  0.00    +0.042 A 
ATOM     14  C   UNL     1       0.040  -2.773  -0.013  0.00  0.00    +0.027 A 
ATOM     15  C   UNL     1       0.036  -2.092   1.189  0.00  0.00    -0.002 A 
ATOM     16  C   UNL     1       0.023  -0.704   1.199  0.00  0.00    +0.123 A 
ATOM     17 CL   UNL     1       0.028  -2.930  -2.715  0.00  0.00    -0.084 Cl
BRANCH  16  18
ATOM     18  O   UNL     1       0.025  -0.033   2.381  0.00  0.00    -0.506 OA
ATOM     19  H   UNL     1      -0.857   0.150   2.731  0.00  0.00    +0.292 HD
ENDBRANCH  16  18
ENDBRANCH   9  15
ENDBRANCH   5   9
ENDBRANCH   1   5
BRANCH   2  20
ATOM     20  O   UNL     1      -4.171  -4.529   1.138  0.00  0.00    -0.449 OA
BRANCH  20  21
ATOM     21  C   UNL     1      -5.590  -4.364   1.119  0.00  0.00    +0.246 C 
BRANCH  21  22
ATOM     22  C   UNL     1      -6.201  -5.317   0.090  0.00  0.00    +0.088 C 
ATOM     23  C   UNL     1      -6.053  -6.746   0.554  0.00  0.00    -0.029 A 
ATOM     24  C   UNL     1      -4.945  -7.518   0.833  0.00  0.00    +0.005 A 
ATOM     25  C   UNL     1      -5.102  -8.828   1.250  0.00  0.00    +0.000 A 
ATOM     26  C   UNL     1      -6.369  -9.366   1.388  0.00  0.00    +0.001 A 
ATOM     27  C   UNL     1      -7.482  -8.600   1.110  0.00  0.00    +0.009 A 
ATOM     28  C   UNL     1      -7.332  -7.278   0.689  0.00  0.00    -0.014 A 
ATOM     29  C   UNL     1      -8.337  -6.247   0.329  0.00  0.00    -0.014 A 
ATOM     30  C   UNL     1      -7.685  -5.070  -0.031  0.00  0.00    -0.029 A 
ATOM     31  C   UNL     1      -8.410  -3.961  -0.409  0.00  0.00    +0.005 A 
ATOM     32  C   UNL     1      -9.793  -4.012  -0.431  0.00  0.00    +0.000 A 
ATOM     33  C   UNL     1     -10.450  -5.176  -0.075  0.00  0.00    +0.001 A 
ATOM     34  C   UNL     1      -9.732  -6.291   0.304  0.00  0.00    +0.009 A 
ENDBRANCH  21  22
ENDBRANCH  20  21
ENDBRANCH   2  20
TORSDOF 8
