REMARK  Name = ZINC44834410
REMARK  7 active torsions:
REMARK  status: ('A' for Active; 'I' for Inactive)
REMARK    1  A    between atoms: C_1  and  C_2
REMARK    2  A    between atoms: C_2  and  C_3
REMARK    3  A    between atoms: C_2  and  C_4
REMARK    4  A    between atoms: C_4  and  C_6
REMARK    5  A    between atoms: C_4  and  C_9
REMARK    6  A    between atoms: C_6  and  N_8
REMARK    7  A    between atoms: N_11  and  C_12
REMARK                            x       y       z     vdW  Elec       q    Type
REMARK                         _______ _______ _______ _____ _____    ______ ____
ROOT
ATOM      1  C   UNL     1      -3.128   0.396  -0.354  0.00  0.00    +0.227 C 
ATOM      2  O   UNL     1      -3.371   1.584  -0.375  0.00  0.00    -0.275 OA
ATOM      3  N   UNL     1      -3.450  -0.376  -1.411  0.00  0.00    -0.283 N 
ATOM      4  H   UNL     1      -3.191  -1.311  -1.425  0.00  0.00    +0.155 HD
ENDROOT
BRANCH   3   5
ATOM      5  C   UNL     1      -4.159   0.171  -2.488  0.00  0.00    +0.071 A 
ATOM      6  C   UNL     1      -3.474   0.711  -3.570  0.00  0.00    +0.065 A 
ATOM      7  C   UNL     1      -4.176   1.249  -4.631  0.00  0.00    +0.042 A 
ATOM      8  C   UNL     1      -5.559   1.252  -4.618  0.00  0.00    +0.044 A 
ATOM      9  C   UNL     1      -6.244   0.715  -3.542  0.00  0.00    +0.042 A 
ATOM     10  C   UNL     1      -5.548   0.170  -2.480  0.00  0.00    +0.065 A 
ATOM     11 CL   UNL     1      -6.408  -0.510  -1.134  0.00  0.00    -0.082 Cl
ATOM     12 CL   UNL     1      -6.438   1.931  -5.953  0.00  0.00    -0.083 Cl
ATOM     13 CL   UNL     1      -1.738   0.709  -3.587  0.00  0.00    -0.082 Cl
ENDBRANCH   3   5
BRANCH   1  14
ATOM     14  C   UNL     1      -2.467  -0.217   0.854  0.00  0.00    +0.129 C 
BRANCH  14  16
ATOM     15  C   UNL     1      -3.541   1.502   2.314  0.00  0.00    +0.008 C 
ATOM     16  C   UNL     1      -2.211   0.868   1.901  0.00  0.00    +0.001 C 
ATOM     17  C   UNL     1      -1.540   0.246   3.127  0.00  0.00    +0.008 C 
ENDBRANCH  14  16
BRANCH  14  18
ATOM     18  C   UNL     1      -1.157  -0.841   0.446  0.00  0.00    +0.058 C 
ATOM     19  S   UNL     1      -0.914  -2.406   0.666  0.00  0.00    -0.040 S 
BRANCH  18  20
ATOM     20  N   UNL     1      -0.190  -0.080  -0.103  0.00  0.00    -0.355 N 
ATOM     21  H   UNL     1      -0.337   0.870  -0.236  0.00  0.00    +0.143 HD
ATOM     22  H   UNL     1       0.653  -0.481  -0.365  0.00  0.00    +0.143 HD
ENDBRANCH  18  20
ENDBRANCH  14  18
ENDBRANCH   1  14
TORSDOF 5
