REMARK  Name = ZINC48325839
REMARK  5 active torsions:
REMARK  status: ('A' for Active; 'I' for Inactive)
REMARK    1  A    between atoms: C_1  and  C_2
REMARK    2  A    between atoms: C_2  and  N_3
REMARK    3  A    between atoms: C_12  and  C_14
REMARK    4  A    between atoms: C_14  and  S_15
REMARK    5  A    between atoms: S_15  and  C_16
REMARK                            x       y       z     vdW  Elec       q    Type
REMARK                         _______ _______ _______ _____ _____    ______ ____
ROOT
ATOM      1  N   UNL     1      -1.376  -0.512   0.012  0.00  0.00    -0.297 NA
ATOM      2  C   UNL     1      -1.400  -1.965   0.236  0.00  0.00    +0.091 C 
ATOM      3  C   UNL     1      -2.812  -2.422   0.616  0.00  0.00    +0.071 C 
ATOM      4  C   UNL     1      -3.781  -1.882  -0.428  0.00  0.00    +0.056 A 
ATOM      5  C   UNL     1      -3.395  -0.862  -1.240  0.00  0.00    +0.028 A 
ATOM      6  S   UNL     1      -4.828  -0.608  -2.246  0.00  0.00    -0.055 S 
ATOM      7  C   UNL     1      -5.794  -1.806  -1.558  0.00  0.00    +0.165 A 
ATOM      8  N   UNL     1      -5.015  -2.325  -0.633  0.00  0.00    -0.229 NA
ATOM      9  N   UNL     1      -7.097  -2.160  -1.888  0.00  0.00    -0.264 N 
ATOM     10  C   UNL     1      -7.714  -3.155  -1.221  0.00  0.00    +0.229 C 
ATOM     11  O   UNL     1      -7.133  -3.741  -0.332  0.00  0.00    -0.275 OA
ATOM     12  C   UNL     1      -2.078  -0.164  -1.239  0.00  0.00    +0.128 C 
ATOM     13  H   UNL     1      -7.561  -1.691  -2.599  0.00  0.00    +0.157 HD
ENDROOT
BRANCH   1  15
ATOM     14  C   UNL     1      -0.019   1.526   0.010  0.00  0.00    +0.020 C 
ATOM     15  C   UNL     1       0.002  -0.004   0.002  0.00  0.00    +0.081 C 
ENDBRANCH   1  15
BRANCH  10  16
ATOM     16  C   UNL     1      -9.127  -3.539  -1.579  0.00  0.00    +0.170 C 
BRANCH  16  17
ATOM     17  S   UNL     1      -9.673  -4.899  -0.510  0.00  0.00    -0.116 S 
BRANCH  17  18
ATOM     18  C   UNL     1     -11.319  -5.227  -1.046  0.00  0.00    +0.011 A 
ATOM     19  C   UNL     1     -11.874  -4.487  -2.083  0.00  0.00    +0.018 A 
ATOM     20  C   UNL     1     -13.165  -4.745  -2.502  0.00  0.00    +0.042 A 
ATOM     21  C   UNL     1     -13.907  -5.741  -1.890  0.00  0.00    +0.158 A 
ATOM     22  C   UNL     1     -13.356  -6.481  -0.855  0.00  0.00    +0.159 A 
ATOM     23  C   UNL     1     -12.062  -6.230  -0.436  0.00  0.00    +0.056 A 
ATOM     24  F   UNL     1     -14.082  -7.452  -0.259  0.00  0.00    -0.202 F 
ATOM     25  F   UNL     1     -15.169  -5.991  -2.302  0.00  0.00    -0.202 F 
ENDBRANCH  17  18
ENDBRANCH  16  17
ENDBRANCH  10  16
TORSDOF 4
