REMARK  Name = ZINC58916754
REMARK  9 active torsions:
REMARK  status: ('A' for Active; 'I' for Inactive)
REMARK    1  A    between atoms: C_1  and  C_2
REMARK    2  A    between atoms: C_5  and  C_8
REMARK    3  A    between atoms: C_8  and  S_9
REMARK    4  A    between atoms: S_9  and  C_10
REMARK    5  A    between atoms: C_10  and  C_11
REMARK    6  A    between atoms: N_13  and  N_14
REMARK    7  A    between atoms: C_15  and  C_16
REMARK    8  A    between atoms: C_15  and  C_17
REMARK    9  A    between atoms: C_30  and  C_33
REMARK                            x       y       z     vdW  Elec       q    Type
REMARK                         _______ _______ _______ _____ _____    ______ ____
ROOT
ATOM      1  C   UNL     1       5.892 -11.094  -0.091  0.00  0.00    -0.002 A 
ATOM      2  C   UNL     1       6.035 -12.485  -0.105  0.00  0.00    +0.011 A 
ATOM      3  C   UNL     1       7.294 -13.039  -0.109  0.00  0.00    +0.024 A 
ATOM      4  C   UNL     1       8.424 -12.221  -0.101  0.00  0.00    +0.031 A 
ATOM      5  C   UNL     1       8.289 -10.842  -0.098  0.00  0.00    -0.019 A 
ATOM      6  C   UNL     1       7.024 -10.280  -0.093  0.00  0.00    +0.015 A 
ATOM      7  C   UNL     1       9.476  -9.920  -0.125  0.00  0.00    +0.049 C 
ATOM      8  C   UNL     1       9.261  -8.920  -1.250  0.00  0.00    -0.023 C 
ATOM      9  C   UNL     1       9.969  -9.246  -2.300  0.00  0.00    -0.030 C 
ATOM     10  C   UNL     1      10.774 -10.503  -2.039  0.00  0.00    +0.033 C 
ATOM     11  C   UNL     1      10.779 -10.629  -0.483  0.00  0.00    +0.029 C 
ATOM     12  C   UNL     1      10.908 -12.046  -0.009  0.00  0.00    +0.106 C 
ATOM     13  N   UNL     1       9.681 -12.813  -0.089  0.00  0.00    -0.336 N 
ATOM     14  H   UNL     1       9.738 -13.781  -0.111  0.00  0.00    +0.147 HD
ENDROOT
BRANCH  12  15
ATOM     15  C   UNL     1      11.935 -12.743  -0.865  0.00  0.00    -0.009 A 
ATOM     16  C   UNL     1      11.534 -13.477  -1.965  0.00  0.00    +0.007 A 
ATOM     17  C   UNL     1      12.475 -14.117  -2.750  0.00  0.00    +0.000 A 
ATOM     18  C   UNL     1      13.818 -14.022  -2.435  0.00  0.00    +0.001 A 
ATOM     19  C   UNL     1      14.220 -13.288  -1.335  0.00  0.00    +0.020 A 
ATOM     20  C   UNL     1      13.279 -12.643  -0.552  0.00  0.00    +0.046 A 
ATOM     21 CL   UNL     1      13.783 -11.715   0.825  0.00  0.00    -0.083 Cl
ENDBRANCH  12  15
BRANCH   1  23
ATOM     22  N   UNL     1       4.416  -9.199  -0.072  0.00  0.00    -0.185 NA
ATOM     23  C   UNL     1       4.547 -10.490  -0.080  0.00  0.00    +0.063 C 
ATOM     24  C   UNL     1       3.325 -11.371  -0.078  0.00  0.00    +0.068 C 
BRANCH  22  27
ATOM     25  C   UNL     1       3.002  -7.283  -0.054  0.00  0.00    +0.242 C 
ATOM     26  O   UNL     1       3.986  -6.574  -0.056  0.00  0.00    -0.273 OA
ATOM     27  N   UNL     1       3.138  -8.624  -0.062  0.00  0.00    -0.206 N 
ATOM     28  H   UNL     1       2.352  -9.192  -0.061  0.00  0.00    +0.177 HD
BRANCH  25  29
ATOM     29  C   UNL     1       1.628  -6.666  -0.043  0.00  0.00    +0.166 C 
BRANCH  29  30
ATOM     30  S   UNL     1       1.777  -4.858  -0.034  0.00  0.00    -0.147 S 
BRANCH  30  31
ATOM     31  C   UNL     1       0.059  -4.275  -0.021  0.00  0.00    +0.104 C 
BRANCH  31  36
ATOM     32  C   UNL     1      -0.018   1.503   0.010  0.00  0.00    +0.044 C 
ATOM     33  C   UNL     1       0.002  -0.004   0.002  0.00  0.00    -0.050 A 
ATOM     34  C   UNL     1       0.006  -0.689  -1.199  0.00  0.00    +0.003 A 
ATOM     35  C   UNL     1       0.025  -2.071  -1.206  0.00  0.00    +0.005 A 
ATOM     36  C   UNL     1       0.040  -2.768  -0.013  0.00  0.00    -0.038 A 
ATOM     37  C   UNL     1       0.037  -2.084   1.188  0.00  0.00    +0.005 A 
ATOM     38  C   UNL     1       0.023  -0.702   1.195  0.00  0.00    +0.003 A 
ENDBRANCH  31  36
ENDBRANCH  30  31
ENDBRANCH  29  30
ENDBRANCH  25  29
ENDBRANCH  22  27
ENDBRANCH   1  23
TORSDOF 7
