REMARK  Name = ZINC59114726
REMARK  13 active torsions:
REMARK  status: ('A' for Active; 'I' for Inactive)
REMARK    1  A    between atoms: C_1  and  C_2
REMARK    2  A    between atoms: C_4  and  C_31
REMARK    3  A    between atoms: C_6  and  N_8
REMARK    4  A    between atoms: N_8  and  C_9
REMARK    5  A    between atoms: C_9  and  N_11
REMARK    6  A    between atoms: N_11  and  C_12
REMARK    7  A    between atoms: C_12  and  C_13
REMARK    8  A    between atoms: C_13  and  N_14
REMARK    9  A    between atoms: N_17  and  C_20
REMARK   10  A    between atoms: C_20  and  N_22
REMARK   11  A    between atoms: N_22  and  C_23
REMARK   12  A    between atoms: C_25  and  C_30
REMARK   13  A    between atoms: C_27  and  C_29
REMARK                            x       y       z     vdW  Elec       q    Type
REMARK                         _______ _______ _______ _____ _____    ______ ____
ROOT
ATOM      1  N   UNL     1       0.535  -2.553   8.407  0.00  0.00    -0.298 NA
ATOM      2  C   UNL     1      -0.671  -1.764   8.695  0.00  0.00    +0.103 C 
ATOM      3  C   UNL     1      -0.408  -0.857   9.901  0.00  0.00    +0.122 C 
ATOM      4  N   UNL     1       0.072  -1.688  11.015  0.00  0.00    -0.310 N 
ATOM      5  C   UNL     1       1.192  -2.607  10.765  0.00  0.00    +0.122 C 
ATOM      6  C   UNL     1       0.866  -3.446   9.525  0.00  0.00    +0.103 C 
ENDROOT
BRANCH   4   7
ATOM      7  C   UNL     1      -0.500  -1.609  12.233  0.00  0.00    +0.137 C 
ATOM      8  S   UNL     1      -1.886  -0.632  12.467  0.00  0.00    -0.018 S 
BRANCH   7   9
ATOM      9  N   UNL     1       0.020  -2.299  13.268  0.00  0.00    -0.297 N 
ATOM     10  H   UNL     1      -0.447  -3.075  13.616  0.00  0.00    +0.154 HD
BRANCH   9  11
ATOM     11  C   UNL     1       1.232  -1.897  13.839  0.00  0.00    +0.033 A 
ATOM     12  C   UNL     1       1.833  -0.712  13.433  0.00  0.00    +0.026 A 
ATOM     13  C   UNL     1       3.029  -0.318  13.999  0.00  0.00    -0.048 A 
ATOM     14  C   UNL     1       3.628  -1.100  14.969  0.00  0.00    +0.006 A 
ATOM     15  C   UNL     1       3.033  -2.280  15.375  0.00  0.00    -0.048 A 
ATOM     16  C   UNL     1       1.833  -2.678  14.817  0.00  0.00    +0.026 A 
ATOM     17  C   UNL     1       3.690  -3.130  16.432  0.00  0.00    +0.044 C 
ATOM     18  C   UNL     1       3.682   0.968  13.559  0.00  0.00    +0.044 C 
ENDBRANCH   9  11
ENDBRANCH   7   9
ENDBRANCH   4   7
BRANCH   1  19
ATOM     19  C   UNL     1       0.384  -3.308   7.156  0.00  0.00    +0.103 C 
BRANCH  19  20
ATOM     20  C   UNL     1       0.288  -2.334   5.981  0.00  0.00    +0.118 C 
BRANCH  20  21
ATOM     21  N   UNL     1       0.138  -3.087   4.733  0.00  0.00    -0.325 N 
ATOM     22  H   UNL     1       0.113  -4.057   4.752  0.00  0.00    +0.148 HD
BRANCH  21  23
ATOM     23  C   UNL     1       0.033  -2.433   3.559  0.00  0.00    +0.135 C 
ATOM     24  S   UNL     1       0.076  -0.722   3.526  0.00  0.00    -0.019 S 
BRANCH  23  25
ATOM     25  N   UNL     1      -0.105  -3.127   2.412  0.00  0.00    -0.297 N 
ATOM     26  H   UNL     1      -0.210  -4.090   2.437  0.00  0.00    +0.154 HD
BRANCH  25  32
ATOM     27  C   UNL     1       1.788   0.355  -0.497  0.00  0.00    +0.044 C 
ATOM     28  C   UNL     1       0.809  -0.764  -0.253  0.00  0.00    -0.048 A 
ATOM     29  C   UNL     1      -0.085  -1.129  -1.244  0.00  0.00    +0.006 A 
ATOM     30  C   UNL     1      -0.984  -2.155  -1.024  0.00  0.00    -0.048 A 
ATOM     31  C   UNL     1      -0.994  -2.820   0.187  0.00  0.00    +0.026 A 
ATOM     32  C   UNL     1      -0.098  -2.456   1.184  0.00  0.00    +0.033 A 
ATOM     33  C   UNL     1       0.808  -1.428   0.958  0.00  0.00    +0.026 A 
ATOM     34  C   UNL     1      -1.956  -2.549  -2.106  0.00  0.00    +0.044 C 
ENDBRANCH  25  32
ENDBRANCH  23  25
ENDBRANCH  21  23
ENDBRANCH  20  21
ENDBRANCH  19  20
ENDBRANCH   1  19
TORSDOF 9
