REMARK  Name = ZINC06634298
REMARK  11 active torsions:
REMARK  status: ('A' for Active; 'I' for Inactive)
REMARK    1  A    between atoms: C_1  and  C_2
REMARK    2  A    between atoms: C_5  and  C_13
REMARK    3  A    between atoms: C_6  and  C_7
REMARK    4  A    between atoms: C_6  and  C_8
REMARK    5  A    between atoms: C_10  and  O_12
REMARK    6  A    between atoms: N_15  and  N_16
REMARK    7  A    between atoms: C_17  and  C_18
REMARK    8  A    between atoms: C_21  and  C_24
REMARK    9  A    between atoms: C_24  and  C_25
REMARK   10  A    between atoms: C_24  and  C_26
REMARK   11  A    between atoms: C_24  and  C_27
REMARK                            x       y       z     vdW  Elec       q    Type
REMARK                         _______ _______ _______ _____ _____    ______ ____
ROOT
ATOM      1  C   UNL     1       1.035  -3.257   1.615  0.00  0.00    +0.239 C 
ATOM      2  O   UNL     1       1.615  -2.969   2.641  0.00  0.00    -0.273 OA
ATOM      3  N   UNL     1       0.886  -4.550   1.265  0.00  0.00    -0.207 N 
ATOM      4  H   UNL     1       0.423  -4.780   0.445  0.00  0.00    +0.177 HD
ENDROOT
BRANCH   1   9
ATOM      5  C   UNL     1      -0.019   1.526   0.010  0.00  0.00    +0.014 C 
ATOM      6  C   UNL     1       0.002  -0.004   0.002  0.00  0.00    +0.000 C 
ATOM      7  C   UNL     1       0.744  -0.669  -1.197  0.00  0.00    +0.011 C 
ATOM      8  C   UNL     1       1.062  -2.103  -0.714  0.00  0.00    +0.017 C 
ATOM      9  C   UNL     1       0.481  -2.169   0.732  0.00  0.00    +0.057 C 
ATOM     10  C   UNL     1       0.727  -0.695   1.211  0.00  0.00    -0.013 C 
ATOM     11  C   UNL     1       0.031  -0.400   2.541  0.00  0.00    +0.012 C 
ATOM     12  C   UNL     1       2.216  -0.348   1.260  0.00  0.00    +0.012 C 
ATOM     13  C   UNL     1      -1.065  -2.153   0.533  0.00  0.00    +0.048 C 
ATOM     14  C   UNL     1      -1.389  -0.705   0.062  0.00  0.00    +0.122 C 
BRANCH  14  15
ATOM     15  O   UNL     1      -1.986  -0.739  -1.236  0.00  0.00    -0.391 OA
ATOM     16  H   UNL     1      -2.855  -1.164  -1.258  0.00  0.00    +0.210 HD
ENDBRANCH  14  15
ENDBRANCH   1   9
BRANCH   3  17
ATOM     17  N   UNL     1       1.401  -5.562   2.086  0.00  0.00    -0.188 NA
ATOM     18  C   UNL     1       1.258  -6.806   1.749  0.00  0.00    +0.138 C 
BRANCH  18  19
ATOM     19  C   UNL     1       1.800  -7.872   2.614  0.00  0.00    -0.005 A 
ATOM     20  C   UNL     1       2.464  -7.544   3.799  0.00  0.00    +0.010 A 
ATOM     21  C   UNL     1       2.968  -8.545   4.602  0.00  0.00    +0.005 A 
ATOM     22  C   UNL     1       2.818  -9.871   4.237  0.00  0.00    -0.042 A 
ATOM     23  C   UNL     1       2.162 -10.203   3.065  0.00  0.00    +0.005 A 
ATOM     24  C   UNL     1       1.648  -9.213   2.254  0.00  0.00    +0.010 A 
BRANCH  22  25
ATOM     25  C   UNL     1       3.373 -10.960   5.120  0.00  0.00    -0.013 C 
ATOM     26  C   UNL     1       2.719 -10.878   6.501  0.00  0.00    +0.015 C 
ATOM     27  C   UNL     1       3.076 -12.324   4.495  0.00  0.00    +0.015 C 
ATOM     28  C   UNL     1       4.886 -10.781   5.260  0.00  0.00    +0.015 C 
ENDBRANCH  22  25
ENDBRANCH  18  19
ENDBRANCH   3  17
TORSDOF 5
