REMARK  Name = ZINC49127072
REMARK  8 active torsions:
REMARK  status: ('A' for Active; 'I' for Inactive)
REMARK    1  A    between atoms: C_1  and  C_2
REMARK    2  A    between atoms: C_5  and  N_22
REMARK    3  A    between atoms: C_6  and  C_21
REMARK    4  A    between atoms: C_7  and  S_8
REMARK    5  A    between atoms: S_8  and  N_11
REMARK    6  A    between atoms: N_11  and  C_12
REMARK    7  A    between atoms: C_12  and  C_14
REMARK    8  A    between atoms: C_12  and  C_15
REMARK                            x       y       z     vdW  Elec       q    Type
REMARK                         _______ _______ _______ _____ _____    ______ ____
ROOT
ATOM      1  S   UNL     1       0.438  -0.089   2.536  0.00  0.00    +0.059 S 
ATOM      2  O   UNL     1       1.109  -1.170   3.169  0.00  0.00    -0.153 OA
ATOM      3  O   UNL     1       1.089   1.135   2.226  0.00  0.00    -0.153 OA
ENDROOT
BRANCH   1  10
ATOM      4  C   UNL     1      -0.442   1.645   0.222  0.00  0.00    +0.046 C 
ATOM      5  C   UNL     1      -0.582   0.159   0.016  0.00  0.00    -0.024 A 
ATOM      6  C   UNL     1      -1.082  -0.328  -1.178  0.00  0.00    +0.007 A 
ATOM      7  C   UNL     1      -1.212  -1.689  -1.370  0.00  0.00    +0.023 A 
ATOM      8  C   UNL     1      -0.839  -2.570  -0.362  0.00  0.00    +0.029 A 
ATOM      9  C   UNL     1      -0.337  -2.078   0.836  0.00  0.00    -0.003 A 
ATOM     10  C   UNL     1      -0.205  -0.715   1.019  0.00  0.00    +0.113 A 
ATOM     11  C   UNL     1       0.067  -3.029   1.932  0.00  0.00    +0.048 C 
BRANCH   8  12
ATOM     12  N   UNL     1      -0.969  -3.948  -0.553  0.00  0.00    -0.358 N 
ATOM     13  H   UNL     1      -1.320  -4.290  -1.390  0.00  0.00    +0.142 HD
ATOM     14  H   UNL     1      -0.709  -4.561   0.152  0.00  0.00    +0.142 HD
ENDBRANCH   8  12
ENDBRANCH   1  10
BRANCH   1  15
ATOM     15  N   UNL     1      -0.857   0.292   3.496  0.00  0.00    -0.182 NA
ATOM     16  H   UNL     1      -1.001   1.210   3.773  0.00  0.00    +0.149 HD
BRANCH  15  17
ATOM     17  C   UNL     1      -1.783  -0.758   3.926  0.00  0.00    +0.110 C 
ATOM     18  C   UNL     1      -1.527  -1.093   5.397  0.00  0.00    +0.031 C 
BRANCH  17  19
ATOM     19  C   UNL     1      -3.201  -0.275   3.761  0.00  0.00    +0.009 A 
ATOM     20  C   UNL     1      -4.289  -0.955   3.326  0.00  0.00    +0.014 A 
ATOM     21  C   UNL     1      -5.505  -0.301   3.255  0.00  0.00    +0.028 A 
ATOM     22  C   UNL     1      -5.572   1.003   3.623  0.00  0.00    +0.078 A 
ATOM     23  S   UNL     1      -3.884   1.341   4.096  0.00  0.00    -0.080 S 
ATOM     24 CL   UNL     1      -6.945   2.066   3.637  0.00  0.00    -0.076 Cl
ENDBRANCH  17  19
ENDBRANCH  15  17
ENDBRANCH   1  15
TORSDOF 5
