REMARK  Name = ZINC39490076
REMARK  9 active torsions:
REMARK  status: ('A' for Active; 'I' for Inactive)
REMARK    1  A    between atoms: C_1  and  C_2
REMARK    2  A    between atoms: C_2  and  C_25
REMARK    3  A    between atoms: C_4  and  N_10
REMARK    4  A    between atoms: C_6  and  C_8
REMARK    5  A    between atoms: C_6  and  C_9
REMARK    6  A    between atoms: N_13  and  C_20
REMARK    7  A    between atoms: C_14  and  C_17
REMARK    8  A    between atoms: C_17  and  C_18
REMARK    9  A    between atoms: C_18  and  O_19
REMARK                            x       y       z     vdW  Elec       q    Type
REMARK                         _______ _______ _______ _____ _____    ______ ____
ROOT
ATOM      1  N   UNL     1      -2.881  -2.590   0.156  0.00  0.00    +0.383 N 
ATOM      2  C   UNL     1      -2.957  -4.057   0.164  0.00  0.00    -0.063 C 
ATOM      3  C   UNL     1      -4.423  -4.492   0.215  0.00  0.00    +0.066 C 
ATOM      4  N   UNL     1      -5.131  -3.955  -0.955  0.00  0.00    -0.300 NA
ATOM      5  C   UNL     1      -5.043  -2.488  -0.991  0.00  0.00    +0.042 C 
ATOM      6  C   UNL     1      -3.572  -2.069  -1.031  0.00  0.00    -0.059 C 
ATOM      7  H   UNL     1      -3.322  -2.226   0.987  0.00  0.00    -0.081 HD
ENDROOT
BRANCH   1  11
ATOM      8  C   UNL     1       0.040   1.358   0.301  0.00  0.00    +0.011 C 
ATOM      9  C   UNL     1       0.043  -0.171   0.074  0.00  0.00    -0.036 C 
ATOM     10  C   UNL     1      -1.405  -0.647   0.118  0.00  0.00    -0.009 C 
ATOM     11  C   UNL     1      -1.473  -2.172   0.125  0.00  0.00    -0.067 C 
ATOM     12  C   UNL     1      -0.771  -2.692   1.377  0.00  0.00    -0.009 C 
ATOM     13  C   UNL     1       0.700  -2.290   1.379  0.00  0.00    -0.036 C 
ATOM     14  C   UNL     1       0.898  -0.802   1.156  0.00  0.00    +0.012 C 
ATOM     15  C   UNL     1       1.469  -3.111   0.341  0.00  0.00    +0.011 C 
ATOM     16  C   UNL     1       1.280  -2.645   2.767  0.00  0.00    +0.011 C 
ATOM     17  C   UNL     1       0.635  -0.423  -1.315  0.00  0.00    +0.011 C 
ENDBRANCH   1  11
BRANCH   4  18
ATOM     18  C   UNL     1      -6.531  -4.399  -0.973  0.00  0.00    +0.057 C 
ATOM     19  C   UNL     1      -7.241  -3.961   0.326  0.00  0.00    +0.019 C 
ATOM     20  C   UNL     1      -8.188  -5.141   0.658  0.00  0.00    +0.002 C 
ATOM     21  C   UNL     1      -7.343  -6.378   0.264  0.00  0.00    +0.002 C 
ATOM     22  C   UNL     1      -6.597  -5.936  -1.012  0.00  0.00    +0.019 C 
ENDBRANCH   4  18
BRANCH   5  23
ATOM     23  C   UNL     1      -5.759  -1.964  -2.237  0.00  0.00    +0.045 C 
BRANCH  23  24
ATOM     24  C   UNL     1      -5.743  -0.434  -2.228  0.00  0.00    +0.157 C 
BRANCH  24  25
ATOM     25  O   UNL     1      -6.514   0.057  -3.327  0.00  0.00    -0.395 OA
ATOM     26  H   UNL     1      -6.548   1.021  -3.384  0.00  0.00    +0.209 HD
ENDBRANCH  24  25
ENDBRANCH  23  24
ENDBRANCH   5  23
TORSDOF 5
