REMARK  Name = ZINC21602894
REMARK  6 active torsions:
REMARK  status: ('A' for Active; 'I' for Inactive)
REMARK    1  A    between atoms: C_1  and  C_2
REMARK    2  A    between atoms: C_2  and  C_4
REMARK    3  A    between atoms: C_2  and  S_12
REMARK    4  A    between atoms: S_12  and  C_13
REMARK    5  A    between atoms: C_18  and  C_20
REMARK    6  A    between atoms: N_28  and  C_29
REMARK                            x       y       z     vdW  Elec       q    Type
REMARK                         _______ _______ _______ _____ _____    ______ ____
ROOT
ATOM      1  C   UNL     1      -1.990   2.228  -6.464  0.00  0.00    +0.178 A 
ATOM      2  N   UNL     1      -2.674   3.256  -6.001  0.00  0.00    -0.215 NA
ATOM      3  C   UNL     1      -3.937   3.448  -6.354  0.00  0.00    +0.117 A 
ATOM      4  C   UNL     1      -4.612   2.575  -7.233  0.00  0.00    +0.073 A 
ATOM      5  C   UNL     1      -5.949   2.909  -7.514  0.00  0.00    +0.031 A 
ATOM      6  C   UNL     1      -6.503   4.011  -6.948  0.00  0.00    +0.022 A 
ATOM      7  S   UNL     1      -5.167   4.668  -5.966  0.00  0.00    -0.068 S 
ATOM      8  C   UNL     1      -3.844   1.469  -7.720  0.00  0.00    +0.267 A 
ATOM      9  O   UNL     1      -4.341   0.660  -8.485  0.00  0.00    -0.267 OA
ATOM     10  N   UNL     1      -2.564   1.335  -7.325  0.00  0.00    -0.255 N 
ENDROOT
BRANCH   6  11
ATOM     11  C   UNL     1      -7.875   4.536  -7.106  0.00  0.00    -0.011 A 
ATOM     12  C   UNL     1      -8.787   3.877  -7.933  0.00  0.00    +0.009 A 
ATOM     13  C   UNL     1     -10.069   4.370  -8.072  0.00  0.00    +0.001 A 
ATOM     14  C   UNL     1     -10.447   5.521  -7.403  0.00  0.00    +0.000 A 
ATOM     15  C   UNL     1      -9.546   6.182  -6.587  0.00  0.00    +0.001 A 
ATOM     16  C   UNL     1      -8.264   5.697  -6.434  0.00  0.00    +0.009 A 
ENDBRANCH   6  11
BRANCH  10  17
ATOM     17  C   UNL     1      -1.807   0.257  -7.802  0.00  0.00    +0.052 A 
ATOM     18  C   UNL     1      -1.074   0.387  -8.974  0.00  0.00    +0.026 A 
ATOM     19  C   UNL     1      -0.324  -0.676  -9.439  0.00  0.00    +0.002 A 
ATOM     20  C   UNL     1      -0.313  -1.872  -8.745  0.00  0.00    +0.000 A 
ATOM     21  C   UNL     1      -1.047  -2.006  -7.581  0.00  0.00    +0.002 A 
ATOM     22  C   UNL     1      -1.794  -0.945  -7.107  0.00  0.00    +0.026 A 
ENDBRANCH  10  17
BRANCH   1  23
ATOM     23  S   UNL     1      -0.313   2.006  -5.972  0.00  0.00    -0.075 S 
BRANCH  23  25
ATOM     24  C   UNL     1      -0.241   4.724  -5.701  0.00  0.00    +0.029 C 
ATOM     25  C   UNL     1      -0.113   3.437  -4.882  0.00  0.00    +0.137 C 
BRANCH  25  26
ATOM     26  C   UNL     1       1.245   3.388  -4.232  0.00  0.00    +0.236 C 
ATOM     27  O   UNL     1       2.154   2.793  -4.770  0.00  0.00    -0.274 OA
ATOM     28  N   UNL     1       1.451   4.007  -3.052  0.00  0.00    -0.224 N 
ATOM     29  C   UNL     1       2.723   4.035  -2.315  0.00  0.00    +0.136 C 
ATOM     30  C   UNL     1       2.406   4.865  -1.056  0.00  0.00    +0.125 C 
ATOM     31  N   UNL     1       0.983   5.215  -1.218  0.00  0.00    -0.297 N 
ATOM     32  C   UNL     1       0.528   4.693  -2.365  0.00  0.00    +0.309 C 
ATOM     33  O   UNL     1      -0.617   4.830  -2.747  0.00  0.00    -0.252 OA
ATOM     34  H   UNL     1       0.474   5.816  -0.450  0.00  0.00    +0.150 HD
ENDBRANCH  25  26
ENDBRANCH  23  25
ENDBRANCH   1  23
TORSDOF 5
