REMARK  Name = ZINC39934712
REMARK  9 active torsions:
REMARK  status: ('A' for Active; 'I' for Inactive)
REMARK    1  A    between atoms: C_1  and  C_2
REMARK    2  A    between atoms: C_4  and  C_26
REMARK    3  A    between atoms: N_12  and  C_13
REMARK    4  A    between atoms: C_13  and  C_14
REMARK    5  A    between atoms: N_16  and  C_17
REMARK    6  A    between atoms: C_21  and  C_23
REMARK    7  A    between atoms: C_23  and  C_25
REMARK    8  A    between atoms: C_27  and  C_28
REMARK    9  A    between atoms: C_27  and  C_30
REMARK                            x       y       z     vdW  Elec       q    Type
REMARK                         _______ _______ _______ _____ _____    ______ ____
ROOT
ATOM      1  C   UNL     1      -0.007   1.519  -0.003  0.00  0.00    +0.029 C 
ATOM      2  C   UNL     1       0.008  -0.011  -0.002  0.00  0.00    +0.082 C 
ATOM      3  C   UNL     1      -1.427  -0.559   0.041  0.00  0.00    +0.065 C 
ATOM      4  C   UNL     1      -1.492  -1.355   1.326  0.00  0.00    -0.018 A 
ATOM      5  C   UNL     1      -2.525  -2.073   1.896  0.00  0.00    +0.006 A 
ATOM      6  C   UNL     1      -2.335  -2.727   3.099  0.00  0.00    +0.000 A 
ATOM      7  C   UNL     1      -1.107  -2.661   3.732  0.00  0.00    +0.002 A 
ATOM      8  C   UNL     1      -0.073  -1.945   3.167  0.00  0.00    +0.023 A 
ATOM      9  C   UNL     1      -0.257  -1.282   1.951  0.00  0.00    +0.034 A 
ATOM     10  N   UNL     1       0.649  -0.512   1.217  0.00  0.00    -0.317 N 
ENDROOT
BRANCH   3  11
ATOM     11  C   UNL     1      -1.686  -1.450  -1.146  0.00  0.00    +0.001 C 
ATOM     12  C   UNL     1      -2.654  -1.148  -2.007  0.00  0.00    +0.068 C 
BRANCH  12  13
ATOM     13  C   UNL     1      -2.912  -2.039  -3.194  0.00  0.00    +0.216 C 
ATOM     14  N   UNL     1      -2.806  -1.266  -4.438  0.00  0.00    -0.359 N 
ATOM     15  C   UNL     1      -3.961  -1.325  -5.035  0.00  0.00    +0.060 A 
ATOM     16  C   UNL     1      -4.465  -0.760  -6.294  0.00  0.00    +0.027 A 
ATOM     17  C   UNL     1      -5.739  -0.996  -6.666  0.00  0.00    +0.002 A 
ATOM     18  C   UNL     1      -6.624  -1.768  -5.893  0.00  0.00    +0.002 A 
ATOM     19  C   UNL     1      -6.264  -2.332  -4.722  0.00  0.00    +0.027 A 
ATOM     20  C   UNL     1      -4.897  -2.143  -4.217  0.00  0.00    +0.060 A 
ATOM     21  N   UNL     1      -4.285  -2.558  -3.146  0.00  0.00    -0.359 N 
ATOM     22  H   UNL     1      -2.019  -0.796  -4.756  0.00  0.00    +0.162 HD
ATOM     23  H   UNL     1      -4.665  -3.110  -2.444  0.00  0.00    +0.162 HD
ENDBRANCH  12  13
BRANCH  12  24
ATOM     24  C   UNL     1      -3.450   0.025  -1.806  0.00  0.00    +0.098 C 
ATOM     25  N   UNL     1      -4.082   0.956  -1.646  0.00  0.00    -0.191 NA
ENDBRANCH  12  24
ENDBRANCH   3  11
BRANCH  10  26
ATOM     26  C   UNL     1       2.036  -0.244   1.607  0.00  0.00    +0.201 C 
BRANCH  26  27
ATOM     27  C   UNL     1       2.090   1.010   2.441  0.00  0.00    +0.235 C 
ATOM     28  O   UNL     1       1.070   1.620   2.685  0.00  0.00    -0.274 OA
ATOM     29  N   UNL     1       3.271   1.454   2.915  0.00  0.00    -0.284 N 
ATOM     30  H   UNL     1       4.076   0.932   2.777  0.00  0.00    +0.155 HD
BRANCH  29  31
ATOM     31  C   UNL     1       3.335   2.669   3.607  0.00  0.00    +0.034 A 
ATOM     32  C   UNL     1       4.449   3.489   3.469  0.00  0.00    +0.023 A 
ATOM     33  C   UNL     1       4.519   4.691   4.149  0.00  0.00    +0.002 A 
ATOM     34  C   UNL     1       3.483   5.085   4.971  0.00  0.00    +0.011 A 
ATOM     35  C   UNL     1       2.357   4.269   5.117  0.00  0.00    +0.019 A 
ATOM     36  C   UNL     1       2.286   3.057   4.424  0.00  0.00    +0.034 A 
BRANCH  35  37
ATOM     37  C   UNL     1       1.250   4.686   5.993  0.00  0.00    +0.160 C 
ATOM     38  O   UNL     1       0.276   3.975   6.118  0.00  0.00    -0.292 OA
ATOM     39  C   UNL     1       1.328   5.995   6.734  0.00  0.00    +0.091 C 
ENDBRANCH  35  37
ENDBRANCH  29  31
ENDBRANCH  26  27
ENDBRANCH  10  26
TORSDOF 7
