REMARK  Name = ZINC07260404
REMARK  6 active torsions:
REMARK  status: ('A' for Active; 'I' for Inactive)
REMARK    1  A    between atoms: C_1  and  C_2
REMARK    2  A    between atoms: C_5  and  C_12
REMARK    3  A    between atoms: C_9  and  C_10
REMARK    4  A    between atoms: C_9  and  C_11
REMARK    5  A    between atoms: N_14  and  C_15
REMARK    6  A    between atoms: C_18  and  N_21
REMARK                            x       y       z     vdW  Elec       q    Type
REMARK                         _______ _______ _______ _____ _____    ______ ____
ROOT
ATOM      1  C   UNL     1       1.414  -2.852  -0.254  0.00  0.00    +0.225 C 
ATOM      2  O   UNL     1       2.265  -2.900  -1.116  0.00  0.00    -0.275 OA
ATOM      3  N   UNL     1       1.294  -3.861   0.632  0.00  0.00    -0.285 N 
ATOM      4  H   UNL     1       0.563  -3.862   1.269  0.00  0.00    +0.155 HD
ENDROOT
BRANCH   1   9
ATOM      5  C   UNL     1      -0.180   1.810  -0.046  0.00  0.00    +0.013 C 
ATOM      6  C   UNL     1      -0.178   0.280  -0.086  0.00  0.00    -0.013 C 
ATOM      7  C   UNL     1      -1.550  -0.462   0.067  0.00  0.00    +0.009 C 
ATOM      8  C   UNL     1      -1.044  -1.935   0.002  0.00  0.00    +0.018 C 
ATOM      9  C   UNL     1       0.490  -1.664  -0.172  0.00  0.00    +0.066 C 
ATOM     10  C   UNL     1       0.755  -0.530   0.850  0.00  0.00    +0.079 C 
ATOM     11 BR   UNL     1       0.002  -0.884   2.631  0.00  0.00    -0.086 Br
ATOM     12  C   UNL     1       0.656  -0.464  -1.173  0.00  0.00    -0.013 C 
ATOM     13  C   UNL     1       2.089   0.049  -1.328  0.00  0.00    +0.012 C 
ATOM     14  C   UNL     1      -0.070  -0.653  -2.506  0.00  0.00    +0.012 C 
ENDBRANCH   1   9
BRANCH   3  15
ATOM     15  C   UNL     1       2.224  -4.906   0.631  0.00  0.00    +0.034 A 
ATOM     16  C   UNL     1       3.555  -4.653   0.330  0.00  0.00    +0.025 A 
ATOM     17  C   UNL     1       4.471  -5.687   0.330  0.00  0.00    +0.034 A 
ATOM     18  C   UNL     1       4.062  -6.974   0.630  0.00  0.00    +0.126 A 
ATOM     19  C   UNL     1       2.737  -7.229   0.931  0.00  0.00    +0.034 A 
ATOM     20  C   UNL     1       1.818  -6.199   0.938  0.00  0.00    +0.025 A 
BRANCH  18  21
ATOM     21  N   UNL     1       5.046  -8.080   0.630  0.00  0.00    +0.056 N 
ATOM     22  O   UNL     1       6.205  -7.858   0.367  0.00  0.00    -0.126 OA
ATOM     23  O   UNL     1       4.691  -9.205   0.892  0.00  0.00    -0.126 OA
ENDBRANCH  18  21
ENDBRANCH   3  15
TORSDOF 3
