REMARK  Name = ZINC66598565
REMARK  7 active torsions:
REMARK  status: ('A' for Active; 'I' for Inactive)
REMARK    1  A    between atoms: C_1  and  C_2
REMARK    2  A    between atoms: C_4  and  C_7
REMARK    3  A    between atoms: C_7  and  N_8
REMARK    4  A    between atoms: N_14  and  C_17
REMARK    5  A    between atoms: C_17  and  C_18
REMARK    6  A    between atoms: N_20  and  C_21
REMARK    7  A    between atoms: C_26  and  C_29
REMARK                            x       y       z     vdW  Elec       q    Type
REMARK                         _______ _______ _______ _____ _____    ______ ____
ROOT
ATOM      1  N   UNL     1       0.664  -5.474  -3.233  0.00  0.00    -0.292 N 
ATOM      2  C   UNL     1       1.681  -4.756  -2.717  0.00  0.00    +0.303 C 
ATOM      3  O   UNL     1       1.451  -3.746  -2.081  0.00  0.00    -0.253 OA
ATOM      4  N   UNL     1       2.953  -5.158  -2.906  0.00  0.00    -0.283 N 
ATOM      5  C   UNL     1       4.071  -4.456  -2.258  0.00  0.00    +0.124 C 
ATOM      6  C   UNL     1       4.944  -5.490  -1.539  0.00  0.00    +0.104 C 
ATOM      7  N   UNL     1       5.337  -6.540  -2.489  0.00  0.00    -0.291 NA
ATOM      8  C   UNL     1       4.166  -7.271  -2.990  0.00  0.00    +0.104 C 
ATOM      9  C   UNL     1       3.260  -6.314  -3.763  0.00  0.00    +0.124 C 
ATOM     10  H   UNL     1       0.848  -6.238  -3.802  0.00  0.00    +0.151 HD
ENDROOT
BRANCH   1  11
ATOM     11  C   UNL     1      -0.721  -5.101  -2.934  0.00  0.00    +0.183 C 
BRANCH  11  15
ATOM     12  C   UNL     1      -3.723  -9.097  -3.922  0.00  0.00    +0.069 C 
ATOM     13  C   UNL     1      -2.977  -7.797  -4.077  0.00  0.00    +0.081 A 
ATOM     14  C   UNL     1      -2.138  -7.206  -3.115  0.00  0.00    +0.072 A 
ATOM     15  C   UNL     1      -1.659  -6.056  -3.627  0.00  0.00    +0.154 A 
ATOM     16  O   UNL     1      -2.164  -5.909  -4.861  0.00  0.00    -0.358 OA
ATOM     17  N   UNL     1      -2.992  -7.027  -5.128  0.00  0.00    -0.083 NA
ENDBRANCH  11  15
ENDBRANCH   1  11
BRANCH   7  18
ATOM     18  C   UNL     1       6.313  -7.457  -1.886  0.00  0.00    +0.180 C 
BRANCH  18  19
ATOM     19  C   UNL     1       6.875  -8.363  -2.951  0.00  0.00    +0.227 C 
ATOM     20  O   UNL     1       6.500  -8.255  -4.099  0.00  0.00    -0.274 OA
ATOM     21  N   UNL     1       7.795  -9.294  -2.628  0.00  0.00    -0.311 N 
ATOM     22  H   UNL     1       8.095  -9.380  -1.710  0.00  0.00    +0.149 HD
BRANCH  21  23
ATOM     23  C   UNL     1       8.341 -10.175  -3.663  0.00  0.00    +0.073 C 
ATOM     24  C   UNL     1       9.508  -9.476  -4.363  0.00  0.00    +0.022 C 
ATOM     25  C   UNL     1      10.599  -9.154  -3.340  0.00  0.00    +0.002 C 
ATOM     26  C   UNL     1      11.093 -10.452  -2.697  0.00  0.00    +0.003 C 
ATOM     27  C   UNL     1       9.926 -11.151  -1.996  0.00  0.00    -0.012 C 
ATOM     28  C   UNL     1       8.835 -11.472  -3.020  0.00  0.00    +0.025 C 
ATOM     29  C   UNL     1      10.420 -12.448  -1.353  0.00  0.00    +0.007 C 
ENDBRANCH  21  23
ENDBRANCH  18  19
ENDBRANCH   7  18
TORSDOF 5
