REMARK  Name = ZINC38660936
REMARK  12 active torsions:
REMARK  status: ('A' for Active; 'I' for Inactive)
REMARK    1  A    between atoms: C_1  and  C_2
REMARK    2  A    between atoms: C_2  and  C_3
REMARK    3  A    between atoms: C_3  and  O_4
REMARK    4  A    between atoms: O_4  and  C_5
REMARK    5  A    between atoms: C_10  and  C_11
REMARK    6  A    between atoms: C_11  and  O_13
REMARK    7  A    between atoms: O_13  and  C_14
REMARK    8  A    between atoms: C_21  and  N_40
REMARK    9  A    between atoms: C_22  and  C_38
REMARK   10  A    between atoms: C_23  and  C_25
REMARK   11  A    between atoms: C_29  and  O_31
REMARK   12  A    between atoms: O_31  and  C_32
REMARK                            x       y       z     vdW  Elec       q    Type
REMARK                         _______ _______ _______ _____ _____    ______ ____
ROOT
ATOM      1  C   UNL     1       0.408  -7.050  -0.175  0.00  0.00    +0.135 A 
ATOM      2  C   UNL     1      -0.238  -6.279   0.781  0.00  0.00    +0.047 A 
ATOM      3  C   UNL     1      -0.922  -6.889   1.814  0.00  0.00    +0.012 A 
ATOM      4  C   UNL     1      -0.967  -8.270   1.900  0.00  0.00    +0.008 A 
ATOM      5  C   UNL     1      -0.324  -9.045   0.948  0.00  0.00    +0.138 A 
ATOM      6  C   UNL     1       0.360  -8.432  -0.095  0.00  0.00    +0.093 A 
ATOM      7  O   UNL     1      -0.357 -10.399   1.016  0.00  0.00    -0.441 OA
ATOM      8  C   UNL     1      -0.666 -11.005   2.174  0.00  0.00    +0.199 C 
ATOM      9  C   UNL     1      -1.312 -10.356   3.172  0.00  0.00    +0.098 C 
ATOM     10  C   UNL     1      -1.719  -8.916   3.033  0.00  0.00    +0.098 C 
ENDROOT
BRANCH  10  11
ATOM     11  C   UNL     1      -3.199  -8.840   2.758  0.00  0.00    -0.031 A 
ATOM     12  C   UNL     1      -3.723  -9.440   1.628  0.00  0.00    +0.005 A 
ATOM     13  C   UNL     1      -5.080  -9.373   1.373  0.00  0.00    +0.004 A 
ATOM     14  C   UNL     1      -5.916  -8.705   2.247  0.00  0.00    +0.046 A 
ATOM     15  C   UNL     1      -5.393  -8.103   3.382  0.00  0.00    +0.129 A 
ATOM     16  C   UNL     1      -4.031  -8.177   3.639  0.00  0.00    +0.050 A 
BRANCH  15  17
ATOM     17  O   UNL     1      -6.213  -7.446   4.244  0.00  0.00    -0.456 OA
BRANCH  17  18
ATOM     18  C   UNL     1      -5.643  -6.765   5.272  0.00  0.00    +0.128 A 
ATOM     19  C   UNL     1      -4.879  -5.635   5.019  0.00  0.00    +0.046 A 
ATOM     20  C   UNL     1      -4.301  -4.944   6.066  0.00  0.00    +0.004 A 
ATOM     21  C   UNL     1      -4.484  -5.378   7.366  0.00  0.00    +0.000 A 
ATOM     22  C   UNL     1      -5.245  -6.504   7.622  0.00  0.00    +0.004 A 
ATOM     23  C   UNL     1      -5.830  -7.194   6.578  0.00  0.00    +0.046 A 
ENDBRANCH  17  18
ENDBRANCH  15  17
ENDBRANCH  10  11
BRANCH   8  24
ATOM     24  N   UNL     1      -0.317 -12.320   2.351  0.00  0.00    -0.328 N 
ATOM     25  H   UNL     1       0.146 -12.799   1.646  0.00  0.00    +0.145 HD
ATOM     26  H   UNL     1      -0.532 -12.772   3.182  0.00  0.00    +0.145 HD
ENDBRANCH   8  24
BRANCH   9  27
ATOM     27  C   UNL     1      -1.613 -11.057   4.384  0.00  0.00    +0.101 C 
ATOM     28  N   UNL     1      -1.852 -11.612   5.346  0.00  0.00    -0.191 NA
ENDBRANCH   9  27
BRANCH   1  29
ATOM     29  O   UNL     1       1.081  -6.451  -1.192  0.00  0.00    -0.422 OA
BRANCH  29  30
ATOM     30  C   UNL     1       0.510  -6.445  -2.412  0.00  0.00    +0.348 C 
ATOM     31  O   UNL     1      -0.531  -7.042  -2.599  0.00  0.00    -0.244 OA
BRANCH  30  37
ATOM     32  C   UNL     1       0.558  -5.704  -4.793  0.00  0.00    +0.134 A 
ATOM     33  C   UNL     1       1.164  -5.006  -5.827  0.00  0.00    +0.046 A 
ATOM     34  C   UNL     1       2.347  -4.330  -5.606  0.00  0.00    +0.004 A 
ATOM     35  C   UNL     1       2.937  -4.341  -4.352  0.00  0.00    +0.001 A 
ATOM     36  C   UNL     1       2.349  -5.028  -3.313  0.00  0.00    +0.018 A 
ATOM     37  C   UNL     1       1.148  -5.713  -3.521  0.00  0.00    +0.101 A 
BRANCH  32  38
ATOM     38  O   UNL     1      -0.605  -6.369  -5.009  0.00  0.00    -0.491 OA
BRANCH  38  39
ATOM     39  C   UNL     1      -1.147  -6.314  -6.330  0.00  0.00    +0.229 C 
BRANCH  39  41
ATOM     40  C   UNL     1      -3.030  -7.059  -7.794  0.00  0.00    +0.007 C 
ATOM     41  C   UNL     1      -2.449  -7.117  -6.380  0.00  0.00    +0.038 C 
ENDBRANCH  39  41
ENDBRANCH  38  39
ENDBRANCH  32  38
ENDBRANCH  30  37
ENDBRANCH  29  30
ENDBRANCH   1  29
TORSDOF 11
