REMARK  Name = ZINC63456268
REMARK  6 active torsions:
REMARK  status: ('A' for Active; 'I' for Inactive)
REMARK    1  A    between atoms: C_1  and  N_2
REMARK    2  A    between atoms: C_5  and  C_13
REMARK    3  A    between atoms: C_6  and  N_12
REMARK    4  A    between atoms: N_14  and  O_15
REMARK    5  A    between atoms: O_15  and  C_16
REMARK    6  A    between atoms: C_16  and  C_17
REMARK                            x       y       z     vdW  Elec       q    Type
REMARK                         _______ _______ _______ _____ _____    ______ ____
ROOT
ATOM      1  C   UNL     1       0.051  -3.454  -1.567  0.00  0.00    +0.169 C 
ATOM      2  N   UNL     1      -0.058  -3.261  -2.851  0.00  0.00    -0.068 NA
ATOM      3  N   UNL     1       0.179  -4.739  -1.067  0.00  0.00    -0.340 N 
ATOM      4  H   UNL     1       0.187  -4.888  -0.109  0.00  0.00    +0.144 HD
ATOM      5  H   UNL     1       0.261  -5.490  -1.676  0.00  0.00    +0.144 HD
ENDROOT
BRANCH   1  10
ATOM      6  C   UNL     1       0.031  -0.826   2.784  0.00  0.00    +0.133 C 
ATOM      7  N   UNL     1       0.030  -1.149   1.355  0.00  0.00    -0.289 N 
ATOM      8  C   UNL     1       0.046  -2.385   0.817  0.00  0.00    +0.252 C 
ATOM      9  O   UNL     1       0.065  -3.421   1.455  0.00  0.00    -0.270 OA
ATOM     10  C   UNL     1       0.038  -2.302  -0.645  0.00  0.00    +0.098 C 
ATOM     11  C   UNL     1       0.017  -0.986  -1.020  0.00  0.00    +0.041 C 
ATOM     12  C   UNL     1       0.005  -0.193   0.255  0.00  0.00    +0.076 C 
ATOM     13  C   UNL     1      -1.225   0.728   0.335  0.00  0.00    +0.032 C 
ATOM     14  C   UNL     1      -0.799   1.842   1.316  0.00  0.00    +0.003 C 
ATOM     15  C   UNL     1       0.740   1.873   1.307  0.00  0.00    +0.003 C 
ATOM     16  C   UNL     1       1.199   0.776   0.321  0.00  0.00    +0.032 C 
BRANCH  11  17
ATOM     17  N   UNL     1       0.003  -0.496  -2.289  0.00  0.00    -0.359 N 
ATOM     18  H   UNL     1      -0.065  -1.103  -3.042  0.00  0.00    +0.142 HD
ATOM     19  H   UNL     1       0.062   0.460  -2.440  0.00  0.00    +0.142 HD
ENDBRANCH  11  17
ENDBRANCH   1  10
BRANCH   2  20
ATOM     20  O   UNL     1      -0.045  -4.367  -3.736  0.00  0.00    -0.383 OA
BRANCH  20  21
ATOM     21  C   UNL     1      -0.173  -4.010  -5.114  0.00  0.00    +0.358 C 
BRANCH  21  22
ATOM     22  C   UNL     1      -0.147  -5.257  -5.960  0.00  0.00    +0.256 C 
ATOM     23  O   UNL     1       0.059  -6.335  -5.445  0.00  0.00    -0.272 OA
ATOM     24  N   UNL     1      -0.353  -5.173  -7.290  0.00  0.00    -0.299 N 
ATOM     25  C   UNL     1      -0.449  -6.392  -8.104  0.00  0.00    +0.108 C 
ATOM     26  C   UNL     1      -1.730  -7.133  -7.743  0.00  0.00    +0.019 C 
ATOM     27  C   UNL     1      -2.935  -6.365  -8.312  0.00  0.00    +0.002 C 
ATOM     28  C   UNL     1      -3.237  -5.165  -7.422  0.00  0.00    +0.000 C 
ATOM     29  C   UNL     1      -2.972  -3.848  -8.175  0.00  0.00    +0.002 C 
ATOM     30  C   UNL     1      -1.647  -3.945  -8.931  0.00  0.00    +0.019 C 
ATOM     31  C   UNL     1      -0.490  -3.876  -7.931  0.00  0.00    +0.108 C 
ENDBRANCH  21  22
ENDBRANCH  20  21
ENDBRANCH   2  20
TORSDOF 5
