REMARK  Name = ZINC44323494
REMARK  10 active torsions:
REMARK  status: ('A' for Active; 'I' for Inactive)
REMARK    1  A    between atoms: C_1  and  C_2
REMARK    2  A    between atoms: C_5  and  C_33
REMARK    3  A    between atoms: C_6  and  C_9
REMARK    4  A    between atoms: C_7  and  O_8
REMARK    5  A    between atoms: C_9  and  CA_10
REMARK    6  A    between atoms: CA_10  and  C_12
REMARK    7  A    between atoms: CA_10  and  N_15
REMARK    8  A    between atoms: C_16  and  O_18
REMARK    9  A    between atoms: O_18  and  C_19
REMARK   10  A    between atoms: C_19  and  C_20
REMARK                            x       y       z     vdW  Elec       q    Type
REMARK                         _______ _______ _______ _____ _____    ______ ____
ROOT
ATOM      1  N   UNL     1       2.139  -1.810   3.219  0.00  0.00    -0.267 N 
ATOM      2  C   UNL     1       3.478  -1.687   3.127  0.00  0.00    +0.401 C 
ATOM      3  O   UNL     1       4.155  -2.641   2.799  0.00  0.00    -0.226 OA
ATOM      4  H   UNL     1       1.599  -1.049   3.481  0.00  0.00    +0.153 HD
ENDROOT
BRANCH   1   5
ATOM      5  CA  UNL     1       1.500  -3.095   2.921  0.00  0.00    +0.193 C 
BRANCH   5   6
ATOM      6  C   UNL     1       1.518  -3.962   4.153  0.00  0.00    +0.376 C 
ATOM      7  O   UNL     1       1.202  -5.137   4.077  0.00  0.00    -0.244 OA
ATOM      8  OXT UNL     1       1.850  -3.489   5.227  0.00  0.00    -0.244 OA
ENDBRANCH   5   6
BRANCH   5   9
ATOM      9  C   UNL     1       0.052  -2.855   2.488  0.00  0.00    +0.073 C 
BRANCH   9  15
ATOM     10  C   UNL     1      -0.018   1.503   0.010  0.00  0.00    +0.047 C 
ATOM     11  C   UNL     1       0.002  -0.004   0.002  0.00  0.00    -0.007 A 
ATOM     12  C   UNL     1       0.006  -0.689  -1.198  0.00  0.00    +0.027 A 
ATOM     13  C   UNL     1       0.024  -2.072  -1.206  0.00  0.00    +0.045 A 
ATOM     14  C   UNL     1       0.040  -2.773  -0.013  0.00  0.00    -0.025 A 
ATOM     15  C   UNL     1       0.036  -2.092   1.189  0.00  0.00    +0.001 A 
ATOM     16  C   UNL     1       0.023  -0.704   1.199  0.00  0.00    +0.123 A 
ATOM     17  C   UNL     1       0.059  -4.279  -0.025  0.00  0.00    +0.045 C 
ATOM     18 CL   UNL     1       0.028  -2.930  -2.715  0.00  0.00    -0.083 Cl
BRANCH  16  19
ATOM     19  O   UNL     1       0.025  -0.033   2.381  0.00  0.00    -0.506 OA
ATOM     20  H   UNL     1      -0.857   0.150   2.731  0.00  0.00    +0.292 HD
ENDBRANCH  16  19
ENDBRANCH   9  15
ENDBRANCH   5   9
ENDBRANCH   1   5
BRANCH   2  21
ATOM     21  O   UNL     1       4.066  -0.507   3.401  0.00  0.00    -0.449 OA
BRANCH  21  22
ATOM     22  C   UNL     1       5.489  -0.448   3.284  0.00  0.00    +0.246 C 
BRANCH  22  23
ATOM     23  C   UNL     1       5.971   0.962   3.630  0.00  0.00    +0.088 C 
ATOM     24  C   UNL     1       5.524   1.939   2.571  0.00  0.00    -0.029 A 
ATOM     25  C   UNL     1       4.274   2.315   2.127  0.00  0.00    +0.005 A 
ATOM     26  C   UNL     1       4.150   3.255   1.120  0.00  0.00    +0.000 A 
ATOM     27  C   UNL     1       5.280   3.819   0.555  0.00  0.00    +0.001 A 
ATOM     28  C   UNL     1       6.535   3.449   0.993  0.00  0.00    +0.009 A 
ATOM     29  C   UNL     1       6.667   2.501   2.010  0.00  0.00    -0.014 A 
ATOM     30  C   UNL     1       7.871   1.929   2.662  0.00  0.00    -0.014 A 
ATOM     31  C   UNL     1       7.480   1.009   3.631  0.00  0.00    -0.029 A 
ATOM     32  C   UNL     1       8.426   0.340   4.377  0.00  0.00    +0.005 A 
ATOM     33  C   UNL     1       9.772   0.581   4.165  0.00  0.00    +0.000 A 
ATOM     34  C   UNL     1      10.171   1.494   3.205  0.00  0.00    +0.001 A 
ATOM     35  C   UNL     1       9.230   2.167   2.454  0.00  0.00    +0.009 A 
ENDBRANCH  22  23
ENDBRANCH  21  22
ENDBRANCH   2  21
TORSDOF 8
