REMARK  Name = ZINC43364666
REMARK  9 active torsions:
REMARK  status: ('A' for Active; 'I' for Inactive)
REMARK    1  A    between atoms: C_1  and  C_2
REMARK    2  A    between atoms: C_5  and  C_7
REMARK    3  A    between atoms: C_7  and  C_9
REMARK    4  A    between atoms: C_7  and  N_13
REMARK    5  A    between atoms: C_9  and  C_11
REMARK    6  A    between atoms: C_9  and  N_12
REMARK    7  A    between atoms: N_13  and  C_14
REMARK    8  A    between atoms: N_13  and  C_15
REMARK    9  A    between atoms: C_15  and  C_16
REMARK                            x       y       z     vdW  Elec       q    Type
REMARK                         _______ _______ _______ _____ _____    ______ ____
ROOT
ATOM      1  C   UNL     1       0.024  -3.495   1.625  0.00  0.00    -0.016 C 
ENDROOT
BRANCH   1   6
ATOM      2  C   UNL     1      -0.024   0.988  -0.686  0.00  0.00    +0.086 C 
ATOM      3  C   UNL     1      -0.071  -0.502  -0.465  0.00  0.00    +0.102 A 
ATOM      4  C   UNL     1      -0.226  -1.435  -1.421  0.00  0.00    +0.044 A 
ATOM      5  C   UNL     1      -0.212  -2.692  -0.773  0.00  0.00    +0.043 A 
ATOM      6  C   UNL     1      -0.050  -2.451   0.540  0.00  0.00    +0.090 A 
ATOM      7  O   UNL     1       0.041  -1.124   0.721  0.00  0.00    -0.467 OA
ENDBRANCH   1   6
BRANCH   1   8
ATOM      8  N   UNL     1      -0.715  -3.027   2.805  0.00  0.00    +0.386 N 
ATOM      9  C   UNL     1      -0.628  -4.037   3.869  0.00  0.00    -0.095 C 
ATOM     10  H   UNL     1      -0.315  -2.160   3.131  0.00  0.00    -0.081 HD
BRANCH   8  11
ATOM     11  C   UNL     1      -2.123  -2.813   2.448  0.00  0.00    -0.041 C 
BRANCH  11  12
ATOM     12  C   UNL     1      -2.855  -2.217   3.624  0.00  0.00    -0.050 A 
ATOM     13  C   UNL     1      -3.624  -3.025   4.440  0.00  0.00    +0.003 A 
ATOM     14  C   UNL     1      -4.295  -2.478   5.519  0.00  0.00    +0.000 A 
ATOM     15  C   UNL     1      -4.196  -1.125   5.781  0.00  0.00    +0.001 A 
ATOM     16  C   UNL     1      -3.427  -0.317   4.965  0.00  0.00    +0.015 A 
ATOM     17  C   UNL     1      -2.752  -0.864   3.889  0.00  0.00    +0.019 A 
ATOM     18 BR   UNL     1      -1.693   0.240   2.776  0.00  0.00    -0.050 Br
ENDBRANCH  11  12
ENDBRANCH   8  11
ENDBRANCH   1   8
BRANCH   1  19
ATOM     19  C   UNL     1       1.487  -3.737   2.002  0.00  0.00    -0.085 C 
ATOM     20  C   UNL     1       2.079  -2.457   2.596  0.00  0.00    -0.015 C 
BRANCH  19  21
ATOM     21  N   UNL     1       2.245  -4.117   0.802  0.00  0.00    +0.379 N 
ATOM     22  H   UNL     1       2.282  -3.334   0.166  0.00  0.00    -0.090 HD
ATOM     23  H   UNL     1       3.183  -4.380   1.067  0.00  0.00    -0.090 HD
ATOM     24  H   UNL     1       1.791  -4.896   0.350  0.00  0.00    -0.090 HD
ENDBRANCH  19  21
ENDBRANCH   1  19
TORSDOF 6
