REMARK  Name = ZINC02949026
REMARK  5 active torsions:
REMARK  status: ('A' for Active; 'I' for Inactive)
REMARK    1  A    between atoms: C_7  and  N_25
REMARK    2  A    between atoms: C_9  and  S_11
REMARK    3  A    between atoms: S_11  and  C_12
REMARK    4  A    between atoms: C_12  and  C_13
REMARK    5  A    between atoms: N_25  and  C_26
REMARK                            x       y       z     vdW  Elec       q    Type
REMARK                         _______ _______ _______ _____ _____    ______ ____
ROOT
ATOM      1  C   UNL     1      -6.580  -0.011   0.051  0.00  0.00    +0.001 A 
ATOM      2  C   UNL     1      -6.104   1.286   0.221  0.00  0.00    +0.002 A 
ATOM      3  C   UNL     1      -4.772   1.530   0.376  0.00  0.00    +0.028 A 
ATOM      4  C   UNL     1      -3.866   0.461   0.366  0.00  0.00    +0.077 A 
ATOM      5  C   UNL     1      -4.352  -0.858   0.193  0.00  0.00    +0.041 A 
ATOM      6  C   UNL     1      -5.725  -1.075   0.037  0.00  0.00    +0.013 A 
ATOM      7  C   UNL     1      -3.417  -1.924   0.186  0.00  0.00    +0.135 A 
ATOM      8  N   UNL     1      -2.134  -1.635   0.341  0.00  0.00    -0.206 NA
ATOM      9  C   UNL     1      -1.719  -0.381   0.500  0.00  0.00    +0.191 A 
ATOM     10  N   UNL     1      -2.547   0.648   0.520  0.00  0.00    -0.222 NA
ENDROOT
BRANCH   7  11
ATOM     11  N   UNL     1      -3.834  -3.228   0.021  0.00  0.00    -0.299 N 
ATOM     12  H   UNL     1      -4.781  -3.435  -0.011  0.00  0.00    +0.154 HD
BRANCH  11  13
ATOM     13  C   UNL     1      -2.890  -4.254  -0.100  0.00  0.00    +0.035 A 
ATOM     14  C   UNL     1      -1.673  -4.008  -0.722  0.00  0.00    +0.026 A 
ATOM     15  C   UNL     1      -0.739  -5.020  -0.836  0.00  0.00    +0.043 A 
ATOM     16  C   UNL     1      -1.020  -6.282  -0.342  0.00  0.00    +0.159 A 
ATOM     17  C   UNL     1      -2.237  -6.532   0.275  0.00  0.00    +0.160 A 
ATOM     18  C   UNL     1      -3.171  -5.519   0.397  0.00  0.00    +0.064 A 
ATOM     19  F   UNL     1      -2.509  -7.764   0.758  0.00  0.00    -0.202 F 
ATOM     20  F   UNL     1      -0.108  -7.272  -0.460  0.00  0.00    -0.202 F 
ENDBRANCH  11  13
ENDBRANCH   7  11
BRANCH   9  21
ATOM     21  S   UNL     1       0.005  -0.081   0.701  0.00  0.00    -0.080 S 
BRANCH  21  22
ATOM     22  C   UNL     1      -0.006   1.722   0.869  0.00  0.00    +0.133 C 
BRANCH  22  23
ATOM     23  C   UNL     1       1.404   2.218   1.056  0.00  0.00    +0.059 A 
ATOM     24  C   UNL     1       2.062   2.839   0.012  0.00  0.00    +0.094 A 
ATOM     25  C   UNL     1       3.369   3.296   0.212  0.00  0.00    +0.259 A 
ATOM     26  O   UNL     1       3.977   3.852  -0.689  0.00  0.00    -0.267 OA
ATOM     27  N   UNL     1       3.951   3.107   1.416  0.00  0.00    -0.267 N 
ATOM     28  C   UNL     1       5.226   3.540   1.624  0.00  0.00    +0.116 A 
ATOM     29  C   UNL     1       5.830   3.362   2.822  0.00  0.00    +0.058 A 
ATOM     30  C   UNL     1       5.146   2.725   3.867  0.00  0.00    +0.025 A 
ATOM     31  C   UNL     1       3.871   2.287   3.668  0.00  0.00    +0.048 A 
ATOM     32  C   UNL     1       3.260   2.482   2.416  0.00  0.00    +0.141 A 
ATOM     33  N   UNL     1       2.014   2.054   2.220  0.00  0.00    -0.233 NA
ATOM     34 CL   UNL     1       7.455   3.923   3.064  0.00  0.00    -0.082 Cl
ENDBRANCH  22  23
ENDBRANCH  21  22
ENDBRANCH   9  21
TORSDOF 5
