REMARK  Name = ZINC28296711
REMARK  14 active torsions:
REMARK  status: ('A' for Active; 'I' for Inactive)
REMARK    1  A    between atoms: C_1  and  C_2
REMARK    2  A    between atoms: C_2  and  O_3
REMARK    3  A    between atoms: O_3  and  C_4
REMARK    4  A    between atoms: C_4  and  C_6
REMARK    5  A    between atoms: C_7  and  C_35
REMARK    6  A    between atoms: N_8  and  C_34
REMARK    7  A    between atoms: C_12  and  O_15
REMARK    8  A    between atoms: O_15  and  C_16
REMARK    9  A    between atoms: C_16  and  C_17
REMARK   10  A    between atoms: C_17  and  C_19
REMARK   11  A    between atoms: C_17  and  O_33
REMARK   12  A    between atoms: C_19  and  N_20
REMARK   13  A    between atoms: N_20  and  C_21
REMARK   14  A    between atoms: N_20  and  C_27
REMARK                            x       y       z     vdW  Elec       q    Type
REMARK                         _______ _______ _______ _____ _____    ______ ____
ROOT
ATOM      1  C   UNL     1      -0.783  -2.450  -0.017  0.00  0.00    +0.258 C 
ENDROOT
BRANCH   1   2
ATOM      2  O   UNL     1      -0.705  -1.023  -0.016  0.00  0.00    -0.489 OA
BRANCH   2   9
ATOM      3  C   UNL     1       2.474   2.841   0.081  0.00  0.00    +0.087 A 
ATOM      4  C   UNL     1       3.835   2.747   0.123  0.00  0.00    +0.030 A 
ATOM      5  N   UNL     1       4.204   1.445   0.137  0.00  0.00    -0.346 N 
ATOM      6  C   UNL     1       3.091   0.627   0.103  0.00  0.00    +0.050 A 
ATOM      7  C   UNL     1       1.960   1.458   0.066  0.00  0.00    +0.018 A 
ATOM      8  C   UNL     1       0.685   0.902   0.026  0.00  0.00    +0.056 A 
ATOM      9  C   UNL     1       0.539  -0.473   0.023  0.00  0.00    +0.121 A 
ATOM     10  C   UNL     1       1.660  -1.296   0.059  0.00  0.00    +0.048 A 
ATOM     11  C   UNL     1       2.926  -0.754   0.098  0.00  0.00    +0.030 A 
ATOM     12  C   UNL     1       5.589   0.969   0.181  0.00  0.00    +0.149 C 
ATOM     13  C   UNL     1       4.784   3.917   0.152  0.00  0.00    +0.064 C 
BRANCH   3  14
ATOM     14  C   UNL     1       1.679   4.073   0.054  0.00  0.00    +0.341 C 
ATOM     15  O   UNL     1       1.317   4.585   1.096  0.00  0.00    -0.245 OA
BRANCH  14  16
ATOM     16  O   UNL     1       1.350   4.638  -1.125  0.00  0.00    -0.461 OA
BRANCH  16  18
ATOM     17  C   UNL     1       0.289   6.347  -2.498  0.00  0.00    +0.048 C 
ATOM     18  C   UNL     1       0.562   5.857  -1.075  0.00  0.00    +0.229 C 
ENDBRANCH  16  18
ENDBRANCH  14  16
ENDBRANCH   3  14
ENDBRANCH   2   9
ENDBRANCH   1   2
BRANCH   1  19
ATOM     19  C   UNL     1      -2.251  -2.879  -0.063  0.00  0.00    +0.135 C 
BRANCH  19  20
ATOM     20  O   UNL     1      -2.906  -2.465   1.137  0.00  0.00    -0.390 OA
ATOM     21  H   UNL     1      -3.973  -2.688   1.286  0.00  0.00    +0.210 HD
ENDBRANCH  19  20
BRANCH  19  22
ATOM     22  C   UNL     1      -2.333  -4.402  -0.190  0.00  0.00    -0.043 C 
BRANCH  22  23
ATOM     23  N   UNL     1      -3.737  -4.825  -0.114  0.00  0.00    +0.385 N 
ATOM     24  H   UNL     1      -4.212  -4.276   0.713  0.00  0.00    -0.081 HD
BRANCH  23  25
ATOM     25  C   UNL     1      -4.456  -4.488  -1.350  0.00  0.00    -0.068 C 
ATOM     26  C   UNL     1      -3.485  -4.526  -2.531  0.00  0.00    -0.015 C 
ATOM     27  C   UNL     1      -4.233  -4.175  -3.819  0.00  0.00    -0.002 C 
ATOM     28  C   UNL     1      -4.832  -2.773  -3.695  0.00  0.00    -0.000 C 
ATOM     29  C   UNL     1      -5.804  -2.736  -2.514  0.00  0.00    -0.002 C 
ATOM     30  C   UNL     1      -5.055  -3.086  -1.226  0.00  0.00    -0.015 C 
ENDBRANCH  23  25
BRANCH  23  31
ATOM     31  C   UNL     1      -3.840  -6.260   0.181  0.00  0.00    -0.068 C 
ATOM     32  C   UNL     1      -5.307  -6.632   0.404  0.00  0.00    -0.015 C 
ATOM     33  C   UNL     1      -5.414  -8.127   0.710  0.00  0.00    -0.002 C 
ATOM     34  C   UNL     1      -4.609  -8.447   1.972  0.00  0.00    -0.000 C 
ATOM     35  C   UNL     1      -3.142  -8.076   1.749  0.00  0.00    -0.002 C 
ATOM     36  C   UNL     1      -3.035  -6.581   1.442  0.00  0.00    -0.015 C 
ENDBRANCH  23  31
ENDBRANCH  22  23
ENDBRANCH  19  22
ENDBRANCH   1  19
TORSDOF 11
