REMARK  Name = ZINC36583878
REMARK  16 active torsions:
REMARK  status: ('A' for Active; 'I' for Inactive)
REMARK    1  A    between atoms: C_1  and  C_2
REMARK    2  A    between atoms: C_2  and  C_3
REMARK    3  A    between atoms: C_2  and  C_4
REMARK    4  A    between atoms: C_2  and  N_5
REMARK    5  A    between atoms: C_6  and  C_8
REMARK    6  A    between atoms: C_8  and  C_10
REMARK    7  A    between atoms: C_8  and  N_19
REMARK    8  A    between atoms: C_11  and  O_18
REMARK    9  A    between atoms: C_13  and  O_17
REMARK   10  A    between atoms: C_15  and  O_16
REMARK   11  A    between atoms: N_19  and  C_30
REMARK   12  A    between atoms: C_20  and  C_22
REMARK   13  A    between atoms: C_22  and  C_23
REMARK   14  A    between atoms: C_30  and  C_31
REMARK   15  A    between atoms: C_30  and  C_32
REMARK   16  A    between atoms: C_30  and  C_33
REMARK                            x       y       z     vdW  Elec       q    Type
REMARK                         _______ _______ _______ _____ _____    ______ ____
ROOT
ATOM      1  C   UNL     1       2.099  -0.212  -2.757  0.00  0.00    +0.200 C 
ENDROOT
BRANCH   1   2
ATOM      2  C   UNL     1       1.980  -1.640  -2.289  0.00  0.00    +0.065 A 
ATOM      3  C   UNL     1       2.614  -2.042  -1.123  0.00  0.00    +0.129 A 
ATOM      4  C   UNL     1       2.505  -3.356  -0.692  0.00  0.00    +0.091 A 
ATOM      5  C   UNL     1       1.761  -4.267  -1.426  0.00  0.00    +0.124 A 
ATOM      6  C   UNL     1       1.127  -3.865  -2.592  0.00  0.00    +0.091 A 
ATOM      7  C   UNL     1       1.233  -2.550  -3.021  0.00  0.00    +0.129 A 
BRANCH   7   8
ATOM      8  O   UNL     1       0.607  -2.155  -4.161  0.00  0.00    -0.506 OA
ATOM      9  H   UNL     1       1.144  -2.253  -4.959  0.00  0.00    +0.292 HD
ENDBRANCH   7   8
BRANCH   5  10
ATOM     10  O   UNL     1       1.655  -5.554  -1.005  0.00  0.00    -0.507 OA
ATOM     11  H   UNL     1       0.904  -5.715  -0.417  0.00  0.00    +0.292 HD
ENDBRANCH   5  10
BRANCH   3  12
ATOM     12  O   UNL     1       3.342  -1.149  -0.402  0.00  0.00    -0.506 OA
ATOM     13  H   UNL     1       2.820  -0.631   0.225  0.00  0.00    +0.292 HD
ENDBRANCH   3  12
ENDBRANCH   1   2
BRANCH   1  15
ATOM     14  N   UNL     1       0.296   0.905  -1.484  0.00  0.00    -0.309 N 
ATOM     15  C   UNL     1       1.617   0.714  -1.671  0.00  0.00    +0.239 C 
ATOM     16  O   UNL     1       2.419   1.289  -0.964  0.00  0.00    -0.273 OA
ATOM     17  H   UNL     1      -0.345   0.445  -2.048  0.00  0.00    +0.149 HD
BRANCH  14  19
ATOM     18  C   UNL     1       0.372   3.213  -0.679  0.00  0.00    +0.031 C 
ATOM     19  C   UNL     1      -0.172   1.806  -0.427  0.00  0.00    +0.026 C 
ATOM     20  C   UNL     1       0.325   1.302   0.929  0.00  0.00    +0.031 C 
ATOM     21  C   UNL     1      -1.701   1.842  -0.429  0.00  0.00    +0.031 C 
ENDBRANCH  14  19
ENDBRANCH   1  15
BRANCH   1  22
ATOM     22  N   UNL     1       3.499   0.085  -3.067  0.00  0.00    -0.280 N 
ATOM     23  C   UNL     1       4.440  -0.868  -2.916  0.00  0.00    +0.221 C 
ATOM     24  O   UNL     1       4.114  -2.003  -2.638  0.00  0.00    -0.275 OA
BRANCH  22  25
ATOM     25  C   UNL     1       3.877   1.418  -3.543  0.00  0.00    +0.030 C 
ATOM     26  C   UNL     1       2.676   2.359  -3.430  0.00  0.00    +0.031 C 
ATOM     27  C   UNL     1       5.028   1.956  -2.691  0.00  0.00    +0.031 C 
ATOM     28  C   UNL     1       4.322   1.331  -5.004  0.00  0.00    +0.031 C 
ENDBRANCH  22  25
BRANCH  23  29
ATOM     29  C   UNL     1       5.897  -0.523  -3.090  0.00  0.00    +0.131 C 
BRANCH  29  30
ATOM     30  C   UNL     1       6.714  -1.790  -3.107  0.00  0.00    -0.039 A 
ATOM     31  C   UNL     1       7.211  -2.307  -1.925  0.00  0.00    +0.005 A 
ATOM     32  C   UNL     1       7.960  -3.468  -1.940  0.00  0.00    +0.015 A 
ATOM     33  C   UNL     1       8.213  -4.113  -3.137  0.00  0.00    +0.018 A 
ATOM     34  C   UNL     1       7.715  -3.595  -4.320  0.00  0.00    +0.015 A 
ATOM     35  C   UNL     1       6.962  -2.436  -4.303  0.00  0.00    +0.005 A 
ATOM     36 BR   UNL     1       9.238  -5.702  -3.158  0.00  0.00    -0.050 Br
ENDBRANCH  29  30
ENDBRANCH  23  29
ENDBRANCH   1  22
TORSDOF 10
