REMARK  Name = ZINC11517027
REMARK  6 active torsions:
REMARK  status: ('A' for Active; 'I' for Inactive)
REMARK    1  A    between atoms: C_1  and  C_2
REMARK    2  A    between atoms: C_7  and  C_12
REMARK    3  A    between atoms: C_12  and  O_14
REMARK    4  A    between atoms: O_14  and  C_15
REMARK    5  A    between atoms: C_15  and  C_16
REMARK    6  A    between atoms: C_19  and  C_22
REMARK                            x       y       z     vdW  Elec       q    Type
REMARK                         _______ _______ _______ _____ _____    ______ ____
ROOT
ATOM      1  O   UNL     1       0.002  -0.004   0.002  0.00  0.00    -0.456 OA
ENDROOT
BRANCH   1   2
ATOM      2  C   UNL     1      -0.016   1.344   0.009  0.00  0.00    +0.340 C 
ATOM      3  O   UNL     1      -1.077   1.937   0.018  0.00  0.00    -0.245 OA
BRANCH   2   9
ATOM      4  C   UNL     1       1.728   7.840   0.102  0.00  0.00    +0.008 C 
ATOM      5  C   UNL     1       1.532   6.349   0.385  0.00  0.00    -0.009 C 
ATOM      6  C   UNL     1       0.359   5.818  -0.444  0.00  0.00    +0.008 C 
ATOM      7  C   UNL     1      -0.004   4.404   0.013  0.00  0.00    +0.037 C 
ATOM      8  C   UNL     1       1.255   3.547   0.004  0.00  0.00    -0.023 A 
ATOM      9  C   UNL     1       1.247   2.096   0.001  0.00  0.00    +0.069 A 
ATOM     10  C   UNL     1       2.462   1.446  -0.014  0.00  0.00    +0.060 A 
ATOM     11  S   UNL     1       3.607   2.747  -0.018  0.00  0.00    -0.100 S 
ATOM     12  C   UNL     1       2.483   4.114   0.000  0.00  0.00    -0.006 A 
ATOM     13  C   UNL     1       2.802   5.577   0.007  0.00  0.00    +0.046 C 
ENDBRANCH   2   9
ENDBRANCH   1   2
BRANCH   1  14
ATOM     14  C   UNL     1      -1.282  -0.681   0.011  0.00  0.00    +0.268 C 
BRANCH  14  15
ATOM     15  C   UNL     1      -1.065  -2.172   0.001  0.00  0.00    -0.010 A 
ATOM     16  C   UNL     1      -0.983  -2.848  -1.204  0.00  0.00    +0.008 A 
ATOM     17  C   UNL     1      -0.778  -4.212  -1.220  0.00  0.00    +0.013 A 
ATOM     18  C   UNL     1      -0.666  -4.912  -0.018  0.00  0.00    +0.037 A 
ATOM     19  C   UNL     1      -0.755  -4.225   1.194  0.00  0.00    +0.013 A 
ATOM     20  C   UNL     1      -0.954  -2.860   1.196  0.00  0.00    +0.008 A 
BRANCH  18  21
ATOM     21  C   UNL     1      -0.452  -6.375  -0.028  0.00  0.00    +0.242 C 
ATOM     22  O   UNL     1      -0.354  -6.982   1.021  0.00  0.00    -0.270 OA
ATOM     23  N   UNL     1      -0.366  -7.036  -1.200  0.00  0.00    -0.325 N 
ATOM     24  H   UNL     1      -0.445  -6.551  -2.036  0.00  0.00    +0.145 HD
ATOM     25  H   UNL     1      -0.226  -7.995  -1.206  0.00  0.00    +0.145 HD
ENDBRANCH  18  21
ENDBRANCH  14  15
ENDBRANCH   1  14
TORSDOF 5
