REMARK  Name = ZINC27929646
REMARK  17 active torsions:
REMARK  status: ('A' for Active; 'I' for Inactive)
REMARK    1  A    between atoms: C_1  and  C_2
REMARK    2  A    between atoms: C_2  and  C_4
REMARK    3  A    between atoms: C_2  and  N_14
REMARK    4  A    between atoms: C_6  and  O_12
REMARK    5  A    between atoms: C_9  and  O_10
REMARK    6  A    between atoms: O_10  and  C_11
REMARK    7  A    between atoms: O_12  and  C_13
REMARK    8  A    between atoms: C_15  and  C_17
REMARK    9  A    between atoms: C_17  and  S_18
REMARK   10  A    between atoms: S_18  and  C_19
REMARK   11  A    between atoms: C_22  and  C_25
REMARK   12  A    between atoms: N_23  and  N_24
REMARK   13  A    between atoms: C_25  and  O_26
REMARK   14  A    between atoms: O_26  and  C_27
REMARK   15  A    between atoms: C_30  and  C_33
REMARK   16  A    between atoms: C_33  and  C_34
REMARK   17  A    between atoms: C_33  and  C_35
REMARK                            x       y       z     vdW  Elec       q    Type
REMARK                         _______ _______ _______ _____ _____    ______ ____
ROOT
ATOM      1  C   UNL     1       0.498  -1.742  -6.333  0.00  0.00    +0.209 A 
ATOM      2  N   UNL     1       1.775  -2.048  -6.309  0.00  0.00    -0.121 NA
ATOM      3  N   UNL     1       2.153  -2.434  -7.475  0.00  0.00    -0.128 NA
ATOM      4  C   UNL     1       1.149  -2.398  -8.305  0.00  0.00    +0.189 A 
ATOM      5  N   UNL     1       0.058  -1.961  -7.606  0.00  0.00    -0.225 N 
ENDROOT
BRANCH   5   6
ATOM      6  N   UNL     1      -1.209  -1.780  -8.084  0.00  0.00    -0.295 N 
ATOM      7  H   UNL     1      -1.331  -0.843  -8.438  0.00  0.00    +0.163 HD
ATOM      8  H   UNL     1      -1.430  -2.465  -8.791  0.00  0.00    +0.163 HD
ENDBRANCH   5   6
BRANCH   1   9
ATOM      9  S   UNL     1      -0.466  -1.164  -4.976  0.00  0.00    -0.075 S 
BRANCH   9  10
ATOM     10  C   UNL     1       0.712  -1.094  -3.598  0.00  0.00    +0.173 C 
BRANCH  10  12
ATOM     11  N   UNL     1       0.688  -0.476  -1.203  0.00  0.00    -0.308 N 
ATOM     12  C   UNL     1       0.006  -0.608  -2.358  0.00  0.00    +0.224 C 
ATOM     13  O   UNL     1      -1.175  -0.336  -2.400  0.00  0.00    -0.275 OA
ATOM     14  H   UNL     1       1.632  -0.695  -1.170  0.00  0.00    +0.149 HD
BRANCH  11  16
ATOM     15  C   UNL     1      -0.019   1.526   0.010  0.00  0.00    +0.033 C 
ATOM     16  C   UNL     1       0.002  -0.004   0.002  0.00  0.00    +0.104 C 
BRANCH  16  17
ATOM     17  C   UNL     1       0.731  -0.503   1.223  0.00  0.00    +0.018 A 
ATOM     18  C   UNL     1       2.076  -0.808   1.148  0.00  0.00    +0.054 A 
ATOM     19  C   UNL     1       2.747  -1.267   2.271  0.00  0.00    +0.121 A 
ATOM     20  C   UNL     1       2.067  -1.420   3.471  0.00  0.00    +0.049 A 
ATOM     21  C   UNL     1       0.722  -1.116   3.546  0.00  0.00    +0.049 A 
ATOM     22  C   UNL     1       0.052  -0.651   2.423  0.00  0.00    +0.125 A 
BRANCH  22  23
ATOM     23  O   UNL     1      -1.271  -0.346   2.499  0.00  0.00    -0.495 OA
ATOM     24  C   UNL     1      -1.906  -0.523   3.766  0.00  0.00    +0.277 C 
ENDBRANCH  22  23
BRANCH  19  25
ATOM     25  O   UNL     1       4.071  -1.567   2.197  0.00  0.00    -0.495 OA
ATOM     26  C   UNL     1       4.699  -2.034   3.393  0.00  0.00    +0.277 C 
ENDBRANCH  19  25
ENDBRANCH  16  17
ENDBRANCH  11  16
ENDBRANCH  10  12
ENDBRANCH   9  10
ENDBRANCH   1   9
BRANCH   4  27
ATOM     27  C   UNL     1       1.184  -2.775  -9.764  0.00  0.00    +0.306 C 
BRANCH  27  28
ATOM     28  O   UNL     1       0.883  -4.164  -9.905  0.00  0.00    -0.484 OA
BRANCH  28  29
ATOM     29  C   UNL     1       0.873  -4.669 -11.167  0.00  0.00    +0.121 A 
ATOM     30  C   UNL     1       1.152  -3.844 -12.247  0.00  0.00    +0.046 A 
ATOM     31  C   UNL     1       1.141  -4.359 -13.529  0.00  0.00    +0.007 A 
ATOM     32  C   UNL     1       0.852  -5.696 -13.736  0.00  0.00    -0.045 A 
ATOM     33  C   UNL     1       0.573  -6.519 -12.661  0.00  0.00    +0.007 A 
ATOM     34  C   UNL     1       0.589  -6.010 -11.377  0.00  0.00    +0.046 A 
BRANCH  32  35
ATOM     35  C   UNL     1       0.841  -6.255 -15.135  0.00  0.00    +0.013 C 
ATOM     36  C   UNL     1       1.880  -7.372 -15.246  0.00  0.00    +0.012 C 
ATOM     37  C   UNL     1      -0.548  -6.816 -15.448  0.00  0.00    +0.012 C 
ENDBRANCH  32  35
ENDBRANCH  28  29
ENDBRANCH  27  28
ENDBRANCH   4  27
TORSDOF 12
