REMARK  Name = ZINC08557882
REMARK  10 active torsions:
REMARK  status: ('A' for Active; 'I' for Inactive)
REMARK    1  A    between atoms: C_1  and  C_2
REMARK    2  A    between atoms: C_5  and  C_8
REMARK    3  A    between atoms: C_14  and  C_22
REMARK    4  A    between atoms: C_16  and  C_20
REMARK    5  A    between atoms: C_17  and  N_19
REMARK    6  A    between atoms: C_25  and  O_30
REMARK    7  A    between atoms: C_26  and  O_28
REMARK    8  A    between atoms: O_28  and  C_29
REMARK    9  A    between atoms: O_30  and  C_31
REMARK   10  A    between atoms: C_31  and  C_33
REMARK                            x       y       z     vdW  Elec       q    Type
REMARK                         _______ _______ _______ _____ _____    ______ ____
ROOT
ATOM      1  C   UNL     1       0.061  -4.271  -0.028  0.00  0.00    +0.084 C 
ATOM      2  N   UNL     1       0.084  -5.074  -1.058  0.00  0.00    -0.150 NA
ATOM      3  N   UNL     1       0.149  -6.415  -0.682  0.00  0.00    -0.115 NA
ATOM      4  C   UNL     1       0.231  -6.555   0.593  0.00  0.00    +0.227 C 
ATOM      5  C   UNL     1       0.084  -5.159   1.194  0.00  0.00    +0.140 C 
ATOM      6  C   UNL     1       1.354  -4.922   2.019  0.00  0.00    +0.082 C 
ATOM      7  C   UNL     1       1.692  -6.180   2.774  0.00  0.00    +0.095 C 
ATOM      8  C   UNL     1       1.252  -7.410   2.438  0.00  0.00    +0.200 C 
ATOM      9  O   UNL     1       0.429  -7.635   1.378  0.00  0.00    -0.425 OA
ENDROOT
BRANCH   1  14
ATOM     10  C   UNL     1      -0.076   1.475  -0.125  0.00  0.00    +0.044 C 
ATOM     11  C   UNL     1      -0.040  -0.031  -0.100  0.00  0.00    -0.050 A 
ATOM     12  C   UNL     1      -0.025  -0.740  -1.289  0.00  0.00    +0.004 A 
ATOM     13  C   UNL     1       0.008  -2.118  -1.274  0.00  0.00    +0.010 A 
ATOM     14  C   UNL     1       0.026  -2.800  -0.053  0.00  0.00    -0.001 A 
ATOM     15  C   UNL     1       0.011  -2.077   1.144  0.00  0.00    +0.010 A 
ATOM     16  C   UNL     1      -0.017  -0.699   1.112  0.00  0.00    +0.004 A 
ENDBRANCH   1  14
BRANCH   6  17
ATOM     17  C   UNL     1       2.493  -4.563   1.099  0.00  0.00    -0.034 A 
ATOM     18  C   UNL     1       2.889  -5.449   0.115  0.00  0.00    +0.008 A 
ATOM     19  C   UNL     1       3.933  -5.124  -0.732  0.00  0.00    +0.050 A 
ATOM     20  C   UNL     1       4.585  -3.909  -0.594  0.00  0.00    +0.173 A 
ATOM     21  C   UNL     1       4.185  -3.017   0.398  0.00  0.00    +0.163 A 
ATOM     22  C   UNL     1       3.135  -3.347   1.239  0.00  0.00    +0.053 A 
BRANCH  21  23
ATOM     23  O   UNL     1       4.822  -1.824   0.537  0.00  0.00    -0.491 OA
ATOM     24  C   UNL     1       4.358  -0.959   1.576  0.00  0.00    +0.277 C 
ENDBRANCH  21  23
BRANCH  20  25
ATOM     25  O   UNL     1       5.612  -3.588  -1.425  0.00  0.00    -0.416 OA
BRANCH  25  26
ATOM     26  C   UNL     1       6.870  -3.772  -0.977  0.00  0.00    +0.380 C 
ATOM     27  O   UNL     1       7.061  -4.303   0.101  0.00  0.00    -0.241 OA
BRANCH  26  28
ATOM     28  C   UNL     1       8.008  -3.332  -1.787  0.00  0.00    +0.212 A 
ATOM     29  C   UNL     1       9.328  -3.461  -1.456  0.00  0.00    +0.056 A 
ATOM     30  C   UNL     1      10.065  -2.908  -2.514  0.00  0.00    +0.042 A 
ATOM     31  C   UNL     1       9.176  -2.470  -3.433  0.00  0.00    +0.196 A 
ATOM     32  O   UNL     1       7.938  -2.733  -2.994  0.00  0.00    -0.456 OA
ENDBRANCH  26  28
ENDBRANCH  25  26
ENDBRANCH  20  25
ENDBRANCH   6  17
BRANCH   8  33
ATOM     33  N   UNL     1       1.649  -8.480   3.201  0.00  0.00    -0.328 N 
ATOM     34  H   UNL     1       2.233  -8.343   3.963  0.00  0.00    +0.145 HD
ATOM     35  H   UNL     1       1.345  -9.374   2.978  0.00  0.00    +0.145 HD
ENDBRANCH   8  33
BRANCH   7  36
ATOM     36  C   UNL     1       2.536  -6.062   3.925  0.00  0.00    +0.100 C 
ATOM     37  N   UNL     1       3.205  -5.969   4.838  0.00  0.00    -0.191 NA
ENDBRANCH   7  36
TORSDOF 8
