REMARK  Name = ZINC64762034
REMARK  5 active torsions:
REMARK  status: ('A' for Active; 'I' for Inactive)
REMARK    1  A    between atoms: C_1  and  C_2
REMARK    2  A    between atoms: C_2  and  C_4
REMARK    3  A    between atoms: C_2  and  N_14
REMARK    4  A    between atoms: C_15  and  C_17
REMARK    5  A    between atoms: N_20  and  C_23
REMARK                            x       y       z     vdW  Elec       q    Type
REMARK                         _______ _______ _______ _____ _____    ______ ____
ROOT
ATOM      1  C   UNL     1       0.712  -1.094  -3.598  0.00  0.00    +0.077 C 
ATOM      2  C   UNL     1       1.278  -2.495  -3.349  0.00  0.00    +0.028 C 
ATOM      3  C   UNL     1       1.940  -3.008  -4.630  0.00  0.00    +0.089 C 
ATOM      4  N   UNL     1       0.948  -3.046  -5.713  0.00  0.00    -0.266 NA
ATOM      5  C   UNL     1       0.425  -1.705  -6.002  0.00  0.00    +0.089 C 
ATOM      6  C   UNL     1      -0.282  -1.153  -4.762  0.00  0.00    +0.028 C 
ENDROOT
BRANCH   4   7
ATOM      7  C   UNL     1       1.512  -3.663  -6.921  0.00  0.00    +0.252 C 
ATOM      8  N   UNL     1       2.770  -2.999  -7.286  0.00  0.00    -0.351 N 
ATOM      9  C   UNL     1       3.712  -3.897  -7.244  0.00  0.00    +0.061 A 
ATOM     10  C   UNL     1       5.157  -3.840  -7.503  0.00  0.00    +0.029 A 
ATOM     11  C   UNL     1       5.900  -4.958  -7.377  0.00  0.00    +0.022 A 
ATOM     12  C   UNL     1       5.347  -6.198  -7.003  0.00  0.00    +0.043 A 
ATOM     13  C   UNL     1       4.033  -6.358  -6.742  0.00  0.00    +0.047 A 
ATOM     14  C   UNL     1       3.127  -5.207  -6.847  0.00  0.00    +0.063 A 
ATOM     15  N   UNL     1       1.845  -5.069  -6.661  0.00  0.00    -0.351 N 
ATOM     16 CL   UNL     1       6.398  -7.574  -6.872  0.00  0.00    -0.083 Cl
ATOM     17  H   UNL     1       2.879  -2.064  -7.516  0.00  0.00    +0.163 HD
ATOM     18  H   UNL     1       1.224  -5.767  -6.397  0.00  0.00    +0.163 HD
ENDBRANCH   4   7
BRANCH   1  20
ATOM     19  N   UNL     1       0.688  -0.476  -1.203  0.00  0.00    -0.312 N 
ATOM     20  C   UNL     1       0.006  -0.608  -2.358  0.00  0.00    +0.216 C 
ATOM     21  O   UNL     1      -1.175  -0.336  -2.400  0.00  0.00    -0.276 OA
ATOM     22  H   UNL     1       1.632  -0.695  -1.170  0.00  0.00    +0.149 HD
BRANCH  19  24
ATOM     23  C   UNL     1      -0.019   1.526   0.010  0.00  0.00    +0.028 C 
ATOM     24  C   UNL     1       0.002  -0.004   0.002  0.00  0.00    +0.076 C 
BRANCH  24  25
ATOM     25  C   UNL     1       0.742  -0.511   1.242  0.00  0.00    -0.010 C 
ATOM     26  C   UNL     1       2.178   0.019   1.231  0.00  0.00    +0.012 C 
ATOM     27  C   UNL     1       2.917  -0.488   2.470  0.00  0.00    -0.010 C 
ATOM     28  C   UNL     1       2.201   0.005   3.729  0.00  0.00    +0.007 C 
ATOM     29  C   UNL     1       0.766  -0.524   3.740  0.00  0.00    -0.010 C 
ATOM     30  C   UNL     1       0.026  -0.018   2.500  0.00  0.00    +0.012 C 
ATOM     31  C   UNL     1       0.787  -2.054   3.732  0.00  0.00    +0.007 C 
ATOM     32  C   UNL     1       1.503  -2.548   2.473  0.00  0.00    -0.010 C 
ATOM     33  C   UNL     1       2.938  -2.018   2.462  0.00  0.00    +0.007 C 
ATOM     34  C   UNL     1       0.763  -2.041   1.233  0.00  0.00    +0.012 C 
ENDBRANCH  24  25
ENDBRANCH  19  24
ENDBRANCH   1  20
TORSDOF 4
