REMARK  Name = ZINC05328039
REMARK  3 active torsions:
REMARK  status: ('A' for Active; 'I' for Inactive)
REMARK    1  A    between atoms: C_1  and  C_2
REMARK    2  A    between atoms: C_2  and  N_3
REMARK    3  A    between atoms: C_14  and  C_16
REMARK                            x       y       z     vdW  Elec       q    Type
REMARK                         _______ _______ _______ _____ _____    ______ ____
ROOT
ATOM      1  N   UNL     1       2.180   4.106   0.003  0.00  0.00    -0.340 N 
ATOM      2  C   UNL     1       1.164   3.167   0.007  0.00  0.00    +0.050 A 
ATOM      3  C   UNL     1       1.175   1.775   0.000  0.00  0.00    +0.026 A 
ATOM      4  C   UNL     1      -0.013   1.076   0.008  0.00  0.00    +0.002 A 
ATOM      5  C   UNL     1      -1.226   1.746   0.017  0.00  0.00    +0.001 A 
ATOM      6  C   UNL     1      -1.257   3.124   0.030  0.00  0.00    +0.010 A 
ATOM      7  C   UNL     1      -0.064   3.843   0.022  0.00  0.00    +0.008 A 
ATOM      8  C   UNL     1       0.252   5.284   0.027  0.00  0.00    +0.008 A 
ATOM      9  C   UNL     1       1.653   5.384   0.014  0.00  0.00    +0.050 A 
ATOM     10  C   UNL     1       2.251   6.642   0.015  0.00  0.00    +0.027 A 
ATOM     11  C   UNL     1       1.484   7.771   0.029  0.00  0.00    +0.012 A 
ATOM     12  C   UNL     1       0.087   7.683   0.041  0.00  0.00    -0.002 A 
ATOM     13  C   UNL     1      -0.530   6.433   0.041  0.00  0.00    +0.020 A 
ENDROOT
BRANCH  12  14
ATOM     14  C   UNL     1      -0.730   8.910   0.055  0.00  0.00    +0.067 C 
ATOM     15  N   UNL     1      -2.019   8.814   0.061  0.00  0.00    -0.184 NA
ATOM     16  N   UNL     1      -2.837   9.947   0.052  0.00  0.00    -0.207 N 
ATOM     17  C   UNL     1      -2.333  11.151  -0.277  0.00  0.00    +0.233 C 
ATOM     18  O   UNL     1      -3.029  12.142  -0.214  0.00  0.00    -0.274 OA
ATOM     19  C   UNL     1      -0.896  11.261  -0.725  0.00  0.00    +0.104 C 
ATOM     20  C   UNL     1      -0.049  10.253   0.055  0.00  0.00    +0.067 C 
ATOM     21  H   UNL     1      -3.776   9.865   0.281  0.00  0.00    +0.177 HD
ENDBRANCH  12  14
BRANCH   1  23
ATOM     22  C   UNL     1       4.095   3.689  -1.460  0.00  0.00    +0.027 C 
ATOM     23  C   UNL     1       3.611   3.791  -0.012  0.00  0.00    +0.119 C 
ENDBRANCH   1  23
TORSDOF 2
