REMARK  Name = ZINC16194457
REMARK  4 active torsions:
REMARK  status: ('A' for Active; 'I' for Inactive)
REMARK    1  A    between atoms: C_1  and  O_2
REMARK    2  A    between atoms: O_2  and  C_3
REMARK    3  A    between atoms: C_4  and  C_11
REMARK    4  A    between atoms: N_17  and  C_18
REMARK                            x       y       z     vdW  Elec       q    Type
REMARK                         _______ _______ _______ _____ _____    ______ ____
ROOT
ATOM      1  C   UNL     1      -1.949  -1.631  -1.987  0.00  0.00    +0.032 C 
ATOM      2  C   UNL     1      -2.555  -1.622  -3.201  0.00  0.00    +0.078 C 
ATOM      3  C   UNL     1      -3.957  -1.319  -3.545  0.00  0.00    +0.256 C 
ATOM      4  O   UNL     1      -4.772  -1.021  -2.691  0.00  0.00    -0.269 OA
ATOM      5  N   UNL     1      -4.289  -1.384  -4.824  0.00  0.00    -0.260 N 
ATOM      6  C   UNL     1      -3.352  -1.722  -5.776  0.00  0.00    +0.166 C 
ATOM      7  N   UNL     1      -3.511  -1.832  -7.076  0.00  0.00    -0.224 NA
ATOM      8  S   UNL     1      -1.868  -1.967  -4.814  0.00  0.00    -0.049 S 
ATOM      9  H   UNL     1      -5.201  -1.192  -5.094  0.00  0.00    +0.157 HD
ENDROOT
BRANCH   1  11
ATOM     10  C   UNL     1       0.190  -1.849  -0.729  0.00  0.00    +0.141 A 
ATOM     11  C   UNL     1      -0.594  -2.179  -1.847  0.00  0.00    +0.020 A 
ATOM     12  C   UNL     1      -0.075  -3.033  -2.827  0.00  0.00    +0.027 A 
ATOM     13  C   UNL     1       1.198  -3.544  -2.688  0.00  0.00    +0.020 A 
ATOM     14  C   UNL     1       1.967  -3.215  -1.583  0.00  0.00    +0.034 A 
ATOM     15  C   UNL     1       1.469  -2.367  -0.611  0.00  0.00    +0.061 A 
ATOM     16 BR   UNL     1       2.534  -1.921   0.887  0.00  0.00    -0.046 Br
ATOM     17 BR   UNL     1       1.898  -4.698  -4.012  0.00  0.00    -0.050 Br
BRANCH  10  19
ATOM     18  C   UNL     1      -0.072   0.379   0.056  0.00  0.00    +0.277 C 
ATOM     19  O   UNL     1      -0.302  -1.021   0.228  0.00  0.00    -0.493 OA
ENDBRANCH  10  19
ENDBRANCH   1  11
BRANCH   7  20
ATOM     20  C   UNL     1      -4.721  -1.537  -7.644  0.00  0.00    +0.085 A 
ATOM     21  C   UNL     1      -5.359  -0.330  -7.350  0.00  0.00    +0.029 A 
ATOM     22  C   UNL     1      -6.577  -0.039  -7.927  0.00  0.00    +0.002 A 
ATOM     23  C   UNL     1      -7.168  -0.939  -8.796  0.00  0.00    +0.002 A 
ATOM     24  C   UNL     1      -6.542  -2.137  -9.093  0.00  0.00    +0.022 A 
ATOM     25  C   UNL     1      -5.320  -2.439  -8.527  0.00  0.00    +0.066 A 
ATOM     26 CL   UNL     1      -4.533  -3.939  -8.907  0.00  0.00    -0.081 Cl
ENDBRANCH   7  20
TORSDOF 3
