REMARK  Name = ZINC41924165
REMARK  5 active torsions:
REMARK  status: ('A' for Active; 'I' for Inactive)
REMARK    1  A    between atoms: C_3  and  C_6
REMARK    2  A    between atoms: C_6  and  C_8
REMARK    3  A    between atoms: C_6  and  N_13
REMARK    4  A    between atoms: C_14  and  C_16
REMARK    5  A    between atoms: N_18  and  C_19
REMARK                            x       y       z     vdW  Elec       q    Type
REMARK                         _______ _______ _______ _____ _____    ______ ____
ROOT
ATOM      1  N   UNL     1       4.399   1.196  -0.738  0.00  0.00    -0.300 N 
ATOM      2  C   UNL     1       4.566   1.431  -2.055  0.00  0.00    +0.300 C 
ATOM      3  O   UNL     1       4.061   2.408  -2.566  0.00  0.00    -0.265 OA
ATOM      4  H   UNL     1       4.862   0.457  -0.315  0.00  0.00    +0.150 HD
ENDROOT
BRANCH   2   5
ATOM      5  C   UNL     1       5.375   0.488  -2.884  0.00  0.00    +0.303 C 
ATOM      6  O   UNL     1       5.881  -0.490  -2.373  0.00  0.00    -0.265 OA
ATOM      7  N   UNL     1       5.543   0.723  -4.201  0.00  0.00    -0.275 N 
ATOM      8  H   UNL     1       5.088   1.469  -4.622  0.00  0.00    +0.155 HD
BRANCH   7   9
ATOM      9  C   UNL     1       6.372  -0.110  -4.959  0.00  0.00    +0.069 A 
ATOM     10  C   UNL     1       6.450  -1.466  -4.669  0.00  0.00    +0.027 A 
ATOM     11  C   UNL     1       7.269  -2.286  -5.420  0.00  0.00    +0.022 A 
ATOM     12  C   UNL     1       8.014  -1.758  -6.461  0.00  0.00    +0.044 A 
ATOM     13  C   UNL     1       7.940  -0.408  -6.753  0.00  0.00    +0.060 A 
ATOM     14  C   UNL     1       7.117   0.418  -6.009  0.00  0.00    +0.146 A 
ATOM     15  F   UNL     1       7.040   1.735  -6.298  0.00  0.00    -0.203 F 
ATOM     16 CL   UNL     1       9.043  -2.793  -7.401  0.00  0.00    -0.083 Cl
ENDBRANCH   7   9
ENDBRANCH   2   5
BRANCH   1  17
ATOM     17  C   UNL     1       3.517   2.058   0.053  0.00  0.00    +0.113 C 
BRANCH  17  20
ATOM     18  C   UNL     1      -0.241   1.446  -0.086  0.00  0.00    +0.008 A 
ATOM     19  C   UNL     1       0.938   2.169  -0.078  0.00  0.00    +0.013 A 
ATOM     20  C   UNL     1       2.115   1.505   0.023  0.00  0.00    +0.010 A 
ATOM     21  S   UNL     1       1.575  -0.194   0.110  0.00  0.00    -0.100 S 
ATOM     22  C   UNL     1      -0.184   0.095   0.006  0.00  0.00    +0.045 A 
ENDBRANCH  17  20
BRANCH  17  23
ATOM     23  C   UNL     1       4.014   2.107   1.498  0.00  0.00    +0.014 C 
ATOM     24  C   UNL     1       3.211   3.153   2.299  0.00  0.00    +0.006 C 
ATOM     25  C   UNL     1       4.257   3.793   3.245  0.00  0.00    +0.000 C 
ATOM     26  C   UNL     1       5.523   3.867   2.355  0.00  0.00    +0.000 C 
ATOM     27  C   UNL     1       5.484   2.561   1.534  0.00  0.00    +0.006 C 
ENDBRANCH  17  23
ENDBRANCH   1  17
TORSDOF 5
