REMARK  Name = ZINC21598888
REMARK  3 active torsions:
REMARK  status: ('A' for Active; 'I' for Inactive)
REMARK    1  A    between atoms: C_8  and  C_11
REMARK    2  A    between atoms: N_13  and  C_14
REMARK    3  A    between atoms: C_17  and  C_20
REMARK                            x       y       z     vdW  Elec       q    Type
REMARK                         _______ _______ _______ _____ _____    ______ ____
ROOT
ATOM      1  C   UNL     1       1.376   4.270  -2.665  0.00  0.00    +0.034 A 
ATOM      2  C   UNL     1       0.568   5.392  -2.519  0.00  0.00    +0.024 A 
ATOM      3  C   UNL     1       0.987   6.613  -3.001  0.00  0.00    +0.012 A 
ATOM      4  C   UNL     1       2.221   6.720  -3.646  0.00  0.00    +0.007 A 
ATOM      5  C   UNL     1       3.028   5.590  -3.796  0.00  0.00    +0.012 A 
ATOM      6  C   UNL     1       2.605   4.374  -3.307  0.00  0.00    +0.024 A 
ENDROOT
BRANCH   4   7
ATOM      7  C   UNL     1       2.671   8.026  -4.170  0.00  0.00    +0.109 A 
ATOM      8  N   UNL     1       2.058   9.189  -4.125  0.00  0.00    -0.239 NA
ATOM      9  C   UNL     1       2.592  10.310  -4.649  0.00  0.00    +0.079 A 
ATOM     10  C   UNL     1       2.042  11.614  -4.668  0.00  0.00    +0.029 A 
ATOM     11  C   UNL     1       2.716  12.646  -5.241  0.00  0.00    +0.002 A 
ATOM     12  C   UNL     1       3.962  12.468  -5.827  0.00  0.00    +0.001 A 
ATOM     13  C   UNL     1       4.535  11.210  -5.831  0.00  0.00    +0.017 A 
ATOM     14  C   UNL     1       3.862  10.160  -5.254  0.00  0.00    +0.040 A 
ATOM     15  S   UNL     1       4.192   8.431  -5.018  0.00  0.00    -0.067 S 
ENDBRANCH   4   7
BRANCH   1  18
ATOM     16  C   UNL     1       0.203   2.979  -1.050  0.00  0.00    +0.258 C 
ATOM     17  O   UNL     1      -0.018   3.990  -0.418  0.00  0.00    -0.271 OA
ATOM     18  N   UNL     1       0.949   3.035  -2.171  0.00  0.00    -0.282 N 
ATOM     19  H   UNL     1       1.222   2.108  -2.697  0.00  0.00    +0.155 HD
BRANCH  16  27
ATOM     20  C   UNL     1       1.747   1.032   3.544  0.00  0.00    +0.000 A 
ATOM     21  C   UNL     1       0.611   1.713   3.943  0.00  0.00    +0.004 A 
ATOM     22  C   UNL     1      -0.377   2.015   3.030  0.00  0.00    +0.046 A 
ATOM     23  C   UNL     1      -0.241   1.636   1.697  0.00  0.00    +0.125 A 
ATOM     24  C   UNL     1       0.908   0.958   1.307  0.00  0.00    -0.002 A 
ATOM     25  C   UNL     1       1.892   0.655   2.221  0.00  0.00    +0.007 A 
ATOM     26  C   UNL     1       0.782   0.693  -0.181  0.00  0.00    +0.093 C 
ATOM     27  C   UNL     1      -0.356   1.660  -0.583  0.00  0.00    +0.263 C 
ATOM     28  O   UNL     1      -1.085   1.822   0.645  0.00  0.00    -0.479 OA
ENDBRANCH  16  27
ENDBRANCH   1  18
TORSDOF 3
