REMARK  Name = ZINC08456098
REMARK  8 active torsions:
REMARK  status: ('A' for Active; 'I' for Inactive)
REMARK    1  A    between atoms: C_1  and  C_2
REMARK    2  A    between atoms: C_3  and  C_7
REMARK    3  A    between atoms: N_9  and  C_10
REMARK    4  A    between atoms: C_13  and  C_16
REMARK    5  A    between atoms: C_16  and  C_34
REMARK    6  A    between atoms: N_17  and  N_18
REMARK    7  A    between atoms: C_19  and  C_21
REMARK    8  A    between atoms: C_26  and  N_30
REMARK                            x       y       z     vdW  Elec       q    Type
REMARK                         _______ _______ _______ _____ _____    ______ ____
ROOT
ATOM      1  C   UNL     1      -5.921  -1.183  -0.352  0.00  0.00    +0.063 C 
ATOM      2  N   UNL     1      -7.072  -0.589  -0.437  0.00  0.00    -0.184 NA
ATOM      3  C   UNL     1      -5.848  -2.688  -0.352  0.00  0.00    +0.068 C 
ENDROOT
BRANCH   1   7
ATOM      4  C   UNL     1      -2.362   1.114  -0.073  0.00  0.00    +0.034 A 
ATOM      5  C   UNL     1      -2.292  -0.275  -0.079  0.00  0.00    +0.024 A 
ATOM      6  C   UNL     1      -3.445  -1.024  -0.164  0.00  0.00    +0.011 A 
ATOM      7  C   UNL     1      -4.686  -0.386  -0.255  0.00  0.00    -0.002 A 
ATOM      8  C   UNL     1      -4.751   1.011  -0.254  0.00  0.00    +0.011 A 
ATOM      9  C   UNL     1      -3.594   1.752  -0.164  0.00  0.00    +0.024 A 
BRANCH   4  12
ATOM     10  C   UNL     1      -0.148   1.413   0.739  0.00  0.00    +0.252 C 
ATOM     11  O   UNL     1      -0.259   0.390   1.388  0.00  0.00    -0.270 OA
ATOM     12  N   UNL     1      -1.191   1.870   0.018  0.00  0.00    -0.281 N 
ATOM     13  H   UNL     1      -1.128   2.724  -0.438  0.00  0.00    +0.155 HD
BRANCH  10  16
ATOM     14  C   UNL     1       2.459   0.615   2.291  0.00  0.00    +0.087 C 
ATOM     15  C   UNL     1       2.272   1.818   1.403  0.00  0.00    +0.114 A 
ATOM     16  C   UNL     1       1.129   2.148   0.736  0.00  0.00    +0.078 A 
ATOM     17  C   UNL     1       1.439   3.388   0.009  0.00  0.00    +0.054 A 
ATOM     18  C   UNL     1       2.713   3.683   0.309  0.00  0.00    +0.196 A 
ATOM     19  O   UNL     1       3.199   2.744   1.135  0.00  0.00    -0.467 OA
ENDBRANCH  10  16
ENDBRANCH   4  12
ENDBRANCH   1   7
BRANCH   2  20
ATOM     20  N   UNL     1      -8.247  -1.347  -0.529  0.00  0.00    -0.202 N 
ATOM     21  C   UNL     1      -9.442  -0.730  -0.617  0.00  0.00    +0.271 C 
ATOM     22  O   UNL     1      -9.501   0.486  -0.617  0.00  0.00    -0.268 OA
ATOM     23  H   UNL     1      -8.200  -2.316  -0.529  0.00  0.00    +0.178 HD
BRANCH  21  24
ATOM     24  C   UNL     1     -10.672  -1.524  -0.714  0.00  0.00    +0.095 A 
ATOM     25  C   UNL     1     -11.959  -1.088  -0.804  0.00  0.00    +0.068 A 
ATOM     26  C   UNL     1     -13.010  -2.019  -0.893  0.00  0.00    +0.008 A 
ATOM     27  C   UNL     1     -14.402  -1.765  -0.999  0.00  0.00    +0.013 A 
ATOM     28  C   UNL     1     -15.292  -2.788  -1.071  0.00  0.00    +0.033 A 
ATOM     29  C   UNL     1     -14.880  -4.115  -1.045  0.00  0.00    +0.127 A 
ATOM     30  C   UNL     1     -13.535  -4.407  -0.942  0.00  0.00    +0.048 A 
ATOM     31  C   UNL     1     -12.620  -3.379  -0.869  0.00  0.00    +0.024 A 
ATOM     32  S   UNL     1     -10.851  -3.299  -0.734  0.00  0.00    -0.082 S 
ATOM     33 CL   UNL     1     -12.301   0.614  -0.815  0.00  0.00    -0.082 Cl
BRANCH  29  34
ATOM     34  N   UNL     1     -15.876  -5.207  -1.125  0.00  0.00    +0.056 N 
ATOM     35  O   UNL     1     -17.062  -4.944  -1.215  0.00  0.00    -0.126 OA
ATOM     36  O   UNL     1     -15.510  -6.368  -1.101  0.00  0.00    -0.126 OA
ENDBRANCH  29  34
ENDBRANCH  21  24
ENDBRANCH   2  20
TORSDOF 6
