REMARK  Name = ZINC43650144
REMARK  3 active torsions:
REMARK  status: ('A' for Active; 'I' for Inactive)
REMARK    1  A    between atoms: C_3  and  C_11
REMARK    2  A    between atoms: C_6  and  N_7
REMARK    3  A    between atoms: C_11  and  C_12
REMARK                            x       y       z     vdW  Elec       q    Type
REMARK                         _______ _______ _______ _____ _____    ______ ____
ROOT
ATOM      1  C   UNL     1       1.213  -0.665  -0.328  0.00  0.00    +0.033 A 
ATOM      2  C   UNL     1       2.393   0.055  -0.335  0.00  0.00    +0.007 A 
ATOM      3  C   UNL     1       2.385   1.399  -0.015  0.00  0.00    -0.033 A 
ATOM      4  C   UNL     1       1.195   2.025   0.313  0.00  0.00    +0.023 A 
ATOM      5  C   UNL     1       0.015   1.304   0.320  0.00  0.00    +0.048 A 
ATOM      6  C   UNL     1       0.024  -0.041  -0.000  0.00  0.00    +0.127 A 
ATOM      7 BR   UNL     1       1.183   3.864   0.753  0.00  0.00    -0.050 Br
ENDROOT
BRANCH   6   8
ATOM      8  N   UNL     1      -1.239  -0.812   0.007  0.00  0.00    +0.056 N 
ATOM      9  O   UNL     1      -1.231  -1.988  -0.274  0.00  0.00    -0.126 OA
ATOM     10  O   UNL     1      -2.279  -0.266   0.293  0.00  0.00    -0.126 OA
ENDBRANCH   6   8
BRANCH   3  11
ATOM     11  C   UNL     1       3.672   2.184  -0.022  0.00  0.00    +0.047 C 
BRANCH  11  12
ATOM     12  C   UNL     1       4.188   2.330   1.411  0.00  0.00    +0.060 C 
ATOM     13  C   UNL     1       5.310   3.396   1.411  0.00  0.00    +0.011 C 
ATOM     14  C   UNL     1       6.146   3.297   2.710  0.00  0.00    +0.001 C 
ATOM     15  C   UNL     1       5.250   3.000   3.880  0.00  0.00    +0.000 C 
ATOM     16  C   UNL     1       5.396   1.502   4.109  0.00  0.00    +0.007 C 
ATOM     17  C   UNL     1       4.407   0.677   3.412  0.00  0.00    +0.074 C 
ATOM     18  C   UNL     1       4.559   0.985   1.904  0.00  0.00    +0.137 C 
ATOM     19  O   UNL     1       4.971   0.143   1.143  0.00  0.00    -0.297 OA
ENDBRANCH  11  12
ENDBRANCH   3  11
TORSDOF 3
