REMARK  Name = ZINC66536566
REMARK  6 active torsions:
REMARK  status: ('A' for Active; 'I' for Inactive)
REMARK    1  A    between atoms: C_1  and  C_2
REMARK    2  A    between atoms: C_2  and  N_3
REMARK    3  A    between atoms: N_6  and  C_7
REMARK    4  A    between atoms: C_10  and  O_13
REMARK    5  A    between atoms: O_13  and  C_14
REMARK    6  A    between atoms: C_14  and  C_16
REMARK                            x       y       z     vdW  Elec       q    Type
REMARK                         _______ _______ _______ _____ _____    ______ ____
ROOT
ATOM      1  C   UNL     1      -3.113  -3.750   0.012  0.00  0.00    +0.075 C 
ATOM      2  C   UNL     1      -3.089  -4.266  -1.428  0.00  0.00    +0.026 C 
ATOM      3  C   UNL     1      -4.175  -3.559  -2.242  0.00  0.00    +0.046 C 
ATOM      4  C   UNL     1      -5.544  -3.843  -1.621  0.00  0.00    +0.177 C 
ATOM      5  C   UNL     1      -5.568  -3.327  -0.180  0.00  0.00    +0.046 C 
ATOM      6  C   UNL     1      -4.482  -4.034   0.633  0.00  0.00    +0.026 C 
ENDROOT
BRANCH   1  10
ATOM      7  N   UNL     1      -1.372  -0.511   0.012  0.00  0.00    -0.300 N 
ATOM      8  C   UNL     1      -1.601  -1.839   0.007  0.00  0.00    +0.300 C 
ATOM      9  O   UNL     1      -0.666  -2.617  -0.006  0.00  0.00    -0.253 OA
ATOM     10  N   UNL     1      -2.865  -2.306   0.017  0.00  0.00    -0.297 N 
ATOM     11  H   UNL     1      -2.118   0.109   0.023  0.00  0.00    +0.150 HD
ATOM     12  H   UNL     1      -3.611  -1.686   0.028  0.00  0.00    +0.151 HD
BRANCH   7  14
ATOM     13  C   UNL     1      -0.019   1.526   0.010  0.00  0.00    +0.024 C 
ATOM     14  C   UNL     1       0.002  -0.004   0.002  0.00  0.00    +0.102 C 
ENDBRANCH   7  14
ENDBRANCH   1  10
BRANCH   4  15
ATOM     15  O   UNL     1      -6.559  -3.183  -2.380  0.00  0.00    -0.461 OA
BRANCH  15  16
ATOM     16  C   UNL     1      -7.771  -3.759  -2.409  0.00  0.00    +0.314 C 
ATOM     17  O   UNL     1      -7.964  -4.790  -1.810  0.00  0.00    -0.250 OA
BRANCH  16  18
ATOM     18  C   UNL     1      -8.890  -3.120  -3.190  0.00  0.00    +0.139 C 
ATOM     19  C   UNL     1     -10.154  -3.976  -3.074  0.00  0.00    +0.057 C 
ATOM     20  C   UNL     1     -11.177  -3.509  -4.078  0.00  0.00    -0.003 A 
ATOM     21  C   UNL     1     -12.500  -3.879  -3.901  0.00  0.00    +0.027 A 
ATOM     22  C   UNL     1     -13.464  -3.472  -4.804  0.00  0.00    +0.041 A 
ATOM     23  C   UNL     1     -13.108  -2.692  -5.891  0.00  0.00    +0.023 A 
ATOM     24  C   UNL     1     -11.792  -2.321  -6.070  0.00  0.00    +0.047 A 
ATOM     25  C   UNL     1     -10.819  -2.727  -5.161  0.00  0.00    +0.124 A 
ATOM     26  O   UNL     1      -9.536  -2.332  -5.366  0.00  0.00    -0.491 OA
ATOM     27  C   UNL     1      -8.502  -3.031  -4.671  0.00  0.00    +0.244 C 
ATOM     28 CL   UNL     1     -15.121  -3.938  -4.575  0.00  0.00    -0.084 Cl
ENDBRANCH  16  18
ENDBRANCH  15  16
ENDBRANCH   4  15
TORSDOF 5
