REMARK  Name = ZINC15227553
REMARK  7 active torsions:
REMARK  status: ('A' for Active; 'I' for Inactive)
REMARK    1  A    between atoms: C_4  and  C_7
REMARK    2  A    between atoms: C_7  and  C_8
REMARK    3  A    between atoms: C_8  and  N_9
REMARK    4  A    between atoms: C_10  and  C_16
REMARK    5  A    between atoms: C_19  and  C_22
REMARK    6  A    between atoms: N_24  and  N_25
REMARK    7  A    between atoms: C_26  and  C_27
REMARK                            x       y       z     vdW  Elec       q    Type
REMARK                         _______ _______ _______ _____ _____    ______ ____
ROOT
ATOM      1  C   UNL     1      -1.176   2.853   0.020  0.00  0.00    -0.017 A 
ATOM      2  C   UNL     1      -1.282   1.528   0.405  0.00  0.00    +0.007 A 
ATOM      3  C   UNL     1      -0.172   0.709   0.382  0.00  0.00    +0.013 A 
ATOM      4  C   UNL     1       1.057   1.217  -0.042  0.00  0.00    +0.038 A 
ATOM      5  C   UNL     1       1.156   2.553  -0.434  0.00  0.00    +0.013 A 
ATOM      6  C   UNL     1       0.039   3.362  -0.401  0.00  0.00    +0.007 A 
ENDROOT
BRANCH   1   8
ATOM      7  N   UNL     1      -3.497   3.161  -0.729  0.00  0.00    -0.284 N 
ATOM      8  C   UNL     1      -2.392   3.744   0.054  0.00  0.00    +0.165 C 
ATOM      9  S   UNL     1      -3.131   3.792   1.743  0.00  0.00    -0.124 S 
ATOM     10  C   UNL     1      -4.891   3.676   1.202  0.00  0.00    +0.167 C 
ATOM     11  C   UNL     1      -4.714   3.118  -0.201  0.00  0.00    +0.227 C 
ATOM     12  O   UNL     1      -5.650   2.652  -0.815  0.00  0.00    -0.275 OA
BRANCH   7  13
ATOM     13  C   UNL     1      -3.256   2.636  -2.075  0.00  0.00    +0.114 C 
BRANCH  13  14
ATOM     14  C   UNL     1      -3.473   3.748  -3.103  0.00  0.00    +0.054 C 
BRANCH  14  18
ATOM     15  C   UNL     1      -2.889   2.187  -7.036  0.00  0.00    +0.000 A 
ATOM     16  C   UNL     1      -4.145   2.157  -6.460  0.00  0.00    +0.000 A 
ATOM     17  C   UNL     1      -4.334   2.662  -5.187  0.00  0.00    +0.004 A 
ATOM     18  C   UNL     1      -3.267   3.197  -4.491  0.00  0.00    -0.046 A 
ATOM     19  C   UNL     1      -2.012   3.232  -5.069  0.00  0.00    +0.004 A 
ATOM     20  C   UNL     1      -1.822   2.723  -6.340  0.00  0.00    +0.000 A 
ENDBRANCH  14  18
ENDBRANCH  13  14
ENDBRANCH   7  13
ENDBRANCH   1   8
BRANCH   4  21
ATOM     21  C   UNL     1       2.249   0.343  -0.075  0.00  0.00    +0.263 C 
ATOM     22  O   UNL     1       2.160  -0.820   0.267  0.00  0.00    -0.268 OA
ATOM     23  N   UNL     1       3.434   0.836  -0.485  0.00  0.00    -0.203 N 
ATOM     24  H   UNL     1       3.505   1.764  -0.758  0.00  0.00    +0.178 HD
BRANCH  23  25
ATOM     25  N   UNL     1       4.564   0.008  -0.517  0.00  0.00    -0.187 NA
ATOM     26  C   UNL     1       5.705   0.483  -0.912  0.00  0.00    +0.138 C 
BRANCH  26  27
ATOM     27  C   UNL     1       6.894  -0.389  -0.946  0.00  0.00    -0.005 A 
ATOM     28  C   UNL     1       6.797  -1.724  -0.548  0.00  0.00    +0.010 A 
ATOM     29  C   UNL     1       7.912  -2.535  -0.586  0.00  0.00    +0.016 A 
ATOM     30  C   UNL     1       9.128  -2.025  -1.008  0.00  0.00    +0.018 A 
ATOM     31  C   UNL     1       9.233  -0.701  -1.399  0.00  0.00    +0.016 A 
ATOM     32  C   UNL     1       8.125   0.119  -1.370  0.00  0.00    +0.010 A 
ATOM     33 BR   UNL     1      10.653  -3.143  -1.050  0.00  0.00    -0.050 Br
ENDBRANCH  26  27
ENDBRANCH  23  25
ENDBRANCH   4  21
TORSDOF 7
