REMARK  Name = ZINC00095985
REMARK  4 active torsions:
REMARK  status: ('A' for Active; 'I' for Inactive)
REMARK    1  A    between atoms: C_1  and  C_2
REMARK    2  A    between atoms: C_5  and  O_25
REMARK    3  A    between atoms: C_6  and  C_8
REMARK    4  A    between atoms: CA_21  and  C_23
REMARK                            x       y       z     vdW  Elec       q    Type
REMARK                         _______ _______ _______ _____ _____    ______ ____
ROOT
ATOM      1  C   UNL     1      -4.113   2.493  -0.031  0.00  0.00    +0.012 C 
ATOM      2  C   UNL     1      -2.677   2.949  -0.144  0.00  0.00    +0.010 A 
ATOM      3  C   UNL     1      -2.317   4.248  -0.144  0.00  0.00    -0.021 A 
ATOM      4  C   UNL     1      -0.866   4.301  -0.266  0.00  0.00    +0.003 A 
ATOM      5  C   UNL     1       0.073   5.332  -0.333  0.00  0.00    +0.010 A 
ATOM      6  C   UNL     1       1.401   5.036  -0.451  0.00  0.00    +0.001 A 
ATOM      7  C   UNL     1       1.827   3.716  -0.507  0.00  0.00    +0.002 A 
ATOM      8  C   UNL     1       0.919   2.683  -0.443  0.00  0.00    +0.026 A 
ATOM      9  C   UNL     1      -0.438   2.960  -0.327  0.00  0.00    +0.047 A 
ATOM     10  N   UNL     1      -1.563   2.167  -0.246  0.00  0.00    -0.359 N 
ATOM     11  H   UNL     1      -1.563   1.197  -0.260  0.00  0.00    +0.166 HD
ATOM     12  C   UNL     1      -3.299   5.389  -0.062  0.00  0.00    +0.033 C 
ATOM     13  CA  UNL     1      -4.700   4.831  -0.352  0.00  0.00    +0.049 C 
ATOM     14  N   UNL     1      -4.931   3.623   0.466  0.00  0.00    +0.396 N 
ATOM     15  H1  UNL     1      -4.675   3.821   1.441  0.00  0.00    -0.083 HD
ATOM     16  H2  UNL     1      -5.924   3.367   0.418  0.00  0.00    -0.083 HD
ENDROOT
BRANCH   1  22
ATOM     17  C   UNL     1      -5.171   0.771   4.547  0.00  0.00    +0.044 C 
ATOM     18  C   UNL     1      -4.714   0.521   3.133  0.00  0.00    -0.050 A 
ATOM     19  C   UNL     1      -4.380  -0.759   2.731  0.00  0.00    +0.007 A 
ATOM     20  C   UNL     1      -3.960  -0.991   1.436  0.00  0.00    +0.046 A 
ATOM     21  C   UNL     1      -3.877   0.062   0.536  0.00  0.00    +0.119 A 
ATOM     22  C   UNL     1      -4.207   1.347   0.943  0.00  0.00    -0.014 A 
ATOM     23  C   UNL     1      -4.627   1.573   2.239  0.00  0.00    +0.009 A 
BRANCH  21  24
ATOM     24  O   UNL     1      -3.469  -0.164  -0.740  0.00  0.00    -0.507 OA
ATOM     25  H   UNL     1      -2.513  -0.091  -0.866  0.00  0.00    +0.292 HD
ENDBRANCH  21  24
ENDBRANCH   1  22
BRANCH  13  26
ATOM     26  C   UNL     1      -4.810   4.485  -1.815  0.00  0.00    +0.343 C 
ATOM     27  O   UNL     1      -5.279   3.423  -2.151  0.00  0.00    -0.248 OA
ATOM     28  OXT UNL     1      -4.386   5.356  -2.744  0.00  0.00    -0.248 OA
ENDBRANCH  13  26
TORSDOF 3
