REMARK  Name = ZINC32946623
REMARK  9 active torsions:
REMARK  status: ('A' for Active; 'I' for Inactive)
REMARK    1  A    between atoms: C_1  and  C_2
REMARK    2  A    between atoms: C_2  and  C_4
REMARK    3  A    between atoms: C_2  and  N_14
REMARK    4  A    between atoms: C_15  and  C_17
REMARK    5  A    between atoms: C_17  and  S_18
REMARK    6  A    between atoms: S_18  and  C_19
REMARK    7  A    between atoms: C_23  and  S_29
REMARK    8  A    between atoms: N_27  and  C_28
REMARK    9  A    between atoms: S_29  and  N_32
REMARK                            x       y       z     vdW  Elec       q    Type
REMARK                         _______ _______ _______ _____ _____    ______ ____
ROOT
ATOM      1  C   UNL     1      -4.540   1.685  -4.363  0.00  0.00    +0.173 C 
ENDROOT
BRANCH   1   3
ATOM      2  N   UNL     1      -2.157   1.539  -3.717  0.00  0.00    -0.312 N 
ATOM      3  C   UNL     1      -3.126   2.206  -4.374  0.00  0.00    +0.224 C 
ATOM      4  O   UNL     1      -2.861   3.227  -4.973  0.00  0.00    -0.275 OA
ATOM      5  H   UNL     1      -2.398   0.614  -3.173  0.00  0.00    +0.149 HD
BRANCH   2   7
ATOM      6  C   UNL     1      -0.066   1.553  -4.986  0.00  0.00    +0.028 C 
ATOM      7  C   UNL     1      -0.782   2.046  -3.727  0.00  0.00    +0.076 C 
BRANCH   7   8
ATOM      8  C   UNL     1      -0.043   1.539  -2.488  0.00  0.00    -0.010 C 
ATOM      9  C   UNL     1      -0.759   2.033  -1.229  0.00  0.00    +0.012 C 
ATOM     10  C   UNL     1      -0.019   1.526   0.010  0.00  0.00    -0.010 C 
ATOM     11  C   UNL     1       1.417   2.055  -0.000  0.00  0.00    +0.007 C 
ATOM     12  C   UNL     1       2.133   1.562  -1.259  0.00  0.00    -0.010 C 
ATOM     13  C   UNL     1       1.393   2.069  -2.499  0.00  0.00    +0.012 C 
ATOM     14  C   UNL     1       2.154   0.032  -1.268  0.00  0.00    +0.007 C 
ATOM     15  C   UNL     1       0.718  -0.497  -1.257  0.00  0.00    -0.010 C 
ATOM     16  C   UNL     1       0.002  -0.004   0.002  0.00  0.00    +0.007 C 
ATOM     17  C   UNL     1      -0.022   0.009  -2.496  0.00  0.00    +0.012 C 
ENDBRANCH   7   8
ENDBRANCH   2   7
ENDBRANCH   1   3
BRANCH   1  18
ATOM     18  S   UNL     1      -5.599   2.792  -5.326  0.00  0.00    -0.078 S 
BRANCH  18  19
ATOM     19  C   UNL     1      -7.146   1.967  -5.149  0.00  0.00    +0.170 A 
ATOM     20  N   UNL     1      -7.335   0.856  -4.480  0.00  0.00    -0.222 NA
ATOM     21  C   UNL     1      -8.645   0.501  -4.546  0.00  0.00    +0.092 A 
ATOM     22  C   UNL     1      -9.377  -0.568  -4.023  0.00  0.00    +0.058 A 
ATOM     23  C   UNL     1     -10.727  -0.661  -4.276  0.00  0.00    +0.107 A 
ATOM     24  C   UNL     1     -11.367   0.298  -5.046  0.00  0.00    +0.030 A 
ATOM     25  C   UNL     1     -10.658   1.360  -5.569  0.00  0.00    +0.030 A 
ATOM     26  C   UNL     1      -9.298   1.470  -5.325  0.00  0.00    +0.069 A 
ATOM     27  N   UNL     1      -8.327   2.387  -5.694  0.00  0.00    -0.322 N 
ATOM     28  C   UNL     1      -8.528   3.583  -6.515  0.00  0.00    +0.151 C 
BRANCH  23  29
ATOM     29  S   UNL     1     -11.649  -2.010  -3.616  0.00  0.00    +0.056 S 
ATOM     30  O   UNL     1     -10.932  -2.475  -2.480  0.00  0.00    -0.153 OA
ATOM     31  O   UNL     1     -13.001  -1.579  -3.540  0.00  0.00    -0.153 OA
BRANCH  29  32
ATOM     32  N   UNL     1     -11.602  -3.229  -4.736  0.00  0.00    -0.204 NA
ATOM     33  H   UNL     1     -12.169  -4.094  -4.360  0.00  0.00    +0.144 HD
ATOM     34  H   UNL     1     -10.558  -3.525  -4.913  0.00  0.00    +0.144 HD
ENDBRANCH  29  32
ENDBRANCH  23  29
ENDBRANCH  18  19
ENDBRANCH   1  18
TORSDOF 7
