REMARK  Name = ZINC67131406
REMARK  5 active torsions:
REMARK  status: ('A' for Active; 'I' for Inactive)
REMARK    1  A    between atoms: C_3  and  C_21
REMARK    2  A    between atoms: C_5  and  N_7
REMARK    3  A    between atoms: N_23  and  C_24
REMARK    4  A    between atoms: C_24  and  C_25
REMARK    5  A    between atoms: C_25  and  C_26
REMARK                            x       y       z     vdW  Elec       q    Type
REMARK                         _______ _______ _______ _____ _____    ______ ____
ROOT
ATOM      1  C   UNL     1       0.014   1.380  -0.274  0.00  0.00    +0.003 A 
ATOM      2  C   UNL     1       1.167   2.089  -0.002  0.00  0.00    +0.013 A 
ATOM      3  C   UNL     1       2.357   1.410   0.267  0.00  0.00    +0.039 A 
ATOM      4  C   UNL     1       2.375   0.015   0.260  0.00  0.00    +0.038 A 
ATOM      5  C   UNL     1       1.212  -0.687  -0.013  0.00  0.00    +0.057 A 
ATOM      6  C   UNL     1       0.033  -0.002  -0.280  0.00  0.00    +0.025 A 
ENDROOT
BRANCH   5   7
ATOM      7  N   UNL     1       1.226  -2.087  -0.021  0.00  0.00    -0.188 N 
ATOM      8  C   UNL     1       0.278  -2.773   0.650  0.00  0.00    +0.240 C 
ATOM      9  O   UNL     1      -0.555  -2.182   1.304  0.00  0.00    -0.273 OA
ATOM     10  C   UNL     1       0.260  -4.277   0.583  0.00  0.00    +0.093 C 
ATOM     11  C   UNL     1      -1.155  -4.804   0.829  0.00  0.00    +0.040 C 
ATOM     12  C   UNL     1      -1.210  -6.271   0.509  0.00  0.00    -0.030 C 
ATOM     13  C   UNL     1      -0.324  -6.892  -0.202  0.00  0.00    -0.030 C 
ATOM     14  C   UNL     1       0.888  -6.237  -0.802  0.00  0.00    +0.040 C 
ATOM     15  C   UNL     1       0.709  -4.720  -0.818  0.00  0.00    +0.092 C 
ATOM     16  C   UNL     1       2.005  -4.032  -1.157  0.00  0.00    +0.234 C 
ATOM     17  O   UNL     1       2.846  -4.608  -1.814  0.00  0.00    -0.274 OA
ATOM     18  N   UNL     1       2.220  -2.772  -0.732  0.00  0.00    -0.227 N 
ATOM     19  H   UNL     1       3.069  -2.340  -0.915  0.00  0.00    +0.173 HD
ENDBRANCH   5   7
BRANCH   3  20
ATOM     20  C   UNL     1       3.593   2.167   0.557  0.00  0.00    +0.244 C 
ATOM     21  O   UNL     1       4.628   1.574   0.791  0.00  0.00    -0.270 OA
ATOM     22  N   UNL     1       3.573   3.515   0.562  0.00  0.00    -0.311 N 
ATOM     23  H   UNL     1       2.747   3.988   0.375  0.00  0.00    +0.149 HD
BRANCH  22  24
ATOM     24  C   UNL     1       4.798   4.265   0.850  0.00  0.00    +0.109 C 
BRANCH  24  25
ATOM     25  C   UNL     1       4.503   5.765   0.793  0.00  0.00    +0.049 C 
BRANCH  25  26
ATOM     26  C   UNL     1       5.763   6.537   1.089  0.00  0.00    -0.072 C 
ATOM     27  C   UNL     1       6.474   6.945   0.087  0.00  0.00    -0.028 C 
ATOM     28  C   UNL     1       7.755   7.714   0.224  0.00  0.00    +0.027 C 
ATOM     29  C   UNL     1       7.871   8.299   1.633  0.00  0.00    +0.004 C 
ATOM     30  C   UNL     1       7.588   7.184   2.646  0.00  0.00    +0.005 C 
ATOM     31  C   UNL     1       6.113   6.788   2.526  0.00  0.00    +0.030 C 
ENDBRANCH  25  26
ENDBRANCH  24  25
ENDBRANCH  22  24
ENDBRANCH   3  20
TORSDOF 5
