REMARK  Name = ZINC00658130
REMARK  7 active torsions:
REMARK  status: ('A' for Active; 'I' for Inactive)
REMARK    1  A    between atoms: C_1  and  C_2
REMARK    2  A    between atoms: C_2  and  S_3
REMARK    3  A    between atoms: S_3  and  C_4
REMARK    4  A    between atoms: C_13  and  C_16
REMARK    5  A    between atoms: C_16  and  C_17
REMARK    6  A    between atoms: C_16  and  C_18
REMARK    7  A    between atoms: N_21  and  C_22
REMARK                            x       y       z     vdW  Elec       q    Type
REMARK                         _______ _______ _______ _____ _____    ______ ____
ROOT
ATOM      1  C   UNL     1       1.109   5.929   0.129  0.00  0.00    +0.177 A 
ATOM      2  N   UNL     1       1.125   7.247   0.132  0.00  0.00    -0.216 NA
ATOM      3  C   UNL     1      -0.004   7.941   0.048  0.00  0.00    +0.117 A 
ATOM      4  C   UNL     1      -1.260   7.319  -0.053  0.00  0.00    +0.076 A 
ATOM      5  C   UNL     1      -2.410   8.217  -0.136  0.00  0.00    -0.018 A 
ATOM      6  C   UNL     1      -2.157   9.544  -0.109  0.00  0.00    +0.021 A 
ATOM      7  S   UNL     1      -0.397   9.673   0.028  0.00  0.00    -0.071 S 
ATOM      8  C   UNL     1      -3.173  10.641  -0.179  0.00  0.00    +0.203 C 
ATOM      9  O   UNL     1      -4.468  10.059   0.040  0.00  0.00    -0.371 OA
ATOM     10  C   UNL     1      -4.710   8.893  -0.753  0.00  0.00    +0.126 C 
ATOM     11  C   UNL     1      -3.851   7.728  -0.252  0.00  0.00    +0.068 C 
ATOM     12  C   UNL     1      -1.247   5.888  -0.060  0.00  0.00    +0.268 A 
ATOM     13  O   UNL     1      -2.289   5.261  -0.145  0.00  0.00    -0.267 OA
ATOM     14  N   UNL     1      -0.069   5.243   0.028  0.00  0.00    -0.255 N 
ENDROOT
BRANCH  14  15
ATOM     15  C   UNL     1      -0.050   3.842   0.022  0.00  0.00    +0.052 A 
ATOM     16  C   UNL     1       0.056   3.153  -1.179  0.00  0.00    +0.026 A 
ATOM     17  C   UNL     1       0.074   1.772  -1.182  0.00  0.00    +0.002 A 
ATOM     18  C   UNL     1      -0.014   1.076   0.009  0.00  0.00    +0.000 A 
ATOM     19  C   UNL     1      -0.125   1.759   1.206  0.00  0.00    +0.002 A 
ATOM     20  C   UNL     1      -0.138   3.140   1.216  0.00  0.00    +0.026 A 
ENDBRANCH  14  15
BRANCH  10  21
ATOM     21  C   UNL     1      -6.188   8.512  -0.656  0.00  0.00    +0.012 C 
ATOM     22  C   UNL     1      -7.048   9.668  -1.172  0.00  0.00    +0.010 C 
ATOM     23  C   UNL     1      -6.450   7.265  -1.503  0.00  0.00    +0.010 C 
ENDBRANCH  10  21
BRANCH   1  24
ATOM     24  S   UNL     1       2.626   5.041   0.250  0.00  0.00    -0.088 S 
BRANCH  24  26
ATOM     25  C   UNL     1       5.217   5.878   0.468  0.00  0.00    +0.016 C 
ATOM     26  C   UNL     1       3.791   6.422   0.353  0.00  0.00    +0.074 C 
ENDBRANCH  24  26
ENDBRANCH   1  24
TORSDOF 4
