REMARK  Name = ZINC35027376
REMARK  8 active torsions:
REMARK  status: ('A' for Active; 'I' for Inactive)
REMARK    1  A    between atoms: C_1  and  C_2
REMARK    2  A    between atoms: C_2  and  C_3
REMARK    3  A    between atoms: C_3  and  C_5
REMARK    4  A    between atoms: C_3  and  N_19
REMARK    5  A    between atoms: N_15  and  C_16
REMARK    6  A    between atoms: C_16  and  C_17
REMARK    7  A    between atoms: N_19  and  C_20
REMARK    8  A    between atoms: N_23  and  C_24
REMARK                            x       y       z     vdW  Elec       q    Type
REMARK                         _______ _______ _______ _____ _____    ______ ____
ROOT
ATOM      1  C   UNL     1      -1.097  -0.876   0.032  0.00  0.00    +0.143 C 
ENDROOT
BRANCH   1   2
ATOM      2  C   UNL     1      -1.603  -2.294   0.101  0.00  0.00    +0.134 A 
ATOM      3  N   UNL     1      -1.645  -2.988  -0.995  0.00  0.00    -0.232 NA
ATOM      4  C   UNL     1      -2.089  -4.269  -1.009  0.00  0.00    +0.080 A 
ATOM      5  C   UNL     1      -2.135  -5.017  -2.187  0.00  0.00    +0.048 A 
ATOM      6  C   UNL     1      -2.593  -6.317  -2.149  0.00  0.00    +0.043 A 
ATOM      7  C   UNL     1      -3.011  -6.889  -0.953  0.00  0.00    +0.021 A 
ATOM      8  C   UNL     1      -2.975  -6.176   0.212  0.00  0.00    +0.017 A 
ATOM      9  C   UNL     1      -2.515  -4.861   0.202  0.00  0.00    +0.065 A 
ATOM     10  C   UNL     1      -2.454  -4.047   1.425  0.00  0.00    +0.262 A 
ATOM     11  O   UNL     1      -2.806  -4.496   2.500  0.00  0.00    -0.267 OA
ATOM     12  N   UNL     1      -1.987  -2.782   1.310  0.00  0.00    -0.295 N 
ATOM     13 CL   UNL     1      -2.651  -7.249  -3.613  0.00  0.00    -0.083 Cl
BRANCH  12  14
ATOM     14  C   UNL     1      -1.901  -1.930   2.498  0.00  0.00    +0.123 C 
ATOM     15  C   UNL     1      -3.204  -1.143   2.657  0.00  0.00    +0.027 C 
ENDBRANCH  12  14
ENDBRANCH   1   2
BRANCH   1  16
ATOM     16  N   UNL     1      -1.520  -0.268  -1.232  0.00  0.00    -0.278 N 
ATOM     17  C   UNL     1      -1.006  -0.784  -2.502  0.00  0.00    +0.134 C 
ATOM     18  C   UNL     1      -2.383   0.767  -1.225  0.00  0.00    +0.307 C 
ATOM     19  O   UNL     1      -2.810   1.196  -0.170  0.00  0.00    -0.252 OA
ATOM     20  N   UNL     1      -2.773   1.327  -2.387  0.00  0.00    -0.269 N 
ATOM     21  H   UNL     1      -2.493   0.940  -3.231  0.00  0.00    +0.156 HD
BRANCH  20  22
ATOM     22  C   UNL     1      -3.584   2.469  -2.377  0.00  0.00    +0.035 A 
ATOM     23  C   UNL     1      -4.531   2.658  -3.375  0.00  0.00    +0.024 A 
ATOM     24  C   UNL     1      -5.329   3.785  -3.362  0.00  0.00    +0.017 A 
ATOM     25  C   UNL     1      -5.186   4.725  -2.357  0.00  0.00    +0.018 A 
ATOM     26  C   UNL     1      -4.243   4.539  -1.362  0.00  0.00    +0.017 A 
ATOM     27  C   UNL     1      -3.446   3.411  -1.366  0.00  0.00    +0.024 A 
ATOM     28 BR   UNL     1      -6.280   6.267  -2.344  0.00  0.00    -0.050 Br
ENDBRANCH  20  22
ENDBRANCH   1  16
BRANCH   1  30
ATOM     29  C   UNL     1       0.940   0.566   0.162  0.00  0.00    +0.006 C 
ATOM     30  C   UNL     1       0.431  -0.876   0.110  0.00  0.00    +0.027 C 
ENDBRANCH   1  30
TORSDOF 5
