REMARK  Name = ZINC39960814
REMARK  11 active torsions:
REMARK  status: ('A' for Active; 'I' for Inactive)
REMARK    1  A    between atoms: C_1  and  C_2
REMARK    2  A    between atoms: C_3  and  O_24
REMARK    3  A    between atoms: C_6  and  C_9
REMARK    4  A    between atoms: C_7  and  O_8
REMARK    5  A    between atoms: C_11  and  C_16
REMARK    6  A    between atoms: C_12  and  C_15
REMARK    7  A    between atoms: C_19  and  O_22
REMARK    8  A    between atoms: O_22  and  C_23
REMARK    9  A    between atoms: O_24  and  C_25
REMARK   10  A    between atoms: C_25  and  C_26
REMARK   11  A    between atoms: N_29  and  C_31
REMARK                            x       y       z     vdW  Elec       q    Type
REMARK                         _______ _______ _______ _____ _____    ______ ____
ROOT
ATOM      1  C   UNL     1      -0.018   1.503   0.010  0.00  0.00    +0.051 C 
ATOM      2  C   UNL     1       0.002  -0.004   0.002  0.00  0.00    +0.033 A 
ATOM      3  C   UNL     1       0.006  -0.692  -1.202  0.00  0.00    +0.127 A 
ATOM      4  C   UNL     1       0.025  -2.079  -1.207  0.00  0.00    +0.046 A 
ATOM      5  C   UNL     1       0.039  -2.776  -0.013  0.00  0.00    +0.013 A 
ATOM      6  C   UNL     1       0.035  -2.092   1.188  0.00  0.00    +0.023 A 
ATOM      7  C   UNL     1       0.023  -0.705   1.198  0.00  0.00    +0.129 A 
ENDROOT
BRANCH   6   8
ATOM      8  C   UNL     1       0.050  -2.855   2.487  0.00  0.00    +0.164 C 
ATOM      9  C   UNL     1       1.462  -2.949   3.040  0.00  0.00    +0.011 C 
ATOM     10  C   UNL     1       1.707  -4.281   3.064  0.00  0.00    +0.064 C 
ATOM     11  N   UNL     1       0.648  -4.962   2.609  0.00  0.00    -0.182 NA
ATOM     12  N   UNL     1      -0.315  -4.265   2.269  0.00  0.00    -0.297 N 
ATOM     13  C   UNL     1       2.993  -4.909   3.537  0.00  0.00    +0.068 C 
ATOM     14  H   UNL     1      -1.161  -4.588   1.920  0.00  0.00    +0.183 HD
BRANCH   9  15
ATOM     15  C   UNL     1       2.352  -1.853   3.451  0.00  0.00    -0.018 A 
ATOM     16  C   UNL     1       2.017  -1.048   4.545  0.00  0.00    +0.012 A 
ATOM     17  C   UNL     1       2.854  -0.024   4.926  0.00  0.00    +0.046 A 
ATOM     18  C   UNL     1       4.031   0.212   4.225  0.00  0.00    +0.120 A 
ATOM     19  C   UNL     1       4.369  -0.585   3.137  0.00  0.00    +0.046 A 
ATOM     20  C   UNL     1       3.541  -1.615   2.752  0.00  0.00    +0.012 A 
BRANCH  18  21
ATOM     21  O   UNL     1       4.853   1.224   4.604  0.00  0.00    -0.495 OA
ATOM     22  C   UNL     1       6.047   1.411   3.841  0.00  0.00    +0.277 C 
ENDBRANCH  18  21
ENDBRANCH   9  15
ENDBRANCH   6   8
BRANCH   7  23
ATOM     23  O   UNL     1       0.025  -0.033   2.379  0.00  0.00    -0.506 OA
ATOM     24  H   UNL     1      -0.857   0.149   2.730  0.00  0.00    +0.292 HD
ENDBRANCH   7  23
BRANCH   3  25
ATOM     25  O   UNL     1      -0.009  -0.008  -2.376  0.00  0.00    -0.487 OA
BRANCH  25  26
ATOM     26  C   UNL     1      -0.005  -0.781  -3.578  0.00  0.00    +0.267 C 
BRANCH  26  27
ATOM     27  C   UNL     1      -0.023   0.141  -4.769  0.00  0.00    +0.027 A 
ATOM     28  C   UNL     1      -1.165   0.635  -5.410  0.00  0.00    +0.141 A 
ATOM     29  N   UNL     1      -0.780   1.401  -6.399  0.00  0.00    -0.174 NA
ATOM     30  N   UNL     1       0.620   1.421  -6.419  0.00  0.00    -0.239 N 
ATOM     31  C   UNL     1       1.061   0.644  -5.404  0.00  0.00    +0.121 A 
BRANCH  30  32
ATOM     32  C   UNL     1       1.423   2.126  -7.327  0.00  0.00    +0.065 A 
ATOM     33  C   UNL     1       2.806   2.052  -7.235  0.00  0.00    +0.028 A 
ATOM     34  C   UNL     1       3.594   2.748  -8.132  0.00  0.00    +0.002 A 
ATOM     35  C   UNL     1       3.006   3.517  -9.119  0.00  0.00    +0.000 A 
ATOM     36  C   UNL     1       1.629   3.592  -9.213  0.00  0.00    +0.002 A 
ATOM     37  C   UNL     1       0.836   2.895  -8.322  0.00  0.00    +0.028 A 
ENDBRANCH  30  32
ENDBRANCH  26  27
ENDBRANCH  25  26
ENDBRANCH   3  25
TORSDOF 8
