REMARK  Name = ZINC22202167
REMARK  5 active torsions:
REMARK  status: ('A' for Active; 'I' for Inactive)
REMARK    1  A    between atoms: C_1  and  C_2
REMARK    2  A    between atoms: C_5  and  N_8
REMARK    3  A    between atoms: C_9  and  C_23
REMARK    4  A    between atoms: C_12  and  S_13
REMARK    5  A    between atoms: S_13  and  C_14
REMARK                            x       y       z     vdW  Elec       q    Type
REMARK                         _______ _______ _______ _____ _____    ______ ____
ROOT
ATOM      1  N   UNL     1      -0.044  -3.448  -2.745  0.00  0.00    -0.270 N 
ATOM      2  C   UNL     1      -0.560  -2.873  -3.886  0.00  0.00    +0.169 A 
ATOM      3  N   UNL     1      -0.302  -1.587  -3.820  0.00  0.00    -0.128 NA
ATOM      4  N   UNL     1       0.324  -1.320  -2.730  0.00  0.00    -0.122 NA
ATOM      5  C   UNL     1       0.515  -2.420  -2.036  0.00  0.00    +0.197 A 
ENDROOT
BRANCH   1  10
ATOM      6  C   UNL     1      -0.203  -8.931  -1.290  0.00  0.00    +0.044 C 
ATOM      7  C   UNL     1      -0.161  -7.476  -1.677  0.00  0.00    -0.050 A 
ATOM      8  C   UNL     1      -0.891  -6.549  -0.955  0.00  0.00    +0.005 A 
ATOM      9  C   UNL     1      -0.854  -5.213  -1.307  0.00  0.00    +0.026 A 
ATOM     10  C   UNL     1      -0.084  -4.802  -2.386  0.00  0.00    +0.051 A 
ATOM     11  C   UNL     1       0.643  -5.736  -3.112  0.00  0.00    +0.026 A 
ATOM     12  C   UNL     1       0.607  -7.069  -2.753  0.00  0.00    +0.005 A 
ENDBRANCH   1  10
BRANCH   2  13
ATOM     13  C   UNL     1      -1.268  -3.572  -4.979  0.00  0.00    +0.020 A 
ATOM     14  C   UNL     1      -1.416  -2.958  -6.224  0.00  0.00    +0.013 A 
ATOM     15  C   UNL     1      -2.074  -3.617  -7.241  0.00  0.00    +0.021 A 
ATOM     16  C   UNL     1      -2.598  -4.881  -7.026  0.00  0.00    +0.041 A 
ATOM     17  C   UNL     1      -2.459  -5.493  -5.792  0.00  0.00    +0.021 A 
ATOM     18  C   UNL     1      -1.798  -4.846  -4.768  0.00  0.00    +0.013 A 
ATOM     19 CL   UNL     1      -3.431  -5.701  -8.309  0.00  0.00    -0.084 Cl
ENDBRANCH   2  13
BRANCH   5  20
ATOM     20  S   UNL     1       1.331  -2.546  -0.479  0.00  0.00    -0.073 S 
BRANCH  20  21
ATOM     21  C   UNL     1       1.772  -0.810  -0.215  0.00  0.00    +0.140 C 
ATOM     22  C   UNL     1       2.600  -0.680   1.066  0.00  0.00    +0.024 C 
ATOM     23  C   UNL     1       3.472   0.562   1.018  0.00  0.00    +0.003 C 
ATOM     24  C   UNL     1       2.689   1.862   1.040  0.00  0.00    +0.019 C 
ATOM     25  C   UNL     1       1.875   2.029  -0.244  0.00  0.00    +0.104 C 
ATOM     26  N   UNL     1       0.581   1.349  -0.073  0.00  0.00    -0.314 N 
ATOM     27  C   UNL     1       0.514   0.017  -0.060  0.00  0.00    +0.226 C 
ATOM     28  O   UNL     1      -0.558  -0.533   0.076  0.00  0.00    -0.275 OA
ATOM     29  H   UNL     1      -0.340   1.940   0.045  0.00  0.00    +0.149 HD
ENDBRANCH  20  21
ENDBRANCH   5  20
TORSDOF 4
