REMARK  Name = ZINC13572152
REMARK  7 active torsions:
REMARK  status: ('A' for Active; 'I' for Inactive)
REMARK    1  A    between atoms: C_1  and  C_2
REMARK    2  A    between atoms: C_2  and  C_3
REMARK    3  A    between atoms: C_3  and  C_4
REMARK    4  A    between atoms: C_4  and  N_5
REMARK    5  A    between atoms: C_10  and  C_28
REMARK    6  A    between atoms: C_28  and  C_29
REMARK    7  A    between atoms: C_32  and  O_35
REMARK                            x       y       z     vdW  Elec       q    Type
REMARK                         _______ _______ _______ _____ _____    ______ ____
ROOT
ATOM      1  N   UNL     1       1.425  -2.500  -2.470  0.00  0.00    -0.242 N 
ATOM      2  C   UNL     1       0.784  -2.738  -3.621  0.00  0.00    +0.227 C 
ATOM      3  O   UNL     1      -0.407  -2.601  -3.801  0.00  0.00    -0.275 OA
ATOM      4  C   UNL     1       1.777  -3.204  -4.661  0.00  0.00    +0.107 C 
ATOM      5  C   UNL     1       1.496  -4.681  -5.010  0.00  0.00    +0.072 C 
ATOM      6  N   UNL     1       2.259  -5.464  -4.002  0.00  0.00    -0.295 NA
ATOM      7  C   UNL     1       3.514  -4.708  -3.833  0.00  0.00    +0.136 C 
ATOM      8  C   UNL     1       3.127  -3.210  -3.892  0.00  0.00    +0.122 C 
ATOM      9  C   UNL     1       2.743  -2.723  -2.512  0.00  0.00    +0.228 C 
ATOM     10  O   UNL     1       3.510  -2.563  -1.587  0.00  0.00    -0.275 OA
ATOM     11  C   UNL     1       4.195  -5.054  -2.539  0.00  0.00    +0.006 A 
ATOM     12  C   UNL     1       3.816  -4.971  -1.218  0.00  0.00    +0.046 A 
ATOM     13  C   UNL     1       4.687  -5.379  -0.221  0.00  0.00    +0.124 A 
ATOM     14  C   UNL     1       5.938  -5.870  -0.557  0.00  0.00    +0.040 A 
ATOM     15  C   UNL     1       6.319  -5.954  -1.880  0.00  0.00    +0.026 A 
ATOM     16  C   UNL     1       5.449  -5.545  -2.888  0.00  0.00    +0.039 A 
ATOM     17  N   UNL     1       5.604  -5.531  -4.277  0.00  0.00    -0.283 N 
ATOM     18  C   UNL     1       4.512  -5.054  -4.905  0.00  0.00    +0.243 C 
ATOM     19  O   UNL     1       4.362  -4.927  -6.102  0.00  0.00    -0.273 OA
ATOM     20  F   UNL     1       4.318  -5.298   1.077  0.00  0.00    -0.205 F 
ATOM     21  H   UNL     1       1.753  -5.523  -3.131  0.00  0.00    +0.124 HD
ATOM     22  H   UNL     1       6.405  -5.830  -4.736  0.00  0.00    +0.155 HD
ENDROOT
BRANCH   1  23
ATOM     23  C   UNL     1       0.739  -2.027  -1.265  0.00  0.00    +0.116 C 
BRANCH  23  24
ATOM     24  C   UNL     1       0.718  -0.497  -1.257  0.00  0.00    +0.019 C 
BRANCH  24  26
ATOM     25  C   UNL     1      -0.019   1.526   0.010  0.00  0.00    +0.004 C 
ATOM     26  C   UNL     1       0.002  -0.004   0.002  0.00  0.00    -0.002 C 
ENDBRANCH  24  26
ENDBRANCH  23  24
ENDBRANCH   1  23
BRANCH   5  27
ATOM     27  C   UNL     1      -0.001  -4.979  -4.896  0.00  0.00    +0.054 C 
BRANCH  27  28
ATOM     28  C   UNL     1      -0.269  -6.388  -5.357  0.00  0.00    -0.046 A 
ATOM     29  C   UNL     1      -0.550  -6.637  -6.688  0.00  0.00    +0.007 A 
ATOM     30  C   UNL     1      -0.797  -7.928  -7.114  0.00  0.00    +0.045 A 
ATOM     31  C   UNL     1      -0.761  -8.976  -6.205  0.00  0.00    +0.117 A 
ATOM     32  C   UNL     1      -0.478  -8.723  -4.870  0.00  0.00    +0.045 A 
ATOM     33  C   UNL     1      -0.228  -7.431  -4.451  0.00  0.00    +0.007 A 
BRANCH  31  34
ATOM     34  O   UNL     1      -1.004 -10.246  -6.621  0.00  0.00    -0.507 OA
ATOM     35  H   UNL     1      -0.213 -10.726  -6.903  0.00  0.00    +0.292 HD
ENDBRANCH  31  34
ENDBRANCH  27  28
ENDBRANCH   5  27
TORSDOF 6
