REMARK  Name = ZINC28302754
REMARK  9 active torsions:
REMARK  status: ('A' for Active; 'I' for Inactive)
REMARK    1  A    between atoms: C_1  and  C_2
REMARK    2  A    between atoms: C_2  and  C_3
REMARK    3  A    between atoms: C_2  and  C_4
REMARK    4  A    between atoms: C_7  and  S_10
REMARK    5  A    between atoms: N_8  and  N_9
REMARK    6  A    between atoms: S_10  and  C_11
REMARK    7  A    between atoms: C_11  and  C_12
REMARK    8  A    between atoms: C_12  and  O_13
REMARK    9  A    between atoms: O_13  and  C_14
REMARK                            x       y       z     vdW  Elec       q    Type
REMARK                         _______ _______ _______ _____ _____    ______ ____
ROOT
ATOM      1  C   UNL     1      -0.571  -2.680  -0.006  0.00  0.00    +0.118 C 
ENDROOT
BRANCH   1   2
ATOM      2  S   UNL     1      -1.400  -1.071   0.011  0.00  0.00    -0.081 S 
BRANCH   2   6
ATOM      3  C   UNL     1       1.295   1.749  -0.001  0.00  0.00    +0.154 A 
ATOM      4  N   UNL     1       2.020   0.667  -0.014  0.00  0.00    -0.132 NA
ATOM      5  N   UNL     1       1.262  -0.371  -0.012  0.00  0.00    -0.121 NA
ATOM      6  C   UNL     1       0.002  -0.004   0.002  0.00  0.00    +0.209 A 
ATOM      7  N   UNL     1      -0.016   1.361   0.009  0.00  0.00    -0.228 N 
BRANCH   3   9
ATOM      8  C   UNL     1       2.670   3.396   1.243  0.00  0.00    +0.015 C 
ATOM      9  C   UNL     1       1.806   3.167   0.001  0.00  0.00    +0.052 C 
ATOM     10  C   UNL     1       2.646   3.408  -1.255  0.00  0.00    +0.015 C 
ENDBRANCH   3   9
BRANCH   7  11
ATOM     11  N   UNL     1      -1.116   2.171   0.019  0.00  0.00    -0.295 N 
ATOM     12  H   UNL     1      -2.124   1.730   0.027  0.00  0.00    +0.163 HD
ATOM     13  H   UNL     1      -0.995   3.264   0.019  0.00  0.00    +0.163 HD
ENDBRANCH   7  11
ENDBRANCH   2   6
ENDBRANCH   1   2
BRANCH   1  14
ATOM     14  C   UNL     1      -1.620  -3.794  -0.002  0.00  0.00    +0.240 C 
BRANCH  14  15
ATOM     15  O   UNL     1      -0.965  -5.064  -0.015  0.00  0.00    -0.488 OA
BRANCH  15  16
ATOM     16  C   UNL     1      -1.759  -6.168  -0.013  0.00  0.00    +0.160 A 
ATOM     17  C   UNL     1      -2.148  -6.742   1.189  0.00  0.00    +0.104 A 
ATOM     18  C   UNL     1      -2.962  -7.861   1.190  0.00  0.00    +0.083 A 
ATOM     19  C   UNL     1      -3.378  -8.416  -0.009  0.00  0.00    +0.081 A 
ATOM     20  C   UNL     1      -2.986  -7.848  -1.209  0.00  0.00    +0.083 A 
ATOM     21  C   UNL     1      -2.177  -6.725  -1.213  0.00  0.00    +0.104 A 
ATOM     22 CL   UNL     1      -1.686  -6.014  -2.719  0.00  0.00    -0.078 Cl
ATOM     23 CL   UNL     1      -3.509  -8.546  -2.710  0.00  0.00    -0.080 Cl
ATOM     24 CL   UNL     1      -4.393  -9.824  -0.006  0.00  0.00    -0.080 Cl
ATOM     25 CL   UNL     1      -3.455  -8.574   2.693  0.00  0.00    -0.080 Cl
ATOM     26 CL   UNL     1      -1.621  -6.050   2.692  0.00  0.00    -0.078 Cl
ENDBRANCH  15  16
ENDBRANCH  14  15
ENDBRANCH   1  14
TORSDOF 7
