REMARK  Name = ZINC23270838
REMARK  9 active torsions:
REMARK  status: ('A' for Active; 'I' for Inactive)
REMARK    1  A    between atoms: C_1  and  C_2
REMARK    2  A    between atoms: C_5  and  N_8
REMARK    3  A    between atoms: N_8  and  C_9
REMARK    4  A    between atoms: C_9  and  C_10
REMARK    5  A    between atoms: C_15  and  C_17
REMARK    6  A    between atoms: C_17  and  N_18
REMARK    7  A    between atoms: C_23  and  C_30
REMARK    8  A    between atoms: C_26  and  C_28
REMARK    9  A    between atoms: C_26  and  C_29
REMARK                            x       y       z     vdW  Elec       q    Type
REMARK                         _______ _______ _______ _____ _____    ______ ____
ROOT
ATOM      1  C   UNL     1       0.311  -6.350   1.120  0.00  0.00    +0.214 C 
ENDROOT
BRANCH   1   2
ATOM      2  N   UNL     1       0.427  -6.845   2.494  0.00  0.00    -0.215 N 
ATOM      3  C   UNL     1       1.596  -6.977   3.157  0.00  0.00    +0.247 C 
ATOM      4  O   UNL     1       2.682  -6.595   2.776  0.00  0.00    -0.273 OA
ATOM      5  C   UNL     1       1.253  -7.664   4.457  0.00  0.00    +0.113 C 
ATOM      6  C   UNL     1       1.768  -6.863   5.644  0.00  0.00    +0.038 C 
ATOM      7  C   UNL     1       3.287  -7.005   5.752  0.00  0.00    -0.011 C 
ATOM      8  C   UNL     1       3.624  -8.475   5.995  0.00  0.00    +0.009 C 
ATOM      9  C   UNL     1       3.163  -9.339   4.827  0.00  0.00    -0.032 C 
ATOM     10  C   UNL     1       1.703  -9.110   4.474  0.00  0.00    +0.041 C 
ATOM     11  C   UNL     1       3.328 -10.817   5.242  0.00  0.00    +0.011 C 
ATOM     12  C   UNL     1       4.059  -9.101   3.609  0.00  0.00    +0.011 C 
ATOM     13  C   UNL     1       3.791  -6.167   6.931  0.00  0.00    +0.007 C 
ATOM     14  N   UNL     1      -0.228  -7.633   4.471  0.00  0.00    -0.285 N 
ATOM     15  C   UNL     1      -0.611  -7.198   3.259  0.00  0.00    +0.310 C 
ATOM     16  O   UNL     1      -1.770  -7.134   2.897  0.00  0.00    -0.252 OA
ATOM     17  H   UNL     1      -0.775  -7.937   5.376  0.00  0.00    +0.151 HD
ENDBRANCH   1   2
BRANCH   1  19
ATOM     18  N   UNL     1       0.057  -4.170  -0.021  0.00  0.00    -0.263 N 
ATOM     19  C   UNL     1       0.178  -4.848   1.137  0.00  0.00    +0.238 C 
ATOM     20  O   UNL     1       0.181  -4.251   2.193  0.00  0.00    -0.273 OA
BRANCH  18  25
ATOM     21  C   UNL     1      -0.032   1.503   0.010  0.00  0.00    +0.044 C 
ATOM     22  C   UNL     1      -0.008  -0.004   0.002  0.00  0.00    -0.050 A 
ATOM     23  C   UNL     1       1.148  -0.678   0.350  0.00  0.00    +0.005 A 
ATOM     24  C   UNL     1       1.171  -2.059   0.349  0.00  0.00    +0.024 A 
ATOM     25  C   UNL     1       0.035  -2.771  -0.013  0.00  0.00    +0.037 A 
ATOM     26  C   UNL     1      -1.123  -2.091  -0.367  0.00  0.00    +0.024 A 
ATOM     27  C   UNL     1      -1.141  -0.710  -0.359  0.00  0.00    +0.005 A 
ENDBRANCH  18  25
BRANCH  18  28
ATOM     28  C   UNL     1      -0.052  -4.897  -1.288  0.00  0.00    +0.188 C 
BRANCH  28  29
ATOM     29  C   UNL     1       1.324  -5.123  -1.857  0.00  0.00    +0.122 A 
ATOM     30  C   UNL     1       2.112  -6.186  -1.613  0.00  0.00    +0.046 A 
ATOM     31  C   UNL     1       3.304  -5.990  -2.348  0.00  0.00    +0.041 A 
ATOM     32  C   UNL     1       3.176  -4.816  -2.992  0.00  0.00    +0.195 A 
ATOM     33  O   UNL     1       1.976  -4.295  -2.691  0.00  0.00    -0.466 OA
ENDBRANCH  28  29
ENDBRANCH  18  28
ENDBRANCH   1  19
TORSDOF 5
