REMARK  Name = ZINC08845182
REMARK  6 active torsions:
REMARK  status: ('A' for Active; 'I' for Inactive)
REMARK    1  A    between atoms: C_7  and  N_19
REMARK    2  A    between atoms: C_8  and  C_10
REMARK    3  A    between atoms: C_10  and  C_12
REMARK    4  A    between atoms: C_20  and  C_22
REMARK    5  A    between atoms: C_24  and  C_28
REMARK    6  A    between atoms: C_33  and  O_34
REMARK                            x       y       z     vdW  Elec       q    Type
REMARK                         _______ _______ _______ _____ _____    ______ ____
ROOT
ATOM      1  N   UNL     1       0.735  -3.170   0.008  0.00  0.00    -0.277 N 
ATOM      2  C   UNL     1      -0.532  -2.980   0.425  0.00  0.00    +0.268 C 
ATOM      3  O   UNL     1      -0.879  -1.893   0.844  0.00  0.00    -0.268 OA
ATOM      4  H   UNL     1       1.031  -4.054  -0.260  0.00  0.00    +0.155 HD
ENDROOT
BRANCH   1  11
ATOM      5  C   UNL     1       0.124   1.359  -0.672  0.00  0.00    +0.001 A 
ATOM      6  C   UNL     1       1.328   2.049  -0.629  0.00  0.00    +0.004 A 
ATOM      7  C   UNL     1       2.514   1.383  -0.406  0.00  0.00    +0.047 A 
ATOM      8  C   UNL     1       2.510   0.005  -0.220  0.00  0.00    +0.138 A 
ATOM      9  C   UNL     1       1.287  -0.688  -0.264  0.00  0.00    +0.042 A 
ATOM     10  C   UNL     1       0.097   0.004  -0.492  0.00  0.00    +0.013 A 
ATOM     11  C   UNL     1       1.618  -2.100  -0.037  0.00  0.00    +0.091 A 
ATOM     12  C   UNL     1       2.989  -2.142   0.123  0.00  0.00    +0.197 A 
ATOM     13  O   UNL     1       3.490  -0.892   0.011  0.00  0.00    -0.450 OA
BRANCH  12  14
ATOM     14  C   UNL     1       3.750  -3.312   0.366  0.00  0.00    +0.230 C 
ATOM     15  O   UNL     1       3.214  -4.405   0.337  0.00  0.00    -0.283 OA
BRANCH  14  16
ATOM     16  C   UNL     1       5.196  -3.206   0.656  0.00  0.00    +0.026 A 
ATOM     17  C   UNL     1       5.785  -1.952   0.836  0.00  0.00    +0.014 A 
ATOM     18  C   UNL     1       7.133  -1.859   1.106  0.00  0.00    +0.039 A 
ATOM     19  C   UNL     1       7.905  -3.007   1.199  0.00  0.00    +0.123 A 
ATOM     20  C   UNL     1       7.326  -4.254   1.021  0.00  0.00    +0.039 A 
ATOM     21  C   UNL     1       5.977  -4.359   0.756  0.00  0.00    +0.014 A 
ATOM     22  F   UNL     1       9.226  -2.910   1.463  0.00  0.00    -0.205 F 
ENDBRANCH  14  16
ENDBRANCH  12  14
ENDBRANCH   1  11
BRANCH   2  23
ATOM     23  C   UNL     1      -1.501  -4.094   0.372  0.00  0.00    +0.148 A 
ATOM     24  C   UNL     1      -2.856  -4.043   0.766  0.00  0.00    +0.062 A 
ATOM     25  C   UNL     1      -3.349  -5.298   0.538  0.00  0.00    +0.070 A 
ATOM     26  N   UNL     1      -2.321  -6.040   0.034  0.00  0.00    -0.276 N 
ATOM     27  H   UNL     1      -2.381  -6.973  -0.222  0.00  0.00    +0.189 HD
ATOM     28  N   UNL     1      -1.262  -5.317  -0.057  0.00  0.00    -0.169 NA
BRANCH  25  29
ATOM     29  C   UNL     1      -4.731  -5.763   0.789  0.00  0.00    +0.043 A 
ATOM     30  C   UNL     1      -5.412  -5.347   1.933  0.00  0.00    +0.033 A 
ATOM     31  C   UNL     1      -6.702  -5.783   2.162  0.00  0.00    +0.042 A 
ATOM     32  C   UNL     1      -7.321  -6.633   1.260  0.00  0.00    +0.023 A 
ATOM     33  C   UNL     1      -6.654  -7.051   0.124  0.00  0.00    +0.047 A 
ATOM     34  C   UNL     1      -5.362  -6.617  -0.122  0.00  0.00    +0.126 A 
ATOM     35 CL   UNL     1      -7.550  -5.266   3.586  0.00  0.00    -0.084 Cl
BRANCH  34  36
ATOM     36  O   UNL     1      -4.708  -7.023  -1.241  0.00  0.00    -0.506 OA
ATOM     37  H   UNL     1      -4.204  -7.840  -1.127  0.00  0.00    +0.292 HD
ENDBRANCH  34  36
ENDBRANCH  25  29
ENDBRANCH   2  23
TORSDOF 6
