REMARK  Name = ZINC44906049
REMARK  10 active torsions:
REMARK  status: ('A' for Active; 'I' for Inactive)
REMARK    1  A    between atoms: C_1  and  C_2
REMARK    2  A    between atoms: C_2  and  C_4
REMARK    3  A    between atoms: C_2  and  N_14
REMARK    4  A    between atoms: C_7  and  C_10
REMARK    5  A    between atoms: C_10  and  C_11
REMARK    6  A    between atoms: C_10  and  C_12
REMARK    7  A    between atoms: C_10  and  C_13
REMARK    8  A    between atoms: C_15  and  C_17
REMARK    9  A    between atoms: N_22  and  C_24
REMARK   10  A    between atoms: C_24  and  C_25
REMARK                            x       y       z     vdW  Elec       q    Type
REMARK                         _______ _______ _______ _____ _____    ______ ____
ROOT
ATOM      1  N   UNL     1       0.711  -0.489   1.189  0.00  0.00    -0.309 N 
ATOM      2  C   UNL     1       0.051  -0.633   2.355  0.00  0.00    +0.215 C 
ATOM      3  O   UNL     1      -1.129  -0.361   2.423  0.00  0.00    -0.276 OA
ATOM      4  H   UNL     1       1.654  -0.707   1.135  0.00  0.00    +0.149 HD
ENDROOT
BRANCH   2   5
ATOM      5  C   UNL     1       0.780  -1.133   3.576  0.00  0.00    +0.058 C 
ATOM      6  C   UNL     1       1.924  -0.173   3.917  0.00  0.00    +0.009 C 
ATOM      7  C   UNL     1       2.608  -0.646   5.202  0.00  0.00    -0.018 C 
ATOM      8  C   UNL     1       1.571  -0.733   6.324  0.00  0.00    -0.078 C 
ATOM      9  N   UNL     1       0.518  -1.685   5.949  0.00  0.00    +0.383 N 
ATOM     10  C   UNL     1      -0.190  -1.202   4.758  0.00  0.00    -0.066 C 
ATOM     11  H   UNL     1       0.933  -2.583   5.751  0.00  0.00    -0.081 HD
BRANCH   9  12
ATOM     12  C   UNL     1      -0.433  -1.823   7.060  0.00  0.00    -0.043 C 
BRANCH  12  13
ATOM     13  C   UNL     1       0.264  -2.443   8.244  0.00  0.00    -0.064 A 
ATOM     14  C   UNL     1       0.286  -3.817   8.390  0.00  0.00    +0.003 A 
ATOM     15  C   UNL     1       0.925  -4.387   9.475  0.00  0.00    +0.015 A 
ATOM     16  C   UNL     1       1.542  -3.581  10.415  0.00  0.00    +0.018 A 
ATOM     17  C   UNL     1       1.519  -2.206  10.269  0.00  0.00    +0.015 A 
ATOM     18  C   UNL     1       0.884  -1.637   9.180  0.00  0.00    +0.003 A 
ATOM     19 BR   UNL     1       2.416  -4.359  11.901  0.00  0.00    -0.050 Br
ENDBRANCH  12  13
ENDBRANCH   9  12
ENDBRANCH   2   5
BRANCH   1  21
ATOM     20  C   UNL     1      -0.019   1.526   0.010  0.00  0.00    +0.033 C 
ATOM     21  C   UNL     1       0.002  -0.004   0.002  0.00  0.00    +0.100 C 
BRANCH  21  22
ATOM     22  C   UNL     1       0.707  -0.490  -1.238  0.00  0.00    -0.027 A 
ATOM     23  C   UNL     1       2.089  -0.511  -1.284  0.00  0.00    +0.006 A 
ATOM     24  C   UNL     1       2.736  -0.957  -2.421  0.00  0.00    +0.004 A 
ATOM     25  C   UNL     1       2.002  -1.382  -3.512  0.00  0.00    -0.042 A 
ATOM     26  C   UNL     1       0.620  -1.362  -3.466  0.00  0.00    +0.004 A 
ATOM     27  C   UNL     1      -0.027  -0.920  -2.327  0.00  0.00    +0.006 A 
BRANCH  25  28
ATOM     28  C   UNL     1       2.707  -1.867  -4.753  0.00  0.00    -0.013 C 
ATOM     29  C   UNL     1       3.582  -3.073  -4.403  0.00  0.00    +0.015 C 
ATOM     30  C   UNL     1       1.671  -2.276  -5.802  0.00  0.00    +0.015 C 
ATOM     31  C   UNL     1       3.584  -0.745  -5.312  0.00  0.00    +0.015 C 
ENDBRANCH  25  28
ENDBRANCH  21  22
ENDBRANCH   1  21
TORSDOF 6
