REMARK  Name = ZINC27228296
REMARK  6 active torsions:
REMARK  status: ('A' for Active; 'I' for Inactive)
REMARK    1  A    between atoms: C_1  and  N_2
REMARK    2  A    between atoms: N_2  and  C_3
REMARK    3  A    between atoms: N_2  and  C_13
REMARK    4  A    between atoms: C_3  and  C_4
REMARK    5  A    between atoms: C_13  and  C_14
REMARK    6  A    between atoms: C_19  and  C_22
REMARK                            x       y       z     vdW  Elec       q    Type
REMARK                         _______ _______ _______ _____ _____    ______ ____
ROOT
ATOM      1  C   UNL     1       8.220  -2.071   0.754  0.00  0.00    +0.199 C 
ATOM      2  O   UNL     1       7.790  -2.233  -0.368  0.00  0.00    -0.278 OA
ATOM      3  N   UNL     1       9.468  -2.474   1.063  0.00  0.00    -0.299 N 
ATOM      4  C   UNL     1      10.335  -3.115   0.059  0.00  0.00    +0.112 C 
ATOM      5  C   UNL     1      11.562  -2.223  -0.143  0.00  0.00    +0.054 C 
ATOM      6  C   UNL     1      12.110  -1.778   1.180  0.00  0.00    -0.039 C 
ATOM      7  C   UNL     1      11.435  -1.798   2.306  0.00  0.00    -0.004 C 
ATOM      8  C   UNL     1      10.021  -2.287   2.412  0.00  0.00    +0.135 C 
ENDROOT
BRANCH   6   9
ATOM      9  C   UNL     1      13.500  -1.284   1.220  0.00  0.00    +0.003 A 
ATOM     10  C   UNL     1      14.630  -2.035   1.157  0.00  0.00    +0.091 A 
ATOM     11  N   UNL     1      15.726  -1.225   1.220  0.00  0.00    -0.360 N 
ATOM     12  H   UNL     1      16.735  -1.661   1.176  0.00  0.00    +0.165 HD
ATOM     13  C   UNL     1      15.338   0.092   1.336  0.00  0.00    +0.047 A 
ATOM     14  C   UNL     1      13.933   0.118   1.341  0.00  0.00    +0.007 A 
ATOM     15  C   UNL     1      13.258   1.333   1.449  0.00  0.00    +0.010 A 
ATOM     16  C   UNL     1      13.974   2.505   1.548  0.00  0.00    +0.001 A 
ATOM     17  C   UNL     1      15.362   2.480   1.544  0.00  0.00    +0.002 A 
ATOM     18  C   UNL     1      16.043   1.287   1.438  0.00  0.00    +0.026 A 
ENDBRANCH   6   9
BRANCH   1  19
ATOM     19  C   UNL     1       7.358  -1.418   1.805  0.00  0.00    +0.019 C 
BRANCH  19  21
ATOM     20  C   UNL     1       6.194  -0.036   0.193  0.00  0.00    -0.095 C 
ATOM     21  N   UNL     1       6.054  -1.074   1.223  0.00  0.00    +0.386 N 
ATOM     22  H   UNL     1       5.649  -1.976   0.742  0.00  0.00    -0.081 HD
BRANCH  21  23
ATOM     23  C   UNL     1       5.107  -0.655   2.265  0.00  0.00    -0.043 C 
BRANCH  23  24
ATOM     24  C   UNL     1       3.725  -0.548   1.674  0.00  0.00    -0.060 A 
ATOM     25  C   UNL     1       2.885  -1.646   1.677  0.00  0.00    +0.005 A 
ATOM     26  C   UNL     1       1.617  -1.553   1.135  0.00  0.00    +0.050 A 
ATOM     27  C   UNL     1       1.183  -0.356   0.589  0.00  0.00    +0.166 A 
ATOM     28  C   UNL     1       2.028   0.751   0.586  0.00  0.00    +0.166 A 
ATOM     29  C   UNL     1       3.298   0.650   1.131  0.00  0.00    +0.051 A 
ATOM     30  O   UNL     1       1.376   1.797  -0.001  0.00  0.00    -0.453 OA
ATOM     31  C   UNL     1      -0.018   1.436   0.010  0.00  0.00    +0.466 C 
ATOM     32  O   UNL     1       0.002  -0.004   0.002  0.00  0.00    -0.453 OA
ENDBRANCH  23  24
ENDBRANCH  21  23
ENDBRANCH  19  21
ENDBRANCH   1  19
TORSDOF 5
