REMARK  Name = ZINC46079323
REMARK  10 active torsions:
REMARK  status: ('A' for Active; 'I' for Inactive)
REMARK    1  A    between atoms: C_1  and  C_2
REMARK    2  A    between atoms: C_2  and  C_3
REMARK    3  A    between atoms: N_5  and  C_6
REMARK    4  A    between atoms: C_8  and  C_26
REMARK    5  A    between atoms: N_10  and  C_13
REMARK    6  A    between atoms: C_13  and  C_14
REMARK    7  A    between atoms: N_16  and  C_17
REMARK    8  A    between atoms: C_21  and  C_24
REMARK    9  A    between atoms: C_22  and  C_23
REMARK   10  A    between atoms: C_29  and  C_32
REMARK                            x       y       z     vdW  Elec       q    Type
REMARK                         _______ _______ _______ _____ _____    ______ ____
ROOT
ATOM      1  C   UNL     1       1.437  -2.410   2.462  0.00  0.00    +0.102 A 
ATOM      2  C   UNL     1       1.900  -1.571   3.433  0.00  0.00    +0.059 A 
ATOM      3  C   UNL     1       2.518  -2.106   4.582  0.00  0.00    +0.093 A 
ATOM      4  N   UNL     1       2.651  -3.406   4.723  0.00  0.00    -0.168 NA
ATOM      5  N   UNL     1       2.183  -4.286   3.741  0.00  0.00    -0.218 N 
ATOM      6  C   UNL     1       1.582  -3.810   2.632  0.00  0.00    +0.289 A 
ATOM      7  O   UNL     1       1.170  -4.579   1.778  0.00  0.00    -0.264 OA
ENDROOT
BRANCH   3   8
ATOM      8  C   UNL     1       3.023  -1.195   5.638  0.00  0.00    +0.002 A 
ATOM      9  C   UNL     1       2.882   0.184   5.499  0.00  0.00    +0.010 A 
ATOM     10  C   UNL     1       3.353   1.027   6.485  0.00  0.00    +0.004 A 
ATOM     11  C   UNL     1       3.966   0.505   7.610  0.00  0.00    -0.050 A 
ATOM     12  C   UNL     1       4.108  -0.864   7.754  0.00  0.00    +0.004 A 
ATOM     13  C   UNL     1       3.636  -1.716   6.777  0.00  0.00    +0.010 A 
ATOM     14  C   UNL     1       4.479   1.430   8.683  0.00  0.00    +0.044 C 
ENDBRANCH   3   8
BRANCH   1  17
ATOM     15  C   UNL     1       1.319  -2.185   0.099  0.00  0.00    +0.217 C 
ATOM     16  O   UNL     1       2.349  -2.817  -0.002  0.00  0.00    -0.275 OA
ATOM     17  N   UNL     1       0.821  -1.897   1.318  0.00  0.00    -0.281 N 
ATOM     18  H   UNL     1       0.036  -1.333   1.401  0.00  0.00    +0.155 HD
BRANCH  15  20
ATOM     19  C   UNL     1       1.365  -2.176  -2.381  0.00  0.00    +0.013 C 
ATOM     20  C   UNL     1       0.595  -1.721  -1.139  0.00  0.00    +0.093 C 
ENDBRANCH  15  20
ENDBRANCH   1  17
BRANCH   5  21
ATOM     21  C   UNL     1       2.343  -5.731   3.921  0.00  0.00    +0.243 C 
BRANCH  21  22
ATOM     22  C   UNL     1       3.659  -6.168   3.330  0.00  0.00    +0.239 C 
ATOM     23  O   UNL     1       4.391  -5.353   2.810  0.00  0.00    -0.273 OA
ATOM     24  N   UNL     1       4.022  -7.465   3.380  0.00  0.00    -0.284 N 
ATOM     25  H   UNL     1       3.407  -8.128   3.733  0.00  0.00    +0.155 HD
BRANCH  24  26
ATOM     26  C   UNL     1       5.285  -7.856   2.922  0.00  0.00    +0.037 A 
ATOM     27  C   UNL     1       5.874  -7.192   1.854  0.00  0.00    +0.024 A 
ATOM     28  C   UNL     1       7.121  -7.580   1.405  0.00  0.00    +0.017 A 
ATOM     29  C   UNL     1       7.784  -8.629   2.018  0.00  0.00    +0.021 A 
ATOM     30  C   UNL     1       7.199  -9.292   3.082  0.00  0.00    -0.032 A 
ATOM     31  C   UNL     1       5.955  -8.905   3.539  0.00  0.00    -0.025 A 
ATOM     32  C   UNL     1       5.321  -9.623   4.702  0.00  0.00    +0.046 C 
ATOM     33  C   UNL     1       7.923 -10.434   3.747  0.00  0.00    +0.045 C 
ATOM     34 BR   UNL     1       9.491  -9.158   1.399  0.00  0.00    -0.050 Br
ENDBRANCH  24  26
ENDBRANCH  21  22
ENDBRANCH   5  21
TORSDOF 6
