REMARK  Name = ZINC02654270
REMARK  8 active torsions:
REMARK  status: ('A' for Active; 'I' for Inactive)
REMARK    1  A    between atoms: C_1  and  C_2
REMARK    2  A    between atoms: C_2  and  O_3
REMARK    3  A    between atoms: O_3  and  C_4
REMARK    4  A    between atoms: C_7  and  S_10
REMARK    5  A    between atoms: S_10  and  N_13
REMARK    6  A    between atoms: N_13  and  N_14
REMARK    7  A    between atoms: C_15  and  C_16
REMARK    8  A    between atoms: C_25  and  O_26
REMARK                            x       y       z     vdW  Elec       q    Type
REMARK                         _______ _______ _______ _____ _____    ______ ____
ROOT
ATOM      1  N   UNL     1      -2.574   8.057   0.071  0.00  0.00    -0.137 N 
ATOM      2  H   UNL     1      -3.417   7.578   0.077  0.00  0.00    +0.197 HD
ENDROOT
BRANCH   1   3
ATOM      3  S   UNL     1      -2.563   9.713   0.080  0.00  0.00    +0.086 S 
ATOM      4  O   UNL     1      -3.916  10.129  -0.050  0.00  0.00    -0.149 OA
ATOM      5  O   UNL     1      -1.746  10.108   1.174  0.00  0.00    -0.149 OA
BRANCH   3   9
ATOM      6  C   UNL     1      -0.428  11.058  -3.681  0.00  0.00    +0.121 A 
ATOM      7  C   UNL     1      -1.802  10.862  -3.694  0.00  0.00    +0.047 A 
ATOM      8  C   UNL     1      -2.450  10.451  -2.545  0.00  0.00    +0.032 A 
ATOM      9  C   UNL     1      -1.732  10.236  -1.383  0.00  0.00    +0.110 A 
ATOM     10  C   UNL     1      -0.364  10.437  -1.366  0.00  0.00    +0.032 A 
ATOM     11  C   UNL     1       0.290  10.842  -2.514  0.00  0.00    +0.047 A 
BRANCH   6  12
ATOM     12  O   UNL     1       0.212  11.462  -4.809  0.00  0.00    -0.492 OA
BRANCH  12  14
ATOM     13  C   UNL     1       2.167  12.095  -6.081  0.00  0.00    +0.048 C 
ATOM     14  C   UNL     1       1.627  11.644  -4.722  0.00  0.00    +0.225 C 
ENDBRANCH  12  14
ENDBRANCH   6  12
ENDBRANCH   3   9
ENDBRANCH   1   3
BRANCH   1  15
ATOM     15  N   UNL     1      -1.365   7.349   0.055  0.00  0.00    -0.174 NA
ATOM     16  C   UNL     1      -1.373   6.050   0.048  0.00  0.00    +0.143 C 
BRANCH  16  17
ATOM     17  C   UNL     1      -0.105   5.306   0.032  0.00  0.00    +0.044 A 
ATOM     18  C   UNL     1      -0.096   3.845   0.024  0.00  0.00    -0.006 A 
ATOM     19  C   UNL     1      -1.286   3.107   0.032  0.00  0.00    +0.009 A 
ATOM     20  C   UNL     1      -1.234   1.745   0.017  0.00  0.00    +0.001 A 
ATOM     21  C   UNL     1      -0.013   1.076   0.008  0.00  0.00    +0.001 A 
ATOM     22  C   UNL     1       1.163   1.762   0.000  0.00  0.00    +0.008 A 
ATOM     23  C   UNL     1       1.148   3.168   0.008  0.00  0.00    -0.017 A 
ATOM     24  C   UNL     1       2.341   3.910   0.001  0.00  0.00    +0.012 A 
ATOM     25  C   UNL     1       2.314   5.270   0.008  0.00  0.00    +0.046 A 
ATOM     26  C   UNL     1       1.116   5.980   0.024  0.00  0.00    +0.126 A 
BRANCH  26  27
ATOM     27  O   UNL     1       1.136   7.338   0.031  0.00  0.00    -0.506 OA
ATOM     28  H   UNL     1       1.151   7.726   0.917  0.00  0.00    +0.292 HD
ENDBRANCH  26  27
ENDBRANCH  16  17
ENDBRANCH   1  15
TORSDOF 7
