REMARK  Name = ZINC33271102
REMARK  7 active torsions:
REMARK  status: ('A' for Active; 'I' for Inactive)
REMARK    1  A    between atoms: C_1  and  C_2
REMARK    2  A    between atoms: C_2  and  O_3
REMARK    3  A    between atoms: O_3  and  C_4
REMARK    4  A    between atoms: C_7  and  C_13
REMARK    5  A    between atoms: C_9  and  O_10
REMARK    6  A    between atoms: O_10  and  C_11
REMARK    7  A    between atoms: C_11  and  C_12
REMARK                            x       y       z     vdW  Elec       q    Type
REMARK                         _______ _______ _______ _____ _____    ______ ____
ROOT
ATOM      1  C   UNL     1      -1.124   7.566   1.856  0.00  0.00    +0.107 C 
ATOM      2  C   UNL     1      -2.195   8.120   0.911  0.00  0.00    +0.047 C 
ATOM      3  C   UNL     1      -3.570   7.583   1.299  0.00  0.00    +0.011 C 
ATOM      4  C   UNL     1      -3.614   6.070   1.066  0.00  0.00    +0.028 C 
ATOM      5  C   UNL     1      -3.267   5.786  -0.398  0.00  0.00    +0.160 C 
ATOM      6  O   UNL     1      -1.968   6.308  -0.680  0.00  0.00    -0.372 OA
ATOM      7  C   UNL     1      -1.850   7.724  -0.523  0.00  0.00    +0.155 C 
ATOM      8  C   UNL     1      -0.432   8.129  -0.842  0.00  0.00    +0.004 A 
ATOM      9  C   UNL     1      -0.062   8.283  -2.167  0.00  0.00    +0.028 A 
ATOM     10  C   UNL     1       1.231   8.648  -2.491  0.00  0.00    +0.041 A 
ATOM     11  C   UNL     1       2.163   8.863  -1.491  0.00  0.00    +0.022 A 
ATOM     12  C   UNL     1       1.800   8.712  -0.168  0.00  0.00    +0.025 A 
ATOM     13  C   UNL     1       0.499   8.346   0.161  0.00  0.00    +0.033 A 
ATOM     14  N   UNL     1       0.152   8.209   1.510  0.00  0.00    -0.336 N 
ATOM     15 CL   UNL     1       1.687   8.839  -4.155  0.00  0.00    -0.084 Cl
ATOM     16  H   UNL     1       0.817   8.575   2.307  0.00  0.00    +0.147 HD
ENDROOT
BRANCH   1  20
ATOM     17  C   UNL     1      -0.794   3.333   1.349  0.00  0.00    +0.162 A 
ATOM     18  C   UNL     1      -0.310   4.190   0.373  0.00  0.00    +0.050 A 
ATOM     19  C   UNL     1      -0.424   5.558   0.537  0.00  0.00    +0.009 A 
ATOM     20  C   UNL     1      -1.009   6.074   1.679  0.00  0.00    -0.023 A 
ATOM     21  C   UNL     1      -1.488   5.224   2.658  0.00  0.00    +0.055 A 
ATOM     22  C   UNL     1      -1.383   3.852   2.497  0.00  0.00    +0.162 A 
BRANCH  17  23
ATOM     23  O   UNL     1      -0.688   1.987   1.186  0.00  0.00    -0.489 OA
BRANCH  23  25
ATOM     24  C   UNL     1      -0.043  -0.005  -0.022  0.00  0.00    +0.048 C 
ATOM     25  C   UNL     1      -0.072   1.525  -0.018  0.00  0.00    +0.226 C 
ENDBRANCH  23  25
ENDBRANCH  17  23
BRANCH  22  26
ATOM     26  O   UNL     1      -1.853   3.015   3.460  0.00  0.00    -0.489 OA
BRANCH  26  27
ATOM     27  C   UNL     1      -2.445   3.619   4.612  0.00  0.00    +0.226 C 
ATOM     28  C   UNL     1      -2.912   2.527   5.577  0.00  0.00    +0.048 C 
ENDBRANCH  26  27
ENDBRANCH  22  26
ENDBRANCH   1  20
TORSDOF 5
