REMARK  Name = ZINC64002365
REMARK  5 active torsions:
REMARK  status: ('A' for Active; 'I' for Inactive)
REMARK    1  A    between atoms: C_7  and  C_10
REMARK    2  A    between atoms: C_10  and  C_11
REMARK    3  A    between atoms: C_16  and  N_19
REMARK    4  A    between atoms: C_23  and  C_35
REMARK    5  A    between atoms: C_27  and  C_29
REMARK                            x       y       z     vdW  Elec       q    Type
REMARK                         _______ _______ _______ _____ _____    ______ ____
ROOT
ATOM      1  C   UNL     1       0.460  -3.646  -1.440  0.00  0.00    +0.220 C 
ATOM      2  O   UNL     1       1.006  -3.075  -2.360  0.00  0.00    -0.275 OA
ATOM      3  N   UNL     1      -0.353  -4.693  -1.684  0.00  0.00    -0.301 N 
ATOM      4  C   UNL     1      -1.026  -5.391  -0.581  0.00  0.00    +0.109 C 
ATOM      5  C   UNL     1      -0.714  -6.888  -0.680  0.00  0.00    +0.041 C 
ATOM      6  C   UNL     1      -1.100  -7.394  -2.072  0.00  0.00    +0.078 C 
ATOM      7  C   UNL     1      -0.276  -6.657  -3.131  0.00  0.00    +0.041 C 
ATOM      8  C   UNL     1      -0.588  -5.154  -3.059  0.00  0.00    +0.109 C 
ENDROOT
BRANCH   6   9
ATOM      9  N   UNL     1      -0.833  -8.832  -2.160  0.00  0.00    -0.305 N 
ATOM     10  C   UNL     1       0.409  -9.458  -1.990  0.00  0.00    +0.053 A 
ATOM     11  C   UNL     1       1.660  -8.921  -1.708  0.00  0.00    +0.025 A 
ATOM     12  C   UNL     1       2.759  -9.749  -1.585  0.00  0.00    +0.014 A 
ATOM     13  C   UNL     1       2.619 -11.115  -1.742  0.00  0.00    +0.057 A 
ATOM     14  C   UNL     1       1.381 -11.658  -2.022  0.00  0.00    +0.037 A 
ATOM     15  C   UNL     1       0.269 -10.834  -2.148  0.00  0.00    +0.050 A 
ATOM     16  N   UNL     1      -1.069 -11.145  -2.425  0.00  0.00    -0.322 N 
ATOM     17  C   UNL     1      -1.819  -9.883  -2.437  0.00  0.00    +0.188 C 
ATOM     18  H   UNL     1      -1.433 -12.031  -2.578  0.00  0.00    +0.148 HD
BRANCH  17  19
ATOM     19  C   UNL     1      -2.455  -9.663  -3.811  0.00  0.00    +0.157 C 
ATOM     20  C   UNL     1      -3.574 -10.701  -4.042  0.00  0.00    +0.037 C 
ATOM     21  C   UNL     1      -3.389 -11.057  -5.542  0.00  0.00    +0.031 C 
ATOM     22  C   UNL     1      -1.850 -10.947  -5.683  0.00  0.00    +0.160 C 
ATOM     23  O   UNL     1      -1.472  -9.848  -4.836  0.00  0.00    -0.373 OA
ENDBRANCH  17  19
BRANCH  13  24
ATOM     24  C   UNL     1       3.822 -12.014  -1.607  0.00  0.00    +0.417 C 
ATOM     25  F   UNL     1       4.953 -11.241  -1.324  0.00  0.00    -0.166 F 
ATOM     26  F   UNL     1       3.608 -12.925  -0.567  0.00  0.00    -0.166 F 
ATOM     27  F   UNL     1       4.020 -12.711  -2.804  0.00  0.00    -0.166 F 
ENDBRANCH  13  24
ENDBRANCH   6   9
BRANCH   1  28
ATOM     28  C   UNL     1       0.691  -3.186  -0.024  0.00  0.00    +0.129 C 
BRANCH  28  35
ATOM     29  C   UNL     1      -0.016   1.348   0.009  0.00  0.00    +0.001 A 
ATOM     30  C   UNL     1       1.166   2.101   0.002  0.00  0.00    +0.002 A 
ATOM     31  C   UNL     1       2.391   1.535  -0.013  0.00  0.00    +0.026 A 
ATOM     32  C   UNL     1       2.529   0.120  -0.022  0.00  0.00    +0.043 A 
ATOM     33  N   UNL     1       3.587  -0.654  -0.037  0.00  0.00    -0.380 N 
ATOM     34  C   UNL     1       3.143  -2.053  -0.041  0.00  0.00    +0.145 C 
ATOM     35  C   UNL     1       1.631  -2.008  -0.025  0.00  0.00    -0.033 C 
ATOM     36  C   UNL     1       1.295  -0.698  -0.014  0.00  0.00    -0.001 A 
ATOM     37  C   UNL     1       0.002  -0.004   0.002  0.00  0.00    +0.010 A 
ATOM     38  H   UNL     1       4.509  -0.353  -0.045  0.00  0.00    +0.160 HD
ENDBRANCH  28  35
ENDBRANCH   1  28
TORSDOF 5
