REMARK  Name = ZINC04089985
REMARK  6 active torsions:
REMARK  status: ('A' for Active; 'I' for Inactive)
REMARK    1  A    between atoms: C_6  and  S_7
REMARK    2  A    between atoms: S_7  and  C_10
REMARK    3  A    between atoms: C_10  and  C_11
REMARK    4  A    between atoms: N_12  and  O_13
REMARK    5  A    between atoms: O_13  and  C_14
REMARK    6  A    between atoms: C_14  and  C_15
REMARK                            x       y       z     vdW  Elec       q    Type
REMARK                         _______ _______ _______ _____ _____    ______ ____
ROOT
ATOM      1  C   UNL     1      -4.736   1.022   0.030  0.00  0.00    +0.149 C 
ATOM      2  N   UNL     1      -3.692   1.762   0.029  0.00  0.00    -0.096 NA
ENDROOT
BRANCH   1   3
ATOM      3  C   UNL     1      -6.105   1.651   0.040  0.00  0.00    +0.222 C 
BRANCH   3   4
ATOM      4  S   UNL     1      -7.071   1.020  -1.360  0.00  0.00    +0.002 S 
ATOM      5  O   UNL     1      -6.521   1.487  -2.584  0.00  0.00    -0.169 OA
ATOM      6  O   UNL     1      -7.359  -0.359  -1.174  0.00  0.00    -0.169 OA
BRANCH   4  12
ATOM      7  C   UNL     1      -9.653   1.245  -0.504  0.00  0.00    +0.028 A 
ATOM      8  C   UNL     1     -10.876   1.880  -0.399  0.00  0.00    +0.022 A 
ATOM      9  C   UNL     1     -11.083   3.092  -1.034  0.00  0.00    +0.041 A 
ATOM     10  C   UNL     1     -10.063   3.671  -1.768  0.00  0.00    +0.022 A 
ATOM     11  C   UNL     1      -8.838   3.038  -1.867  0.00  0.00    +0.028 A 
ATOM     12  C   UNL     1      -8.633   1.827  -1.233  0.00  0.00    +0.089 A 
ATOM     13 CL   UNL     1     -12.621   3.886  -0.908  0.00  0.00    -0.084 Cl
ENDBRANCH   4  12
ENDBRANCH   3   4
ENDBRANCH   1   3
BRANCH   2  14
ATOM     14  O   UNL     1      -2.405   1.170   0.020  0.00  0.00    -0.389 OA
BRANCH  14  15
ATOM     15  C   UNL     1      -1.332   2.114   0.020  0.00  0.00    +0.299 C 
BRANCH  15  16
ATOM     16  C   UNL     1      -0.017   1.378   0.010  0.00  0.00    +0.011 A 
ATOM     17  C   UNL     1       0.002  -0.004   0.002  0.00  0.00    +0.010 A 
ATOM     18  C   UNL     1       1.208  -0.679  -0.013  0.00  0.00    +0.020 A 
ATOM     19  C   UNL     1       2.397   0.028  -0.021  0.00  0.00    +0.042 A 
ATOM     20  C   UNL     1       2.379   1.411  -0.013  0.00  0.00    +0.040 A 
ATOM     21  C   UNL     1       1.172   2.086   0.002  0.00  0.00    +0.049 A 
ATOM     22 CL   UNL     1       1.148   3.822   0.012  0.00  0.00    -0.083 Cl
ATOM     23 CL   UNL     1       3.912  -0.820  -0.039  0.00  0.00    -0.083 Cl
ENDBRANCH  15  16
ENDBRANCH  14  15
ENDBRANCH   2  14
TORSDOF 6
