REMARK  Name = ZINC38703254
REMARK  5 active torsions:
REMARK  status: ('A' for Active; 'I' for Inactive)
REMARK    1  A    between atoms: C_1  and  C_2
REMARK    2  A    between atoms: C_4  and  C_26
REMARK    3  A    between atoms: C_16  and  C_18
REMARK    4  A    between atoms: C_22  and  O_24
REMARK    5  A    between atoms: O_24  and  C_25
REMARK                            x       y       z     vdW  Elec       q    Type
REMARK                         _______ _______ _______ _____ _____    ______ ____
ROOT
ATOM      1  C   UNL     1      -0.018   1.503   0.010  0.00  0.00    +0.044 C 
ATOM      2  C   UNL     1       0.002  -0.004   0.002  0.00  0.00    -0.049 A 
ATOM      3  C   UNL     1       0.006  -0.689  -1.205  0.00  0.00    +0.010 A 
ATOM      4  C   UNL     1       0.021  -2.065  -1.235  0.00  0.00    -0.007 A 
ATOM      5  C   UNL     1       0.035  -2.790  -0.043  0.00  0.00    +0.142 A 
ATOM      6  C   UNL     1       0.037  -2.086   1.172  0.00  0.00    +0.065 A 
ATOM      7  C   UNL     1       0.023  -0.692   1.183  0.00  0.00    +0.018 A 
ATOM      8  C   UNL     1       0.068  -2.849   2.446  0.00  0.00    +0.199 A 
ATOM      9  O   UNL     1      -0.097  -2.332   3.537  0.00  0.00    -0.287 OA
ATOM     10  C   UNL     1       0.314  -4.283   2.265  0.00  0.00    +0.072 A 
ATOM     11  C   UNL     1       0.294  -4.850   1.022  0.00  0.00    +0.199 A 
ATOM     12  O   UNL     1       0.043  -4.141  -0.096  0.00  0.00    -0.449 OA
ATOM     13  C   UNL     1       0.583  -6.288   1.166  0.00  0.00    +0.281 C 
ATOM     14  O   UNL     1       0.643  -7.081   0.247  0.00  0.00    -0.267 OA
ATOM     15  N   UNL     1       0.770  -6.596   2.465  0.00  0.00    -0.298 N 
ATOM     16  C   UNL     1       0.614  -5.362   3.253  0.00  0.00    +0.142 C 
ATOM     17  C   UNL     1       0.023  -2.790  -2.557  0.00  0.00    +0.047 C 
ATOM     18  H   UNL     1       0.973  -7.476   2.819  0.00  0.00    +0.150 HD
ENDROOT
BRANCH  16  19
ATOM     19  C   UNL     1      -0.527  -5.508   4.226  0.00  0.00    -0.019 A 
ATOM     20  C   UNL     1      -1.656  -6.220   3.865  0.00  0.00    +0.006 A 
ATOM     21  C   UNL     1      -2.705  -6.355   4.756  0.00  0.00    +0.004 A 
ATOM     22  C   UNL     1      -2.627  -5.779   6.009  0.00  0.00    +0.045 A 
ATOM     23  C   UNL     1      -1.495  -5.065   6.374  0.00  0.00    +0.120 A 
ATOM     24  C   UNL     1      -0.442  -4.935   5.480  0.00  0.00    +0.051 A 
BRANCH  23  25
ATOM     25  O   UNL     1      -1.417  -4.497   7.606  0.00  0.00    -0.495 OA
ATOM     26  C   UNL     1      -2.536  -4.676   8.476  0.00  0.00    +0.277 C 
ENDBRANCH  23  25
ENDBRANCH  16  19
TORSDOF 2
