REMARK  Name = ZINC04748758
REMARK  7 active torsions:
REMARK  status: ('A' for Active; 'I' for Inactive)
REMARK    1  A    between atoms: C_1  and  C_2
REMARK    2  A    between atoms: C_2  and  C_29
REMARK    3  A    between atoms: C_6  and  C_16
REMARK    4  A    between atoms: C_19  and  O_24
REMARK    5  A    between atoms: C_20  and  O_22
REMARK    6  A    between atoms: O_22  and  C_23
REMARK    7  A    between atoms: O_24  and  C_25
REMARK                            x       y       z     vdW  Elec       q    Type
REMARK                         _______ _______ _______ _____ _____    ______ ____
ROOT
ATOM      1  C   UNL     1       2.938   6.941   0.485  0.00  0.00    +0.011 C 
ATOM      2  C   UNL     1       3.082   7.945   1.631  0.00  0.00    -0.023 C 
ATOM      3  C   UNL     1       2.221   9.175   1.353  0.00  0.00    +0.058 C 
ATOM      4  C   UNL     1       0.754   8.788   1.260  0.00  0.00    +0.017 C 
ATOM      5  C   UNL     1       0.274   7.713   1.902  0.00  0.00    +0.030 C 
ATOM      6  C   UNL     1      -1.118   7.126   1.853  0.00  0.00    +0.116 C 
ATOM      7  S   UNL     1      -2.152   7.781   0.531  0.00  0.00    -0.110 S 
ATOM      8  C   UNL     1      -2.323   9.491   0.907  0.00  0.00    +0.030 A 
ATOM      9  C   UNL     1      -3.558  10.042   1.210  0.00  0.00    +0.016 A 
ATOM     10  C   UNL     1      -3.624  11.374   1.587  0.00  0.00    +0.001 A 
ATOM     11  C   UNL     1      -2.473  12.138   1.659  0.00  0.00    +0.002 A 
ATOM     12  C   UNL     1      -1.243  11.590   1.335  0.00  0.00    +0.024 A 
ATOM     13  C   UNL     1      -1.181  10.264   0.940  0.00  0.00    +0.045 A 
ATOM     14  N   UNL     1      -0.004   9.649   0.552  0.00  0.00    -0.317 N 
ATOM     15  C   UNL     1       1.131   6.974   2.761  0.00  0.00    +0.163 C 
ATOM     16  O   UNL     1       0.675   6.029   3.374  0.00  0.00    -0.292 OA
ATOM     17  C   UNL     1       2.578   7.321   2.939  0.00  0.00    +0.086 C 
ATOM     18  C   UNL     1       4.547   8.359   1.781  0.00  0.00    +0.011 C 
ATOM     19  H   UNL     1       0.315   9.864  -0.339  0.00  0.00    +0.152 HD
ENDROOT
BRANCH   6  20
ATOM     20  C   UNL     1      -1.003   5.634   1.677  0.00  0.00    -0.026 A 
ATOM     21  C   UNL     1      -0.368   5.119   0.562  0.00  0.00    +0.009 A 
ATOM     22  C   UNL     1      -0.254   3.751   0.398  0.00  0.00    +0.050 A 
ATOM     23  C   UNL     1      -0.787   2.893   1.346  0.00  0.00    +0.162 A 
ATOM     24  C   UNL     1      -1.427   3.411   2.468  0.00  0.00    +0.162 A 
ATOM     25  C   UNL     1      -1.532   4.784   2.629  0.00  0.00    +0.054 A 
BRANCH  24  26
ATOM     26  O   UNL     1      -1.946   2.574   3.405  0.00  0.00    -0.491 OA
ATOM     27  C   UNL     1      -2.588   3.176   4.530  0.00  0.00    +0.277 C 
ENDBRANCH  24  26
BRANCH  23  28
ATOM     28  O   UNL     1      -0.682   1.547   1.184  0.00  0.00    -0.491 OA
ATOM     29  C   UNL     1      -0.013   1.086   0.008  0.00  0.00    +0.277 C 
ENDBRANCH  23  28
ENDBRANCH   6  20
TORSDOF 3
