REMARK  Name = ZINC03573235
REMARK  9 active torsions:
REMARK  status: ('A' for Active; 'I' for Inactive)
REMARK    1  A    between atoms: C_1  and  C_2
REMARK    2  A    between atoms: C_5  and  N_9
REMARK    3  A    between atoms: C_10  and  C_12
REMARK    4  A    between atoms: C_12  and  S_13
REMARK    5  A    between atoms: S_13  and  C_14
REMARK    6  A    between atoms: C_17  and  C_20
REMARK    7  A    between atoms: N_18  and  N_19
REMARK    8  A    between atoms: C_23  and  O_26
REMARK    9  A    between atoms: O_26  and  C_27
REMARK                            x       y       z     vdW  Elec       q    Type
REMARK                         _______ _______ _______ _____ _____    ______ ____
ROOT
ATOM      1  C   UNL     1       1.677   2.225  -0.155  0.00  0.00    +0.209 A 
ATOM      2  N   UNL     1       2.590   1.298   0.027  0.00  0.00    -0.121 NA
ATOM      3  N   UNL     1       3.758   1.831   0.073  0.00  0.00    -0.127 NA
ATOM      4  C   UNL     1       3.662   3.133  -0.070  0.00  0.00    +0.182 A 
ATOM      5  N   UNL     1       2.326   3.425  -0.221  0.00  0.00    -0.224 N 
ENDROOT
BRANCH   4   6
ATOM      6  C   UNL     1       4.779   4.101  -0.069  0.00  0.00    +0.021 A 
ATOM      7  C   UNL     1       6.090   3.658  -0.259  0.00  0.00    +0.015 A 
ATOM      8  C   UNL     1       7.128   4.565  -0.262  0.00  0.00    +0.046 A 
ATOM      9  C   UNL     1       6.873   5.916  -0.066  0.00  0.00    +0.127 A 
ATOM     10  C   UNL     1       5.571   6.360   0.129  0.00  0.00    +0.046 A 
ATOM     11  C   UNL     1       4.527   5.460   0.128  0.00  0.00    +0.015 A 
BRANCH   9  12
ATOM     12  O   UNL     1       7.899   6.806  -0.064  0.00  0.00    -0.434 OA
BRANCH  12  13
ATOM     13  C   UNL     1       9.213   6.282  -0.270  0.00  0.00    +0.541 C 
ATOM     14  F   UNL     1       9.511   5.361   0.740  0.00  0.00    -0.166 F 
ATOM     15  F   UNL     1       9.271   5.644  -1.514  0.00  0.00    -0.166 F 
ENDBRANCH  12  13
ENDBRANCH   9  12
ENDBRANCH   4   6
BRANCH   5  16
ATOM     16  N   UNL     1       1.766   4.658  -0.399  0.00  0.00    -0.295 N 
ATOM     17  H   UNL     1       2.406   5.553  -0.433  0.00  0.00    +0.163 HD
ATOM     18  H   UNL     1       0.676   4.757  -0.507  0.00  0.00    +0.163 HD
ENDBRANCH   5  16
BRANCH   1  19
ATOM     19  S   UNL     1      -0.062   1.969  -0.285  0.00  0.00    -0.075 S 
BRANCH  19  20
ATOM     20  C   UNL     1      -0.129   0.169  -0.106  0.00  0.00    +0.173 C 
BRANCH  20  22
ATOM     21  N   UNL     1      -1.856  -1.601  -0.078  0.00  0.00    -0.284 N 
ATOM     22  C   UNL     1      -1.562  -0.290  -0.187  0.00  0.00    +0.228 C 
ATOM     23  O   UNL     1      -2.450   0.519  -0.349  0.00  0.00    -0.275 OA
ATOM     24  H   UNL     1      -1.046  -2.343  -0.013  0.00  0.00    +0.155 HD
BRANCH  21  29
ATOM     25  C   UNL     1      -7.271  -3.293   0.040  0.00  0.00    +0.044 C 
ATOM     26  C   UNL     1      -5.832  -2.844   0.009  0.00  0.00    -0.049 A 
ATOM     27  C   UNL     1      -5.468  -1.747  -0.751  0.00  0.00    +0.005 A 
ATOM     28  C   UNL     1      -4.151  -1.333  -0.782  0.00  0.00    +0.024 A 
ATOM     29  C   UNL     1      -3.191  -2.019  -0.049  0.00  0.00    +0.047 A 
ATOM     30  C   UNL     1      -3.559  -3.123   0.709  0.00  0.00    +0.039 A 
ATOM     31  C   UNL     1      -4.880  -3.530   0.740  0.00  0.00    +0.020 A 
ATOM     32 BR   UNL     1      -2.255  -4.066   1.703  0.00  0.00    -0.048 Br
ENDBRANCH  21  29
ENDBRANCH  20  22
ENDBRANCH  19  20
ENDBRANCH   1  19
TORSDOF 8
