REMARK  Name = ZINC66140382
REMARK  8 active torsions:
REMARK  status: ('A' for Active; 'I' for Inactive)
REMARK    1  A    between atoms: C_1  and  C_2
REMARK    2  A    between atoms: C_2  and  C_3
REMARK    3  A    between atoms: C_6  and  O_9
REMARK    4  A    between atoms: O_9  and  C_10
REMARK    5  A    between atoms: C_10  and  C_12
REMARK    6  A    between atoms: C_10  and  C_13
REMARK    7  A    between atoms: C_15  and  C_19
REMARK    8  A    between atoms: C_23  and  N_25
REMARK                            x       y       z     vdW  Elec       q    Type
REMARK                         _______ _______ _______ _____ _____    ______ ____
ROOT
ATOM      1  C   UNL     1       4.538  -2.942  -5.571  0.00  0.00    +0.077 A 
ATOM      2  C   UNL     1       5.638  -3.718  -5.452  0.00  0.00    +0.056 A 
ATOM      3  C   UNL     1       5.719  -4.530  -6.600  0.00  0.00    +0.093 A 
ATOM      4  N   UNL     1       4.695  -4.242  -7.374  0.00  0.00    -0.174 NA
ATOM      5  N   UNL     1       3.937  -3.248  -6.741  0.00  0.00    -0.277 N 
ATOM      6  H   UNL     1       3.123  -2.848  -7.085  0.00  0.00    +0.189 HD
ENDROOT
BRANCH   3   7
ATOM      7  C   UNL     1       6.774  -5.535  -6.885  0.00  0.00    +0.004 A 
ATOM      8  C   UNL     1       7.805  -5.745  -5.971  0.00  0.00    +0.010 A 
ATOM      9  C   UNL     1       8.785  -6.680  -6.238  0.00  0.00    +0.002 A 
ATOM     10  C   UNL     1       8.749  -7.410  -7.410  0.00  0.00    +0.023 A 
ATOM     11  C   UNL     1       7.725  -7.207  -8.328  0.00  0.00    +0.025 A 
ATOM     12  C   UNL     1       6.733  -6.274  -8.065  0.00  0.00    +0.032 A 
BRANCH  11  13
ATOM     13  N   UNL     1       7.691  -7.947  -9.512  0.00  0.00    -0.358 N 
ATOM     14  H   UNL     1       8.383  -8.602  -9.695  0.00  0.00    +0.142 HD
ATOM     15  H   UNL     1       6.976  -7.805 -10.153  0.00  0.00    +0.142 HD
ENDBRANCH  11  13
ENDBRANCH   3   7
BRANCH   1  16
ATOM     16  C   UNL     1       4.062  -1.920  -4.571  0.00  0.00    +0.218 C 
ATOM     17  C   UNL     1       4.682  -0.560  -4.899  0.00  0.00    +0.059 C 
BRANCH  16  18
ATOM     18  O   UNL     1       2.638  -1.822  -4.632  0.00  0.00    -0.483 OA
BRANCH  18  22
ATOM     19  C   UNL     1       0.708  -0.484  -1.240  0.00  0.00    -0.047 A 
ATOM     20  C   UNL     1       2.090  -0.496  -1.288  0.00  0.00    +0.007 A 
ATOM     21  C   UNL     1       2.739  -0.944  -2.423  0.00  0.00    +0.046 A 
ATOM     22  C   UNL     1       2.002  -1.381  -3.514  0.00  0.00    +0.121 A 
ATOM     23  C   UNL     1       0.616  -1.369  -3.463  0.00  0.00    +0.046 A 
ATOM     24  C   UNL     1      -0.028  -0.925  -2.324  0.00  0.00    +0.007 A 
BRANCH  19  26
ATOM     25  C   UNL     1      -0.223  -1.168   0.954  0.00  0.00    +0.009 C 
ATOM     26  C   UNL     1       0.003   0.005  -0.001  0.00  0.00    +0.032 C 
ENDBRANCH  19  26
ENDBRANCH  18  22
ENDBRANCH  16  18
ENDBRANCH   1  16
TORSDOF 6
