REMARK  Name = ZINC23525242
REMARK  7 active torsions:
REMARK  status: ('A' for Active; 'I' for Inactive)
REMARK    1  A    between atoms: C_1  and  C_2
REMARK    2  A    between atoms: C_2  and  C_4
REMARK    3  A    between atoms: C_2  and  S_15
REMARK    4  A    between atoms: N_6  and  C_7
REMARK    5  A    between atoms: C_12  and  C_13
REMARK    6  A    between atoms: S_15  and  C_16
REMARK    7  A    between atoms: N_26  and  C_27
REMARK                            x       y       z     vdW  Elec       q    Type
REMARK                         _______ _______ _______ _____ _____    ______ ____
ROOT
ATOM      1  C   UNL     1       0.465   0.524   0.075  0.00  0.00    +0.177 A 
ATOM      2  N   UNL     1       1.590  -0.143  -0.008  0.00  0.00    -0.223 NA
ATOM      3  C   UNL     1       1.611  -1.496  -0.013  0.00  0.00    +0.080 A 
ATOM      4  C   UNL     1       2.811  -2.209  -0.096  0.00  0.00    +0.048 A 
ATOM      5  C   UNL     1       2.783  -3.586  -0.104  0.00  0.00    +0.043 A 
ATOM      6  C   UNL     1       1.577  -4.275  -0.032  0.00  0.00    +0.021 A 
ATOM      7  C   UNL     1       0.391  -3.600   0.050  0.00  0.00    +0.017 A 
ATOM      8  C   UNL     1       0.390  -2.205   0.060  0.00  0.00    +0.065 A 
ATOM      9  C   UNL     1      -0.856  -1.433   0.146  0.00  0.00    +0.267 A 
ATOM     10  O   UNL     1      -1.938  -1.987   0.212  0.00  0.00    -0.267 OA
ATOM     11  N   UNL     1      -0.758  -0.083   0.149  0.00  0.00    -0.255 N 
ATOM     12 CL   UNL     1       4.272  -4.473  -0.207  0.00  0.00    -0.083 Cl
ENDROOT
BRANCH  11  13
ATOM     13  C   UNL     1      -1.919   0.698   0.229  0.00  0.00    +0.052 A 
ATOM     14  C   UNL     1      -2.836   0.689  -0.813  0.00  0.00    +0.028 A 
ATOM     15  C   UNL     1      -3.981   1.456  -0.730  0.00  0.00    +0.022 A 
ATOM     16  C   UNL     1      -4.210   2.241   0.386  0.00  0.00    +0.041 A 
ATOM     17  C   UNL     1      -3.295   2.256   1.424  0.00  0.00    +0.022 A 
ATOM     18  C   UNL     1      -2.150   1.486   1.348  0.00  0.00    +0.028 A 
ATOM     19 CL   UNL     1      -5.647   3.209   0.485  0.00  0.00    -0.084 Cl
ENDBRANCH  11  13
BRANCH   1  20
ATOM     20  S   UNL     1       0.531   2.285   0.083  0.00  0.00    -0.075 S 
BRANCH  20  22
ATOM     21  C   UNL     1       2.991   1.990   1.232  0.00  0.00    +0.029 C 
ATOM     22  C   UNL     1       2.320   2.533  -0.031  0.00  0.00    +0.137 C 
BRANCH  22  23
ATOM     23  C   UNL     1       2.615   4.005  -0.163  0.00  0.00    +0.230 C 
ATOM     24  O   UNL     1       1.825   4.823   0.259  0.00  0.00    -0.274 OA
ATOM     25  N   UNL     1       3.758   4.413  -0.751  0.00  0.00    -0.284 N 
ATOM     26  H   UNL     1       4.429   3.677  -1.218  0.00  0.00    +0.155 HD
BRANCH  25  27
ATOM     27  C   UNL     1       4.088   5.767  -0.767  0.00  0.00    +0.051 A 
ATOM     28  C   UNL     1       3.740   6.583   0.300  0.00  0.00    +0.024 A 
ATOM     29  C   UNL     1       4.074   7.923   0.285  0.00  0.00    +0.002 A 
ATOM     30  C   UNL     1       4.747   8.465  -0.798  0.00  0.00    +0.001 A 
ATOM     31  C   UNL     1       5.095   7.672  -1.869  0.00  0.00    +0.021 A 
ATOM     32  C   UNL     1       4.769   6.313  -1.865  0.00  0.00    +0.073 A 
BRANCH  32  33
ATOM     33  C   UNL     1       5.128   5.483  -2.976  0.00  0.00    +0.101 C 
ATOM     34  N   UNL     1       5.413   4.825  -3.857  0.00  0.00    -0.191 NA
ENDBRANCH  32  33
ENDBRANCH  25  27
ENDBRANCH  22  23
ENDBRANCH  20  22
ENDBRANCH   1  20
TORSDOF 6
