REMARK  Name = ZINC37055288
REMARK  5 active torsions:
REMARK  status: ('A' for Active; 'I' for Inactive)
REMARK    1  A    between atoms: C_5  and  S_8
REMARK    2  A    between atoms: C_6  and  N_7
REMARK    3  A    between atoms: S_8  and  N_11
REMARK    4  A    between atoms: N_11  and  C_12
REMARK    5  A    between atoms: C_15  and  O_18
REMARK                            x       y       z     vdW  Elec       q    Type
REMARK                         _______ _______ _______ _____ _____    ______ ____
ROOT
ATOM      1  S   UNL     1       1.010  -2.276  -0.997  0.00  0.00    +0.061 S 
ATOM      2  O   UNL     1      -0.360  -2.527  -1.280  0.00  0.00    -0.153 OA
ATOM      3  O   UNL     1       2.032  -2.444  -1.971  0.00  0.00    -0.153 OA
ENDROOT
BRANCH   1   8
ATOM      4  C   UNL     1       0.057   1.365   0.440  0.00  0.00    +0.040 A 
ATOM      5  C   UNL     1       1.275   2.018   0.430  0.00  0.00    +0.021 A 
ATOM      6  C   UNL     1       2.409   1.362  -0.015  0.00  0.00    +0.032 A 
ATOM      7  C   UNL     1       2.328   0.051  -0.451  0.00  0.00    +0.047 A 
ATOM      8  C   UNL     1       1.113  -0.607  -0.442  0.00  0.00    +0.140 A 
ATOM      9  C   UNL     1      -0.028   0.049   0.004  0.00  0.00    +0.053 A 
ATOM     10 BR   UNL     1       3.881  -0.840  -1.058  0.00  0.00    -0.048 Br
ATOM     11 BR   UNL     1       1.391   3.809   1.024  0.00  0.00    -0.050 Br
BRANCH   9  12
ATOM     12  N   UNL     1      -1.257  -0.614   0.013  0.00  0.00    -0.356 N 
ATOM     13  H   UNL     1      -2.082  -0.109  -0.066  0.00  0.00    +0.142 HD
ATOM     14  H   UNL     1      -1.287  -1.580   0.100  0.00  0.00    +0.142 HD
ENDBRANCH   9  12
ENDBRANCH   1   8
BRANCH   1  15
ATOM     15  N   UNL     1       1.414  -3.244   0.284  0.00  0.00    -0.187 NA
ATOM     16  H   UNL     1       2.215  -3.790   0.246  0.00  0.00    +0.148 HD
BRANCH  15  17
ATOM     17  C   UNL     1       0.562  -3.276   1.475  0.00  0.00    +0.077 C 
ATOM     18  C   UNL     1       1.104  -2.294   2.516  0.00  0.00    +0.023 C 
ATOM     19  C   UNL     1       0.214  -2.327   3.760  0.00  0.00    +0.033 C 
ATOM     20  C   UNL     1       0.209  -3.740   4.346  0.00  0.00    +0.115 C 
ATOM     21  C   UNL     1      -0.333  -4.722   3.305  0.00  0.00    +0.033 C 
ATOM     22  C   UNL     1       0.557  -4.689   2.061  0.00  0.00    +0.023 C 
BRANCH  20  23
ATOM     23  O   UNL     1      -0.622  -3.772   5.508  0.00  0.00    -0.392 OA
ATOM     24  H   UNL     1      -0.672  -4.639   5.933  0.00  0.00    +0.210 HD
ENDBRANCH  20  23
ENDBRANCH  15  17
ENDBRANCH   1  15
TORSDOF 5
