REMARK  Name = ZINC02962592
REMARK  9 active torsions:
REMARK  status: ('A' for Active; 'I' for Inactive)
REMARK    1  A    between atoms: C_1  and  C_2
REMARK    2  A    between atoms: C_2  and  O_3
REMARK    3  A    between atoms: O_3  and  C_4
REMARK    4  A    between atoms: C_4  and  C_6
REMARK    5  A    between atoms: C_12  and  O_30
REMARK    6  A    between atoms: C_17  and  C_29
REMARK    7  A    between atoms: N_18  and  C_22
REMARK    8  A    between atoms: C_26  and  C_28
REMARK    9  A    between atoms: O_30  and  C_31
REMARK                            x       y       z     vdW  Elec       q    Type
REMARK                         _______ _______ _______ _____ _____    ______ ____
ROOT
ATOM      1  C   UNL     1      -0.713   2.379   1.413  0.00  0.00    +0.185 C 
ATOM      2  C   UNL     1      -0.115   1.357   2.395  0.00  0.00    +0.125 C 
ATOM      3  C   UNL     1      -0.381  -0.030   1.855  0.00  0.00    +0.019 A 
ATOM      4  C   UNL     1      -0.395  -1.098   2.734  0.00  0.00    +0.054 A 
ATOM      5  C   UNL     1      -0.627  -2.382   2.266  0.00  0.00    +0.121 A 
ATOM      6  C   UNL     1      -0.844  -2.593   0.912  0.00  0.00    +0.049 A 
ATOM      7  C   UNL     1      -0.831  -1.527   0.036  0.00  0.00    +0.049 A 
ATOM      8  C   UNL     1      -0.602  -0.237   0.505  0.00  0.00    +0.129 A 
ATOM      9  O   UNL     1      -0.604   0.787  -0.388  0.00  0.00    -0.467 OA
ATOM     10  C   UNL     1      -0.126   2.062   0.030  0.00  0.00    +0.196 C 
ATOM     11  N   UNL     1       1.332   2.073   0.110  0.00  0.00    -0.243 N 
ATOM     12  C   UNL     1       1.983   1.864   1.264  0.00  0.00    +0.141 C 
ATOM     13  S   UNL     1       3.689   1.997   1.284  0.00  0.00    -0.018 S 
ATOM     14  N   UNL     1       1.344   1.553   2.405  0.00  0.00    -0.318 N 
ATOM     15  C   UNL     1      -0.588   3.129  -0.966  0.00  0.00    +0.080 C 
ATOM     16  H   UNL     1       1.843   1.458   3.231  0.00  0.00    +0.148 HD
ENDROOT
BRANCH  11  17
ATOM     17  C   UNL     1       2.073   2.308  -1.053  0.00  0.00    +0.039 A 
ATOM     18  C   UNL     1       2.369   1.259  -1.914  0.00  0.00    +0.023 A 
ATOM     19  C   UNL     1       3.096   1.496  -3.064  0.00  0.00    +0.002 A 
ATOM     20  C   UNL     1       3.539   2.774  -3.353  0.00  0.00    +0.003 A 
ATOM     21  C   UNL     1       3.250   3.820  -2.495  0.00  0.00    -0.049 A 
ATOM     22  C   UNL     1       2.518   3.590  -1.346  0.00  0.00    +0.027 A 
ATOM     23  C   UNL     1       3.735   5.210  -2.814  0.00  0.00    +0.044 C 
ENDBRANCH  11  17
BRANCH   1  24
ATOM     24  C   UNL     1      -2.214   2.242   1.379  0.00  0.00    +0.318 C 
ATOM     25  O   UNL     1      -2.768   1.924   0.354  0.00  0.00    -0.250 OA
BRANCH  24  26
ATOM     26  O   UNL     1      -2.934   2.474   2.488  0.00  0.00    -0.465 OA
BRANCH  26  28
ATOM     27  C   UNL     1      -5.020   2.627   3.735  0.00  0.00    +0.048 C 
ATOM     28  C   UNL     1      -4.374   2.324   2.381  0.00  0.00    +0.229 C 
ENDBRANCH  26  28
ENDBRANCH  24  26
ENDBRANCH   1  24
BRANCH   5  29
ATOM     29  O   UNL     1      -0.641  -3.431   3.131  0.00  0.00    -0.495 OA
ATOM     30  C   UNL     1      -0.886  -4.725   2.576  0.00  0.00    +0.277 C 
ENDBRANCH   5  29
TORSDOF 5
