REMARK  Name = ZINC66658419
REMARK  8 active torsions:
REMARK  status: ('A' for Active; 'I' for Inactive)
REMARK    1  A    between atoms: C_1  and  C_2
REMARK    2  A    between atoms: C_2  and  C_3
REMARK    3  A    between atoms: C_2  and  C_4
REMARK    4  A    between atoms: C_4  and  C_5
REMARK    5  A    between atoms: N_7  and  C_8
REMARK    6  A    between atoms: C_8  and  C_10
REMARK    7  A    between atoms: C_8  and  C_16
REMARK    8  A    between atoms: N_18  and  C_19
REMARK                            x       y       z     vdW  Elec       q    Type
REMARK                         _______ _______ _______ _____ _____    ______ ____
ROOT
ATOM      1  C   UNL     1      -2.550  -4.184  -0.248  0.00  0.00    +0.190 C 
ENDROOT
BRANCH   1   2
ATOM      2  C   UNL     1      -2.466  -4.558  -1.705  0.00  0.00    -0.018 A 
ATOM      3  C   UNL     1      -3.183  -3.842  -2.645  0.00  0.00    +0.006 A 
ATOM      4  C   UNL     1      -3.106  -4.184  -3.982  0.00  0.00    +0.000 A 
ATOM      5  C   UNL     1      -2.311  -5.243  -4.379  0.00  0.00    +0.000 A 
ATOM      6  C   UNL     1      -1.593  -5.959  -3.440  0.00  0.00    +0.000 A 
ATOM      7  C   UNL     1      -1.666  -5.613  -2.103  0.00  0.00    +0.006 A 
ENDBRANCH   1   2
BRANCH   1  10
ATOM      8  C   UNL     1      -1.406  -2.038  -0.094  0.00  0.00    +0.214 C 
ATOM      9  O   UNL     1      -0.350  -2.628  -0.180  0.00  0.00    -0.276 OA
ATOM     10  N   UNL     1      -2.566  -2.725  -0.118  0.00  0.00    -0.300 N 
ATOM     11  H   UNL     1      -3.410  -2.253  -0.049  0.00  0.00    +0.150 HD
BRANCH   8  12
ATOM     12  C   UNL     1      -1.422  -0.537   0.040  0.00  0.00    +0.098 C 
BRANCH  12  14
ATOM     13  C   UNL     1      -0.004   1.520   0.051  0.00  0.00    +0.008 C 
ATOM     14  C   UNL     1       0.014  -0.010   0.041  0.00  0.00    -0.008 C 
ATOM     15  C   UNL     1       0.744  -0.519   1.286  0.00  0.00    +0.008 C 
ENDBRANCH  12  14
ENDBRANCH   8  12
ENDBRANCH   1  10
BRANCH   1  16
ATOM     16  C   UNL     1      -3.812  -4.755   0.345  0.00  0.00    +0.242 C 
ATOM     17  O   UNL     1      -4.644  -4.016   0.828  0.00  0.00    -0.273 OA
ATOM     18  N   UNL     1      -4.018  -6.087   0.338  0.00  0.00    -0.283 N 
ATOM     19  H   UNL     1      -3.393  -6.672  -0.119  0.00  0.00    +0.155 HD
BRANCH  18  20
ATOM     20  C   UNL     1      -5.132  -6.626   0.989  0.00  0.00    +0.043 A 
ATOM     21  C   UNL     1      -5.727  -5.941   2.033  0.00  0.00    +0.024 A 
ATOM     22  C   UNL     1      -6.832  -6.475   2.680  0.00  0.00    +0.004 A 
ATOM     23  C   UNL     1      -7.354  -7.690   2.295  0.00  0.00    +0.026 A 
ATOM     24  C   UNL     1      -6.774  -8.398   1.247  0.00  0.00    +0.048 A 
ATOM     25  C   UNL     1      -5.657  -7.861   0.584  0.00  0.00    +0.021 A 
ATOM     26  C   UNL     1      -5.296  -8.828  -0.454  0.00  0.00    +0.029 A 
ATOM     27  C   UNL     1      -6.173  -9.841  -0.369  0.00  0.00    +0.083 A 
ATOM     28  N   UNL     1      -7.059  -9.605   0.648  0.00  0.00    -0.361 N 
ATOM     29  H   UNL     1      -7.785 -10.195   0.902  0.00  0.00    +0.165 HD
ENDBRANCH  18  20
ENDBRANCH   1  16
TORSDOF 6
