REMARK  Name = ZINC11239835
REMARK  5 active torsions:
REMARK  status: ('A' for Active; 'I' for Inactive)
REMARK    1  A    between atoms: C_3  and  C_9
REMARK    2  A    between atoms: C_9  and  S_10
REMARK    3  A    between atoms: S_10  and  C_11
REMARK    4  A    between atoms: C_14  and  C_17
REMARK    5  A    between atoms: N_15  and  N_16
REMARK                            x       y       z     vdW  Elec       q    Type
REMARK                         _______ _______ _______ _____ _____    ______ ____
ROOT
ATOM      1  C   UNL     1       1.213   1.744  -0.000  0.00  0.00    +0.209 A 
ATOM      2  N   UNL     1      -0.015   1.281   0.009  0.00  0.00    -0.121 NA
ATOM      3  N   UNL     1       0.002  -0.004   0.002  0.00  0.00    -0.123 NA
ATOM      4  C   UNL     1       1.232  -0.435  -0.012  0.00  0.00    +0.255 A 
ATOM      5  N   UNL     1       2.047   0.663  -0.014  0.00  0.00    -0.220 N 
ENDROOT
BRANCH   4   6
ATOM      6  C   UNL     1       1.673  -1.875  -0.024  0.00  0.00    +0.454 C 
ATOM      7  F   UNL     1       0.589  -2.693  -0.360  0.00  0.00    -0.163 F 
ATOM      8  F   UNL     1       2.692  -2.043  -0.968  0.00  0.00    -0.163 F 
ATOM      9  F   UNL     1       2.149  -2.228   1.243  0.00  0.00    -0.163 F 
ENDBRANCH   4   6
BRANCH   5  10
ATOM     10  N   UNL     1       3.413   0.675  -0.027  0.00  0.00    -0.295 N 
ATOM     11  H   UNL     1       3.766   0.684  -0.973  0.00  0.00    +0.163 HD
ATOM     12  H   UNL     1       3.773   1.457   0.500  0.00  0.00    +0.163 HD
ENDBRANCH   5  10
BRANCH   1  13
ATOM     13  S   UNL     1       1.694   3.439   0.004  0.00  0.00    -0.080 S 
BRANCH  13  14
ATOM     14  C   UNL     1       0.066   4.228   0.024  0.00  0.00    +0.113 C 
BRANCH  14  17
ATOM     15  C   UNL     1       0.451   7.792  -1.160  0.00  0.00    +0.039 A 
ATOM     16  C   UNL     1       0.298   6.418  -1.164  0.00  0.00    +0.008 A 
ATOM     17  C   UNL     1       0.233   5.726   0.030  0.00  0.00    -0.023 A 
ATOM     18  C   UNL     1       0.316   6.407   1.231  0.00  0.00    +0.025 A 
ATOM     19  C   UNL     1       0.474   7.781   1.237  0.00  0.00    +0.054 A 
ATOM     20  C   UNL     1       0.539   8.475   0.041  0.00  0.00    +0.124 A 
ATOM     21  F   UNL     1       0.690   9.817   0.046  0.00  0.00    -0.205 F 
ATOM     22 BR   UNL     1       0.220   5.459   2.865  0.00  0.00    -0.050 Br
ENDBRANCH  14  17
ENDBRANCH  13  14
ENDBRANCH   1  13
TORSDOF 5
