REMARK  Name = ZINC06193747
REMARK  7 active torsions:
REMARK  status: ('A' for Active; 'I' for Inactive)
REMARK    1  A    between atoms: C_1  and  C_2
REMARK    2  A    between atoms: C_4  and  C_39
REMARK    3  A    between atoms: C_7  and  C_14
REMARK    4  A    between atoms: C_14  and  C_16
REMARK    5  A    between atoms: C_14  and  N_72
REMARK    6  A    between atoms: N_20  and  C_21
REMARK    7  A    between atoms: N_29  and  C_32
REMARK                            x       y       z     vdW  Elec       q    Type
REMARK                         _______ _______ _______ _____ _____    ______ ____
ROOT
ATOM      1  C   UNL     1       4.873   4.287  -0.021  0.00  0.00    +0.039 C 
ENDROOT
BRANCH   1   8
ATOM      2  C   UNL     1      -1.297  -0.767   0.011  0.00  0.00    +0.044 C 
ATOM      3  C   UNL     1       0.002  -0.004   0.002  0.00  0.00    -0.048 A 
ATOM      4  C   UNL     1       1.205  -0.697  -0.013  0.00  0.00    +0.007 A 
ATOM      5  C   UNL     1       2.394  -0.024  -0.021  0.00  0.00    -0.041 A 
ATOM      6  C   UNL     1       2.400   1.375  -0.014  0.00  0.00    +0.002 A 
ATOM      7  C   UNL     1       3.655   2.127  -0.023  0.00  0.00    +0.018 A 
ATOM      8  C   UNL     1       3.599   3.482  -0.014  0.00  0.00    +0.011 A 
ATOM      9  C   UNL     1       2.351   4.141   0.001  0.00  0.00    +0.251 A 
ATOM     10  O   UNL     1       2.323   5.360   0.008  0.00  0.00    -0.268 OA
ATOM     11  N   UNL     1       1.193   3.459   0.009  0.00  0.00    -0.322 N 
ATOM     12  H   UNL     1       0.353   3.944   0.019  0.00  0.00    +0.169 HD
ATOM     13  C   UNL     1       1.182   2.080   0.002  0.00  0.00    +0.050 A 
ATOM     14  C   UNL     1      -0.017   1.374   0.010  0.00  0.00    +0.029 A 
ATOM     15  C   UNL     1       3.695  -0.785  -0.038  0.00  0.00    +0.044 C 
ENDBRANCH   1   8
BRANCH   1  21
ATOM     16  C   UNL     1       4.649   4.518  -2.422  0.00  0.00    -0.058 C 
ATOM     17  C   UNL     1       4.554   5.536  -3.561  0.00  0.00    +0.086 C 
ATOM     18  N   UNL     1       5.784   6.339  -3.600  0.00  0.00    -0.333 N 
ATOM     19  C   UNL     1       5.987   7.048  -2.328  0.00  0.00    +0.086 C 
ATOM     20  C   UNL     1       6.082   6.030  -1.190  0.00  0.00    -0.058 C 
ATOM     21  N   UNL     1       4.831   5.244  -1.147  0.00  0.00    +0.391 N 
ATOM     22  H   UNL     1       4.039   5.884  -1.012  0.00  0.00    -0.080 HD
BRANCH  18  23
ATOM     23  C   UNL     1       5.764   7.234  -4.674  0.00  0.00    +0.030 A 
ATOM     24  C   UNL     1       5.920   8.595  -4.449  0.00  0.00    +0.026 A 
ATOM     25  C   UNL     1       5.905   9.476  -5.513  0.00  0.00    +0.040 A 
ATOM     26  C   UNL     1       5.725   9.004  -6.802  0.00  0.00    +0.124 A 
ATOM     27  C   UNL     1       5.564   7.647  -7.028  0.00  0.00    +0.040 A 
ATOM     28  C   UNL     1       5.583   6.762  -5.968  0.00  0.00    +0.026 A 
ATOM     29  F   UNL     1       5.705   9.868  -7.840  0.00  0.00    -0.205 F 
ENDBRANCH  18  23
ENDBRANCH   1  21
BRANCH   1  30
ATOM     30  C   UNL     1       4.989   5.055   1.270  0.00  0.00    +0.143 A 
ATOM     31  N   UNL     1       4.322   6.133   1.601  0.00  0.00    -0.115 NA
ATOM     32  N   UNL     1       4.700   6.488   2.781  0.00  0.00    -0.023 NA
ATOM     33  N   UNL     1       5.597   5.669   3.207  0.00  0.00    -0.044 NA
ATOM     34  N   UNL     1       5.803   4.771   2.304  0.00  0.00    -0.227 N 
BRANCH  34  35
ATOM     35  C   UNL     1       6.745   3.653   2.388  0.00  0.00    +0.111 C 
ATOM     36  C   UNL     1       6.381   2.768   3.581  0.00  0.00    +0.027 C 
ATOM     37  C   UNL     1       7.365   1.599   3.669  0.00  0.00    +0.002 C 
ATOM     38  C   UNL     1       8.784   2.141   3.850  0.00  0.00    +0.000 C 
ATOM     39  C   UNL     1       9.149   3.026   2.656  0.00  0.00    +0.002 C 
ATOM     40  C   UNL     1       8.165   4.194   2.569  0.00  0.00    +0.027 C 
ENDBRANCH  34  35
ENDBRANCH   1  30
TORSDOF 5
