REMARK  Name = ZINC08456501
REMARK  3 active torsions:
REMARK  status: ('A' for Active; 'I' for Inactive)
REMARK    1  A    between atoms: C_11  and  C_13
REMARK    2  A    between atoms: C_13  and  S_14
REMARK    3  A    between atoms: S_14  and  C_15
REMARK                            x       y       z     vdW  Elec       q    Type
REMARK                         _______ _______ _______ _____ _____    ______ ____
ROOT
ATOM      1  C   UNL     1      -2.488   1.381  -0.092  0.00  0.00    +0.173 C 
ENDROOT
BRANCH   1  12
ATOM      2  C   UNL     1       3.577   3.573  -0.098  0.00  0.00    +0.000 A 
ATOM      3  C   UNL     1       2.383   4.224  -0.350  0.00  0.00    +0.002 A 
ATOM      4  C   UNL     1       1.195   3.522  -0.317  0.00  0.00    +0.024 A 
ATOM      5  C   UNL     1       1.200   2.161  -0.032  0.00  0.00    +0.039 A 
ATOM      6  C   UNL     1       2.396   1.508   0.216  0.00  0.00    -0.026 A 
ATOM      7  C   UNL     1       3.583   2.221   0.183  0.00  0.00    +0.005 A 
ATOM      8  C   UNL     1       2.440   0.034   0.523  0.00  0.00    +0.038 C 
ATOM      9  C   UNL     1       1.074  -0.453   1.006  0.00  0.00    +0.024 C 
ATOM     10  C   UNL     1       0.004  -0.003   0.003  0.00  0.00    +0.114 C 
ATOM     11  N   UNL     1      -0.017   1.466  -0.001  0.00  0.00    -0.270 N 
ATOM     12  C   UNL     1      -1.188   2.135   0.019  0.00  0.00    +0.230 C 
ATOM     13  O   UNL     1      -1.194   3.342   0.127  0.00  0.00    -0.274 OA
ENDBRANCH   1  12
BRANCH   1  14
ATOM     14  S   UNL     1      -3.860   2.557  -0.199  0.00  0.00    -0.078 S 
BRANCH  14  15
ATOM     15  C   UNL     1      -5.215   1.437  -0.317  0.00  0.00    +0.170 A 
ATOM     16  N   UNL     1      -6.485   1.925  -0.414  0.00  0.00    -0.301 N 
ATOM     17  H   UNL     1      -6.632   2.915  -0.412  0.00  0.00    +0.171 HD
ATOM     18  C   UNL     1      -7.545   1.101  -0.511  0.00  0.00    +0.260 A 
ATOM     19  O   UNL     1      -8.673   1.553  -0.601  0.00  0.00    -0.267 OA
ATOM     20  C   UNL     1      -7.330  -0.313  -0.501  0.00  0.00    +0.072 A 
ATOM     21  C   UNL     1      -8.300  -1.391  -0.586  0.00  0.00    +0.023 A 
ATOM     22  C   UNL     1      -7.871  -2.662  -0.558  0.00  0.00    +0.048 A 
ATOM     23  S   UNL     1      -6.102  -2.499  -0.411  0.00  0.00    -0.077 S 
ATOM     24  C   UNL     1      -5.989  -0.728  -0.393  0.00  0.00    +0.116 A 
ATOM     25  N   UNL     1      -4.988   0.139  -0.306  0.00  0.00    -0.216 NA
ENDBRANCH  14  15
ENDBRANCH   1  14
TORSDOF 3
