REMARK  Name = ZINC12293669
REMARK  10 active torsions:
REMARK  status: ('A' for Active; 'I' for Inactive)
REMARK    1  A    between atoms: C_1  and  C_2
REMARK    2  A    between atoms: C_2  and  O_3
REMARK    3  A    between atoms: O_3  and  C_4
REMARK    4  A    between atoms: C_7  and  C_10
REMARK    5  A    between atoms: C_10  and  C_12
REMARK    6  A    between atoms: C_10  and  O_31
REMARK    7  A    between atoms: C_12  and  N_61
REMARK    8  A    between atoms: C_19  and  O_30
REMARK    9  A    between atoms: C_23  and  O_28
REMARK   10  A    between atoms: O_28  and  C_29
REMARK                            x       y       z     vdW  Elec       q    Type
REMARK                         _______ _______ _______ _____ _____    ______ ____
ROOT
ATOM      1  C   UNL     1       2.458  -4.674   0.522  0.00  0.00    -0.075 C 
ATOM      2  C   UNL     1       2.434  -6.205   0.525  0.00  0.00    +0.029 C 
ATOM      3  C   UNL     1       2.757  -6.714   1.930  0.00  0.00    +0.110 C 
ATOM      4  C   UNL     1       1.754  -6.129   2.927  0.00  0.00    +0.029 C 
ATOM      5  C   UNL     1       1.800  -4.601   2.853  0.00  0.00    -0.075 C 
ATOM      6  C   UNL     1       2.668  -8.244   1.953  0.00  0.00    +0.084 C 
ATOM      7  C   UNL     1       3.598  -8.795   0.870  0.00  0.00    +0.152 C 
ATOM      8  C   UNL     1       4.949  -8.133   0.977  0.00  0.00    +0.026 A 
ATOM      9  C   UNL     1       6.034  -8.733   0.360  0.00  0.00    +0.055 A 
ATOM     10  C   UNL     1       7.288  -8.149   0.430  0.00  0.00    +0.121 A 
ATOM     11  C   UNL     1       7.458  -6.959   1.122  0.00  0.00    +0.049 A 
ATOM     12  C   UNL     1       6.378  -6.362   1.738  0.00  0.00    +0.049 A 
ATOM     13  C   UNL     1       5.118  -6.947   1.669  0.00  0.00    +0.127 A 
ATOM     14  O   UNL     1       4.081  -6.329   2.294  0.00  0.00    -0.485 OA
ATOM     15  N   UNL     1       1.449  -4.177   1.481  0.00  0.00    +0.382 N 
ATOM     16  H   UNL     1       0.533  -4.570   1.234  0.00  0.00    -0.082 HD
ENDROOT
BRANCH  10  17
ATOM     17  O   UNL     1       8.351  -8.741  -0.178  0.00  0.00    -0.495 OA
ATOM     18  C   UNL     1       9.614  -8.083  -0.064  0.00  0.00    +0.277 C 
ENDBRANCH  10  17
BRANCH   7  19
ATOM     19  O   UNL     1       3.745 -10.206   1.043  0.00  0.00    -0.387 OA
ATOM     20  H   UNL     1       4.321 -10.625   0.389  0.00  0.00    +0.210 HD
ENDBRANCH   7  19
BRANCH  15  21
ATOM     21  C   UNL     1       1.371  -2.703   1.412  0.00  0.00    -0.042 C 
BRANCH  21  22
ATOM     22  C   UNL     1       0.170  -2.234   2.236  0.00  0.00    +0.128 C 
BRANCH  22  26
ATOM     23  C   UNL     1      -0.159   2.019   1.979  0.00  0.00    +0.121 A 
ATOM     24  C   UNL     1       0.514   1.437   3.044  0.00  0.00    +0.046 A 
ATOM     25  C   UNL     1       0.619   0.062   3.125  0.00  0.00    +0.009 A 
ATOM     26  C   UNL     1       0.054  -0.734   2.146  0.00  0.00    -0.021 A 
ATOM     27  C   UNL     1      -0.617  -0.157   1.084  0.00  0.00    +0.009 A 
ATOM     28  C   UNL     1      -0.724   1.218   0.998  0.00  0.00    +0.046 A 
BRANCH  23  29
ATOM     29  O   UNL     1      -0.264   3.372   1.898  0.00  0.00    -0.492 OA
BRANCH  29  31
ATOM     30  C   UNL     1      -0.984   5.429   0.854  0.00  0.00    +0.048 C 
ATOM     31  C   UNL     1      -0.970   3.901   0.774  0.00  0.00    +0.225 C 
ENDBRANCH  29  31
ENDBRANCH  23  29
ENDBRANCH  22  26
BRANCH  22  32
ATOM     32  O   UNL     1      -1.021  -2.836   1.727  0.00  0.00    -0.389 OA
ATOM     33  H   UNL     1      -1.207  -2.619   0.803  0.00  0.00    +0.210 HD
ENDBRANCH  22  32
ENDBRANCH  21  22
ENDBRANCH  15  21
TORSDOF 8
