REMARK  Name = ZINC40377373
REMARK  8 active torsions:
REMARK  status: ('A' for Active; 'I' for Inactive)
REMARK    1  A    between atoms: C_1  and  C_2
REMARK    2  A    between atoms: C_2  and  C_3
REMARK    3  A    between atoms: C_3  and  C_4
REMARK    4  A    between atoms: C_3  and  C_5
REMARK    5  A    between atoms: C_3  and  N_9
REMARK    6  A    between atoms: N_6  and  O_7
REMARK    7  A    between atoms: N_9  and  S_10
REMARK    8  A    between atoms: S_10  and  C_13
REMARK                            x       y       z     vdW  Elec       q    Type
REMARK                         _______ _______ _______ _____ _____    ______ ____
ROOT
ATOM      1  N   UNL     1      -2.095  -0.289  -1.156  0.00  0.00    -0.177 NA
ATOM      2  H   UNL     1      -2.779   0.381  -1.002  0.00  0.00    +0.149 HD
ENDROOT
BRANCH   1   3
ATOM      3  S   UNL     1      -1.728  -0.758  -2.701  0.00  0.00    +0.060 S 
ATOM      4  O   UNL     1      -1.713  -2.179  -2.702  0.00  0.00    -0.153 OA
ATOM      5  O   UNL     1      -2.568  -0.004  -3.565  0.00  0.00    -0.153 OA
BRANCH   3   6
ATOM      6  C   UNL     1      -0.076  -0.237  -3.025  0.00  0.00    +0.120 A 
ATOM      7  C   UNL     1       0.910  -1.176  -3.263  0.00  0.00    +0.045 A 
ATOM      8  C   UNL     1       2.207  -0.767  -3.517  0.00  0.00    +0.020 A 
ATOM      9  C   UNL     1       2.517   0.581  -3.533  0.00  0.00    +0.016 A 
ATOM     10  C   UNL     1       1.531   1.520  -3.295  0.00  0.00    +0.018 A 
ATOM     11  C   UNL     1       0.232   1.111  -3.046  0.00  0.00    +0.044 A 
ATOM     12 BR   UNL     1      -1.119   2.395  -2.728  0.00  0.00    -0.048 Br
ATOM     13 BR   UNL     1       3.557  -2.051  -3.842  0.00  0.00    -0.050 Br
ENDBRANCH   3   6
ENDBRANCH   1   3
BRANCH   1  14
ATOM     14  C   UNL     1      -1.388  -0.888  -0.021  0.00  0.00    +0.095 C 
ATOM     15  C   UNL     1      -1.536  -2.410  -0.073  0.00  0.00    +0.037 C 
BRANCH  14  16
ATOM     16  C   UNL     1      -1.974  -0.369   1.266  0.00  0.00    +0.153 C 
ATOM     17  N   UNL     1      -2.465  -1.195   2.131  0.00  0.00    -0.075 NA
ATOM     18  N   UNL     1      -1.988   0.984   1.521  0.00  0.00    -0.342 N 
ATOM     19  H   UNL     1      -1.690   1.608   0.842  0.00  0.00    +0.144 HD
ATOM     20  H   UNL     1      -2.295   1.312   2.381  0.00  0.00    +0.144 HD
BRANCH  17  21
ATOM     21  O   UNL     1      -3.016  -0.708   3.341  0.00  0.00    -0.408 OA
ATOM     22  H   UNL     1      -3.358  -1.399   3.924  0.00  0.00    +0.328 HD
ENDBRANCH  17  21
ENDBRANCH  14  16
BRANCH  14  24
ATOM     23  C   UNL     1       0.807  -1.020   1.165  0.00  0.00    +0.006 C 
ATOM     24  C   UNL     1       0.095  -0.517  -0.092  0.00  0.00    +0.028 C 
ENDBRANCH  14  24
ENDBRANCH   1  14
TORSDOF 6
