REMARK  Name = ZINC04825570
REMARK  8 active torsions:
REMARK  status: ('A' for Active; 'I' for Inactive)
REMARK    1  A    between atoms: C_1  and  C_2
REMARK    2  A    between atoms: C_2  and  C_3
REMARK    3  A    between atoms: C_2  and  O_4
REMARK    4  A    between atoms: O_4  and  C_5
REMARK    5  A    between atoms: C_5  and  C_7
REMARK    6  A    between atoms: C_8  and  N_27
REMARK    7  A    between atoms: C_23  and  C_25
REMARK    8  A    between atoms: C_23  and  C_26
REMARK                            x       y       z     vdW  Elec       q    Type
REMARK                         _______ _______ _______ _____ _____    ______ ____
ROOT
ATOM      1  C   UNL     1       1.070  -2.049  -0.728  0.00  0.00    +0.119 A 
ATOM      2  C   UNL     1       2.108  -2.798  -1.244  0.00  0.00    +0.055 A 
ATOM      3  C   UNL     1       2.029  -4.246  -1.145  0.00  0.00    +0.031 A 
ATOM      4  C   UNL     1       2.962  -5.215  -1.601  0.00  0.00    -0.025 A 
ATOM      5  C   UNL     1       2.708  -6.534  -1.407  0.00  0.00    +0.020 A 
ATOM      6  C   UNL     1       1.525  -6.931  -0.767  0.00  0.00    +0.105 A 
ATOM      7  C   UNL     1       0.867  -4.742  -0.513  0.00  0.00    +0.089 A 
ATOM      8  S   UNL     1      -0.046  -3.281  -0.084  0.00  0.00    -0.062 S 
ATOM      9  N   UNL     1       1.268  -8.280  -0.573  0.00  0.00    -0.316 N 
ATOM     10  C   UNL     1       0.121  -8.719  -1.378  0.00  0.00    +0.106 C 
ATOM     11  C   UNL     1      -0.042 -10.235  -1.252  0.00  0.00    +0.019 C 
ATOM     12  C   UNL     1      -0.259 -10.600   0.219  0.00  0.00    +0.003 C 
ATOM     13  C   UNL     1       0.926 -10.089   1.043  0.00  0.00    +0.019 C 
ATOM     14  C   UNL     1       1.062  -8.577   0.851  0.00  0.00    +0.106 C 
ATOM     15  C   UNL     1       3.674  -7.598  -1.861  0.00  0.00    +0.199 C 
ATOM     16  O   UNL     1       4.603  -7.054  -2.798  0.00  0.00    -0.369 OA
ATOM     17  C   UNL     1       5.245  -5.863  -2.329  0.00  0.00    +0.068 C 
ATOM     18  C   UNL     1       4.209  -4.737  -2.296  0.00  0.00    +0.070 C 
ATOM     19  C   UNL     1       5.799  -6.096  -0.922  0.00  0.00    +0.041 C 
ATOM     20  C   UNL     1       6.386  -5.485  -3.276  0.00  0.00    +0.041 C 
ATOM     21  N   UNL     1       0.588  -6.053  -0.313  0.00  0.00    -0.337 N 
ATOM     22  H   UNL     1      -0.274  -6.364   0.151  0.00  0.00    +0.168 HD
ENDROOT
BRANCH   2  23
ATOM     23  N   UNL     1       3.199  -2.185  -1.842  0.00  0.00    -0.356 N 
ATOM     24  H   UNL     1       3.450  -1.284  -1.584  0.00  0.00    +0.142 HD
ATOM     25  H   UNL     1       3.710  -2.657  -2.517  0.00  0.00    +0.142 HD
ENDBRANCH   2  23
BRANCH   1  26
ATOM     26  C   UNL     1       0.929  -0.644  -0.709  0.00  0.00    +0.348 C 
ATOM     27  O   UNL     1       1.795   0.062  -1.192  0.00  0.00    -0.244 OA
BRANCH  26  28
ATOM     28  O   UNL     1      -0.167  -0.083  -0.154  0.00  0.00    -0.458 OA
BRANCH  28  30
ATOM     29  C   UNL     1      -0.943   1.803  -1.451  0.00  0.00    +0.052 C 
ATOM     30  C   UNL     1      -0.244   1.344  -0.170  0.00  0.00    +0.171 C 
ATOM     31  C   UNL     1      -1.040   1.825   1.045  0.00  0.00    +0.052 C 
ENDBRANCH  28  30
ENDBRANCH  26  28
ENDBRANCH   1  26
TORSDOF 4
