REMARK  Name = ZINC36804294
REMARK  4 active torsions:
REMARK  status: ('A' for Active; 'I' for Inactive)
REMARK    1  A    between atoms: C_1  and  N_2
REMARK    2  A    between atoms: C_6  and  C_7
REMARK    3  A    between atoms: C_7  and  O_8
REMARK    4  A    between atoms: O_8  and  C_9
REMARK                            x       y       z     vdW  Elec       q    Type
REMARK                         _______ _______ _______ _____ _____    ______ ____
ROOT
ATOM      1  C   UNL     1       0.031  -0.355   2.522  0.00  0.00    +0.303 C 
ENDROOT
BRANCH   1   7
ATOM      2  C   UNL     1      -0.018   1.461   0.010  0.00  0.00    +0.151 C 
ATOM      3  N   UNL     1       0.002  -0.004   0.002  0.00  0.00    -0.319 N 
ATOM      4  C   UNL     1       0.009  -0.810  -1.104  0.00  0.00    +0.129 A 
ATOM      5  C   UNL     1       0.028  -2.082  -0.659  0.00  0.00    +0.151 A 
ATOM      6  N   UNL     1       0.033  -2.053   0.682  0.00  0.00    -0.236 NA
ATOM      7  C   UNL     1       0.023  -0.812   1.085  0.00  0.00    +0.148 A 
ATOM      8 CL   UNL     1      -0.006  -0.294  -2.761  0.00  0.00    -0.062 Cl
ENDBRANCH   1   7
BRANCH   1   9
ATOM      9  O   UNL     1      -1.314  -0.229   2.988  0.00  0.00    -0.484 OA
BRANCH   9  10
ATOM     10  C   UNL     1      -1.485   0.177   4.274  0.00  0.00    +0.121 A 
ATOM     11  C   UNL     1      -0.381   0.454   5.068  0.00  0.00    +0.047 A 
ATOM     12  C   UNL     1      -0.558   0.867   6.374  0.00  0.00    +0.019 A 
ATOM     13  C   UNL     1      -1.833   1.004   6.891  0.00  0.00    +0.018 A 
ATOM     14  C   UNL     1      -2.935   0.728   6.102  0.00  0.00    +0.019 A 
ATOM     15  C   UNL     1      -2.764   0.321   4.793  0.00  0.00    +0.047 A 
ATOM     16 BR   UNL     1      -2.072   1.569   8.680  0.00  0.00    -0.050 Br
ENDBRANCH   9  10
ENDBRANCH   1   9
TORSDOF 3
