REMARK  Name = ZINC24947918
REMARK  9 active torsions:
REMARK  status: ('A' for Active; 'I' for Inactive)
REMARK    1  A    between atoms: C_1  and  C_2
REMARK    2  A    between atoms: C_5  and  S_7
REMARK    3  A    between atoms: S_7  and  N_10
REMARK    4  A    between atoms: N_13  and  C_16
REMARK    5  A    between atoms: C_16  and  C_18
REMARK    6  A    between atoms: C_16  and  C_19
REMARK    7  A    between atoms: N_21  and  C_22
REMARK    8  A    between atoms: C_22  and  C_24
REMARK    9  A    between atoms: C_22  and  C_25
REMARK                            x       y       z     vdW  Elec       q    Type
REMARK                         _______ _______ _______ _____ _____    ______ ____
ROOT
ATOM      1  N   UNL     1       3.653  -2.318  -2.186  0.00  0.00    -0.180 NA
ATOM      2  C   UNL     1       2.394  -3.076  -2.234  0.00  0.00    +0.091 C 
ATOM      3  C   UNL     1       1.516  -2.483  -3.348  0.00  0.00    -0.060 C 
ATOM      4  N   UNL     1       2.276  -2.463  -4.604  0.00  0.00    +0.389 N 
ATOM      5  C   UNL     1       3.451  -1.587  -4.503  0.00  0.00    -0.060 C 
ATOM      6  C   UNL     1       4.404  -2.137  -3.437  0.00  0.00    +0.091 C 
ATOM      7  H   UNL     1       2.637  -3.485  -4.793  0.00  0.00    -0.081 HD
ENDROOT
BRANCH   1   8
ATOM      8  S   UNL     1       4.213  -1.689  -0.760  0.00  0.00    +0.067 S 
ATOM      9  O   UNL     1       5.619  -1.542  -0.906  0.00  0.00    -0.152 OA
ATOM     10  O   UNL     1       3.632  -2.463   0.281  0.00  0.00    -0.152 OA
BRANCH   8  15
ATOM     11  C   UNL     1       2.801   4.056  -0.735  0.00  0.00    +0.051 C 
ATOM     12  C   UNL     1       2.923   2.559  -0.609  0.00  0.00    -0.011 A 
ATOM     13  C   UNL     1       2.067   1.678  -0.035  0.00  0.00    +0.013 A 
ATOM     14  C   UNL     1       2.388   0.334  -0.036  0.00  0.00    +0.036 A 
ATOM     15  C   UNL     1       3.550  -0.064  -0.610  0.00  0.00    +0.143 A 
ATOM     16  S   UNL     1       4.232   1.486  -1.176  0.00  0.00    -0.074 S 
ENDBRANCH   8  15
ENDBRANCH   1   8
BRANCH   4  17
ATOM     17  C   UNL     1       1.421  -2.069  -5.731  0.00  0.00    +0.016 C 
ATOM     18  C   UNL     1       0.138  -2.903  -5.714  0.00  0.00    -0.004 C 
BRANCH  17  19
ATOM     19  C   UNL     1       1.071  -0.608  -5.609  0.00  0.00    +0.200 C 
ATOM     20  O   UNL     1       1.027  -0.085  -4.516  0.00  0.00    -0.278 OA
ATOM     21  N   UNL     1       0.807   0.117  -6.714  0.00  0.00    -0.310 N 
ATOM     22  H   UNL     1       0.848  -0.358  -7.706  0.00  0.00    +0.149 HD
BRANCH  21  23
ATOM     23  C   UNL     1       0.468   1.537  -6.595  0.00  0.00    +0.100 C 
ATOM     24  C   UNL     1       1.752   2.365  -6.537  0.00  0.00    +0.033 C 
BRANCH  23  25
ATOM     25  C   UNL     1      -0.348   1.960  -7.790  0.00  0.00    -0.027 A 
ATOM     26  C   UNL     1      -0.024   1.492  -9.049  0.00  0.00    +0.005 A 
ATOM     27  C   UNL     1      -0.775   1.877 -10.144  0.00  0.00    +0.000 A 
ATOM     28  C   UNL     1      -1.845   2.736  -9.981  0.00  0.00    +0.000 A 
ATOM     29  C   UNL     1      -2.167   3.207  -8.722  0.00  0.00    +0.000 A 
ATOM     30  C   UNL     1      -1.418   2.820  -7.626  0.00  0.00    +0.005 A 
ENDBRANCH  23  25
ENDBRANCH  21  23
ENDBRANCH  17  19
ENDBRANCH   4  17
TORSDOF 6
