REMARK  Name = ZINC12497763
REMARK  10 active torsions:
REMARK  status: ('A' for Active; 'I' for Inactive)
REMARK    1  A    between atoms: C_1  and  C_2
REMARK    2  A    between atoms: C_2  and  O_3
REMARK    3  A    between atoms: O_3  and  C_4
REMARK    4  A    between atoms: C_7  and  N_10
REMARK    5  A    between atoms: C_15  and  C_32
REMARK    6  A    between atoms: C_17  and  C_22
REMARK    7  A    between atoms: C_17  and  C_28
REMARK    8  A    between atoms: C_28  and  O_30
REMARK    9  A    between atoms: O_30  and  C_31
REMARK   10  A    between atoms: C_37  and  C_38
REMARK                            x       y       z     vdW  Elec       q    Type
REMARK                         _______ _______ _______ _____ _____    ______ ____
ROOT
ATOM      1  N   UNL     1      -4.182  -3.275  -0.150  0.00  0.00    -0.210 N 
ATOM      2  C   UNL     1      -4.509  -4.592   0.012  0.00  0.00    +0.229 C 
ATOM      3  O   UNL     1      -3.798  -5.467   0.457  0.00  0.00    -0.275 OA
ATOM      4  C   UNL     1      -5.915  -4.740  -0.468  0.00  0.00    +0.078 C 
ATOM      5  C   UNL     1      -6.942  -5.543   0.319  0.00  0.00    -0.026 C 
ATOM      6  C   UNL     1      -7.869  -3.374  -0.223  0.00  0.00    +0.070 C 
ATOM      7  C   UNL     1      -6.415  -3.306  -0.061  0.00  0.00    +0.090 C 
ATOM      8  C   UNL     1      -5.278  -2.477  -0.363  0.00  0.00    +0.229 C 
ATOM      9  O   UNL     1      -5.288  -1.321  -0.729  0.00  0.00    -0.275 OA
ATOM     10  N   UNL     1      -8.210  -4.795   0.080  0.00  0.00    +0.398 N 
ATOM     11  H   UNL     1      -8.802  -4.839   0.918  0.00  0.00    -0.083 HD
ATOM     12  H   UNL     1      -8.712  -5.208  -0.715  0.00  0.00    -0.083 HD
ENDROOT
BRANCH   5  13
ATOM     13  C   UNL     1      -6.597  -5.555   1.786  0.00  0.00    -0.058 A 
ATOM     14  C   UNL     1      -5.660  -4.668   2.282  0.00  0.00    +0.002 A 
ATOM     15  C   UNL     1      -5.343  -4.678   3.627  0.00  0.00    +0.000 A 
ATOM     16  C   UNL     1      -5.963  -5.576   4.476  0.00  0.00    +0.000 A 
ATOM     17  C   UNL     1      -6.899  -6.464   3.980  0.00  0.00    +0.003 A 
ATOM     18  C   UNL     1      -7.220  -6.449   2.635  0.00  0.00    -0.049 A 
ATOM     19  C   UNL     1      -8.246  -7.412   2.095  0.00  0.00    +0.044 C 
ENDBRANCH   5  13
BRANCH   1  23
ATOM     20  C   UNL     1      -0.271  -1.832   0.005  0.00  0.00    +0.121 A 
ATOM     21  C   UNL     1      -1.325  -0.957  -0.215  0.00  0.00    +0.047 A 
ATOM     22  C   UNL     1      -2.619  -1.435  -0.272  0.00  0.00    +0.027 A 
ATOM     23  C   UNL     1      -2.866  -2.790  -0.098  0.00  0.00    +0.044 A 
ATOM     24  C   UNL     1      -1.812  -3.664   0.127  0.00  0.00    +0.027 A 
ATOM     25  C   UNL     1      -0.518  -3.186   0.178  0.00  0.00    +0.047 A 
BRANCH  20  26
ATOM     26  O   UNL     1       1.004  -1.361   0.055  0.00  0.00    -0.492 OA
BRANCH  26  28
ATOM     27  C   UNL     1       2.674   0.383  -0.042  0.00  0.00    +0.048 C 
ATOM     28  C   UNL     1       1.184   0.044  -0.132  0.00  0.00    +0.225 C 
ENDBRANCH  26  28
ENDBRANCH  20  26
ENDBRANCH   1  23
BRANCH   6  29
ATOM     29  C   UNL     1      -8.549  -2.447   0.752  0.00  0.00    -0.047 A 
ATOM     30  C   UNL     1      -7.938  -1.263   1.120  0.00  0.00    +0.003 A 
ATOM     31  C   UNL     1      -8.564  -0.410   2.010  0.00  0.00    +0.000 A 
ATOM     32  C   UNL     1      -9.796  -0.747   2.540  0.00  0.00    +0.000 A 
ATOM     33  C   UNL     1     -10.404  -1.934   2.176  0.00  0.00    +0.000 A 
ATOM     34  C   UNL     1      -9.780  -2.784   1.282  0.00  0.00    +0.003 A 
ENDBRANCH   6  29
BRANCH   6  35
ATOM     35  C   UNL     1      -8.260  -3.026  -1.636  0.00  0.00    +0.301 C 
ATOM     36  O   UNL     1      -7.564  -2.286  -2.290  0.00  0.00    -0.252 OA
BRANCH  35  37
ATOM     37  O   UNL     1      -9.381  -3.538  -2.168  0.00  0.00    -0.469 OA
ATOM     38  C   UNL     1      -9.694  -3.159  -3.534  0.00  0.00    +0.280 C 
ENDBRANCH  35  37
ENDBRANCH   6  35
TORSDOF 7
