REMARK  Name = ZINC64392955
REMARK  8 active torsions:
REMARK  status: ('A' for Active; 'I' for Inactive)
REMARK    1  A    between atoms: C_1  and  C_2
REMARK    2  A    between atoms: C_2  and  O_3
REMARK    3  A    between atoms: O_3  and  C_4
REMARK    4  A    between atoms: C_4  and  C_6
REMARK    5  A    between atoms: C_8  and  N_19
REMARK    6  A    between atoms: N_19  and  C_20
REMARK    7  A    between atoms: C_20  and  C_21
REMARK    8  A    between atoms: C_26  and  C_27
REMARK                            x       y       z     vdW  Elec       q    Type
REMARK                         _______ _______ _______ _____ _____    ______ ____
ROOT
ATOM      1  C   UNL     1       1.441  -2.470  -3.109  0.00  0.00    +0.228 C 
ATOM      2  C   UNL     1       1.443  -3.917  -2.652  0.00  0.00    +0.036 C 
ATOM      3  C   UNL     1       2.687  -4.560  -2.583  0.00  0.00    +0.014 A 
ATOM      4  C   UNL     1       2.777  -5.903  -2.168  0.00  0.00    +0.013 A 
ATOM      5  C   UNL     1       3.994  -6.510  -2.109  0.00  0.00    +0.021 A 
ATOM      6  C   UNL     1       5.159  -5.829  -2.450  0.00  0.00    +0.043 A 
ATOM      7  C   UNL     1       5.131  -4.517  -2.862  0.00  0.00    +0.044 A 
ATOM      8  C   UNL     1       3.906  -3.836  -2.944  0.00  0.00    +0.043 A 
ATOM      9  N   UNL     1       3.881  -2.557  -3.346  0.00  0.00    -0.284 N 
ATOM     10  C   UNL     1       2.777  -1.849  -3.450  0.00  0.00    +0.237 C 
ATOM     11  O   UNL     1       2.831  -0.691  -3.822  0.00  0.00    -0.274 OA
ATOM     12 CL   UNL     1       6.683  -6.655  -2.354  0.00  0.00    -0.083 Cl
ATOM     13  H   UNL     1       4.722  -2.131  -3.572  0.00  0.00    +0.155 HD
ENDROOT
BRANCH   1  14
ATOM     14  C   UNL     1       0.810  -1.642  -2.020  0.00  0.00    +0.325 C 
ATOM     15  O   UNL     1       1.069  -1.868  -0.862  0.00  0.00    -0.250 OA
BRANCH  14  16
ATOM     16  O   UNL     1      -0.040  -0.652  -2.337  0.00  0.00    -0.464 OA
BRANCH  16  18
ATOM     17  C   UNL     1      -1.538   1.168  -1.807  0.00  0.00    +0.048 C 
ATOM     18  C   UNL     1      -0.601   0.092  -1.254  0.00  0.00    +0.229 C 
ENDBRANCH  16  18
ENDBRANCH  14  16
ENDBRANCH   1  14
BRANCH   2  19
ATOM     19  N   UNL     1       0.308  -4.550  -2.328  0.00  0.00    -0.341 N 
ATOM     20  H   UNL     1       0.335  -5.473  -2.029  0.00  0.00    +0.146 HD
BRANCH  19  21
ATOM     21  C   UNL     1      -0.975  -3.849  -2.425  0.00  0.00    +0.137 C 
BRANCH  21  22
ATOM     22  C   UNL     1      -2.098  -4.816  -2.148  0.00  0.00    -0.019 A 
ATOM     23  C   UNL     1      -2.804  -5.374  -3.197  0.00  0.00    +0.006 A 
ATOM     24  C   UNL     1      -3.834  -6.261  -2.943  0.00  0.00    +0.000 A 
ATOM     25  C   UNL     1      -4.157  -6.590  -1.639  0.00  0.00    +0.001 A 
ATOM     26  C   UNL     1      -3.450  -6.033  -0.590  0.00  0.00    +0.013 A 
ATOM     27  C   UNL     1      -2.417  -5.149  -0.845  0.00  0.00    +0.059 A 
BRANCH  27  28
ATOM     28  C   UNL     1      -1.643  -4.545   0.299  0.00  0.00    +0.418 C 
ATOM     29  F   UNL     1      -2.147  -5.031   1.510  0.00  0.00    -0.166 F 
ATOM     30  F   UNL     1      -0.293  -4.893   0.182  0.00  0.00    -0.166 F 
ATOM     31  F   UNL     1      -1.771  -3.153   0.265  0.00  0.00    -0.166 F 
ENDBRANCH  27  28
ENDBRANCH  21  22
ENDBRANCH  19  21
ENDBRANCH   2  19
TORSDOF 7
