REMARK  Name = ZINC35189795
REMARK  11 active torsions:
REMARK  status: ('A' for Active; 'I' for Inactive)
REMARK    1  A    between atoms: C_1  and  C_2
REMARK    2  A    between atoms: C_2  and  C_3
REMARK    3  A    between atoms: C_3  and  N_4
REMARK    4  A    between atoms: C_5  and  C_30
REMARK    5  A    between atoms: C_13  and  C_19
REMARK    6  A    between atoms: N_21  and  C_22
REMARK    7  A    between atoms: C_26  and  S_28
REMARK    8  A    between atoms: S_28  and  C_29
REMARK    9  A    between atoms: N_32  and  C_33
REMARK   10  A    between atoms: C_38  and  C_43
REMARK   11  A    between atoms: C_40  and  C_42
REMARK                            x       y       z     vdW  Elec       q    Type
REMARK                         _______ _______ _______ _____ _____    ______ ____
ROOT
ATOM      1  N   UNL     1       1.365  -2.013  -1.551  0.00  0.00    -0.287 N 
ATOM      2  C   UNL     1       2.335  -2.964  -0.924  0.00  0.00    +0.198 C 
ATOM      3  C   UNL     1       2.012  -4.245  -1.629  0.00  0.00    +0.127 C 
ATOM      4  C   UNL     1       2.464  -4.250  -3.078  0.00  0.00    +0.009 C 
ATOM      5  C   UNL     1       2.120  -5.436  -3.558  0.00  0.00    +0.004 C 
ATOM      6  C   UNL     1       1.395  -6.137  -2.402  0.00  0.00    +0.155 C 
ATOM      7  O   UNL     1       2.125  -5.589  -1.226  0.00  0.00    -0.358 OA
ATOM      8  C   UNL     1       0.021  -5.363  -2.355  0.00  0.00    +0.123 C 
ATOM      9  C   UNL     1       0.437  -4.105  -1.592  0.00  0.00    +0.128 C 
ATOM     10  C   UNL     1       0.283  -2.709  -2.035  0.00  0.00    +0.223 C 
ATOM     11  O   UNL     1      -0.624  -2.260  -2.703  0.00  0.00    -0.275 OA
ENDROOT
BRANCH   8  12
ATOM     12  C   UNL     1      -0.467  -5.040  -3.743  0.00  0.00    +0.224 C 
ATOM     13  O   UNL     1      -0.616  -3.885  -4.080  0.00  0.00    -0.275 OA
ATOM     14  N   UNL     1      -0.737  -6.036  -4.611  0.00  0.00    -0.285 N 
ATOM     15  H   UNL     1      -0.546  -6.955  -4.369  0.00  0.00    +0.155 HD
BRANCH  14  16
ATOM     16  C   UNL     1      -1.294  -5.742  -5.861  0.00  0.00    +0.034 A 
ATOM     17  C   UNL     1      -0.971  -6.520  -6.966  0.00  0.00    +0.023 A 
ATOM     18  C   UNL     1      -1.520  -6.231  -8.201  0.00  0.00    +0.003 A 
ATOM     19  C   UNL     1      -2.391  -5.169  -8.341  0.00  0.00    +0.015 A 
ATOM     20  C   UNL     1      -2.719  -4.386  -7.240  0.00  0.00    +0.009 A 
ATOM     21  C   UNL     1      -2.174  -4.678  -5.996  0.00  0.00    +0.038 A 
BRANCH  20  22
ATOM     22  S   UNL     1      -3.830  -3.031  -7.420  0.00  0.00    -0.129 S 
ATOM     23  C   UNL     1      -4.270  -3.054  -9.179  0.00  0.00    +0.090 C 
ENDBRANCH  20  22
ENDBRANCH  14  16
ENDBRANCH   8  12
BRANCH   2  24
ATOM     24  C   UNL     1       3.756  -2.542  -1.196  0.00  0.00    +0.237 C 
ATOM     25  O   UNL     1       3.997  -1.771  -2.100  0.00  0.00    -0.274 OA
ATOM     26  N   UNL     1       4.759  -3.022  -0.434  0.00  0.00    -0.311 N 
ATOM     27  H   UNL     1       4.566  -3.639   0.289  0.00  0.00    +0.149 HD
BRANCH  26  28
ATOM     28  C   UNL     1       6.140  -2.611  -0.699  0.00  0.00    +0.076 C 
ATOM     29  C   UNL     1       6.737  -3.504  -1.788  0.00  0.00    +0.022 C 
ATOM     30  C   UNL     1       8.180  -3.075  -2.065  0.00  0.00    +0.002 C 
ATOM     31  C   UNL     1       9.007  -3.211  -0.784  0.00  0.00    +0.003 C 
ATOM     32  C   UNL     1       8.409  -2.319   0.306  0.00  0.00    -0.009 C 
ATOM     33  C   UNL     1       6.967  -2.747   0.582  0.00  0.00    +0.009 C 
ATOM     34  C   UNL     1       6.948  -4.204   1.049  0.00  0.00    +0.009 C 
ATOM     35  C   UNL     1       9.236  -2.455   1.586  0.00  0.00    +0.008 C 
ENDBRANCH  26  28
ENDBRANCH   2  24
BRANCH   1  36
ATOM     36  C   UNL     1       1.538  -0.560  -1.631  0.00  0.00    +0.108 C 
BRANCH  36  38
ATOM     37  C   UNL     1       1.114   1.611  -0.471  0.00  0.00    +0.005 C 
ATOM     38  C   UNL     1       0.933   0.095  -0.388  0.00  0.00    +0.016 C 
ENDBRANCH  36  38
ENDBRANCH   1  36
TORSDOF 7
