REMARK  Name = ZINC06887674
REMARK  9 active torsions:
REMARK  status: ('A' for Active; 'I' for Inactive)
REMARK    1  A    between atoms: C_1  and  C_2
REMARK    2  A    between atoms: C_4  and  C_26
REMARK    3  A    between atoms: C_6  and  N_8
REMARK    4  A    between atoms: N_8  and  S_9
REMARK    5  A    between atoms: S_9  and  C_12
REMARK    6  A    between atoms: C_14  and  C_20
REMARK    7  A    between atoms: C_17  and  O_18
REMARK    8  A    between atoms: O_18  and  C_19
REMARK    9  A    between atoms: C_22  and  C_25
REMARK                            x       y       z     vdW  Elec       q    Type
REMARK                         _______ _______ _______ _____ _____    ______ ____
ROOT
ATOM      1  C   UNL     1       2.233  -0.146  -0.029  0.00  0.00    +0.151 A 
ATOM      2  C   UNL     1       1.187  -1.044  -0.009  0.00  0.00    +0.044 A 
ATOM      3  C   UNL     1      -0.128  -0.578   0.037  0.00  0.00    +0.022 A 
ATOM      4  C   UNL     1      -0.379   0.795   0.062  0.00  0.00    +0.015 A 
ATOM      5  C   UNL     1       0.672   1.686   0.042  0.00  0.00    +0.048 A 
ATOM      6  C   UNL     1       1.980   1.219  -0.003  0.00  0.00    +0.147 A 
ENDROOT
BRANCH   3   7
ATOM      7  C   UNL     1      -1.253  -1.537   0.058  0.00  0.00    +0.168 A 
ATOM      8  C   UNL     1      -2.588  -1.238   0.107  0.00  0.00    +0.075 A 
ATOM      9  C   UNL     1      -3.217  -2.499   0.103  0.00  0.00    +0.081 A 
ATOM     10  N   UNL     1      -2.267  -3.389   0.064  0.00  0.00    -0.083 NA
ATOM     11  O   UNL     1      -1.171  -2.879   0.038  0.00  0.00    -0.354 OA
ATOM     12  C   UNL     1      -4.700  -2.766   0.144  0.00  0.00    +0.069 C 
ENDBRANCH   3   7
BRANCH   1  13
ATOM     13  S   UNL     1       3.894  -0.732  -0.087  0.00  0.00    +0.076 S 
ATOM     14  O   UNL     1       4.611  -0.019   0.911  0.00  0.00    -0.150 OA
ATOM     15  O   UNL     1       3.824  -2.151  -0.107  0.00  0.00    -0.150 OA
BRANCH  13  16
ATOM     16  N   UNL     1       4.526  -0.269  -1.546  0.00  0.00    -0.216 N 
ATOM     17  H   UNL     1       5.283   0.337  -1.576  0.00  0.00    +0.174 HD
BRANCH  16  23
ATOM     18  C   UNL     1       2.772  -4.036  -4.170  0.00  0.00    +0.044 C 
ATOM     19  C   UNL     1       3.110  -2.574  -4.033  0.00  0.00    -0.048 A 
ATOM     20  C   UNL     1       2.869  -1.708  -5.084  0.00  0.00    +0.006 A 
ATOM     21  C   UNL     1       3.178  -0.366  -4.963  0.00  0.00    -0.048 A 
ATOM     22  C   UNL     1       3.728   0.115  -3.791  0.00  0.00    +0.028 A 
ATOM     23  C   UNL     1       3.970  -0.752  -2.732  0.00  0.00    +0.049 A 
ATOM     24  C   UNL     1       3.664  -2.101  -2.860  0.00  0.00    +0.028 A 
ATOM     25  C   UNL     1       2.914   0.574  -6.111  0.00  0.00    +0.044 C 
ENDBRANCH  16  23
ENDBRANCH  13  16
ENDBRANCH   1  13
BRANCH   6  26
ATOM     26  O   UNL     1       3.014   2.100  -0.023  0.00  0.00    -0.493 OA
ATOM     27  C   UNL     1       2.689   3.484   0.117  0.00  0.00    +0.277 C 
ENDBRANCH   6  26
TORSDOF 5
