REMARK  Name = ZINC14457151
REMARK  9 active torsions:
REMARK  status: ('A' for Active; 'I' for Inactive)
REMARK    1  A    between atoms: C_1  and  C_2
REMARK    2  A    between atoms: C_4  and  C_37
REMARK    3  A    between atoms: C_6  and  N_8
REMARK    4  A    between atoms: N_8  and  S_9
REMARK    5  A    between atoms: S_9  and  C_12
REMARK    6  A    between atoms: C_25  and  C_28
REMARK    7  A    between atoms: C_31  and  O_35
REMARK    8  A    between atoms: C_32  and  O_34
REMARK    9  A    between atoms: O_35  and  C_36
REMARK                            x       y       z     vdW  Elec       q    Type
REMARK                         _______ _______ _______ _____ _____    ______ ____
ROOT
ATOM      1  C   UNL     1      -1.290   2.590  -3.296  0.00  0.00    +0.109 A 
ATOM      2  C   UNL     1      -2.660   2.561  -3.107  0.00  0.00    +0.030 A 
ATOM      3  C   UNL     1      -3.179   1.933  -2.024  0.00  0.00    +0.025 A 
ATOM      4  C   UNL     1      -2.352   1.380  -1.054  0.00  0.00    +0.031 A 
ATOM      5  C   UNL     1      -0.973   1.429  -1.226  0.00  0.00    -0.018 A 
ATOM      6  C   UNL     1      -0.451   2.024  -2.354  0.00  0.00    +0.034 A 
ATOM      7  C   UNL     1      -0.121   0.793  -0.197  0.00  0.00    +0.049 C 
ATOM      8  C   UNL     1       1.278   1.228   0.044  0.00  0.00    -0.023 C 
ATOM      9  C   UNL     1       1.560   1.057   1.330  0.00  0.00    -0.030 C 
ATOM     10  C   UNL     1       0.333   0.516   2.066  0.00  0.00    +0.033 C 
ATOM     11  C   UNL     1      -0.811   1.028   1.180  0.00  0.00    +0.029 C 
ATOM     12  C   UNL     1      -2.082   0.198   1.142  0.00  0.00    +0.105 C 
ATOM     13  N   UNL     1      -2.923   0.806   0.088  0.00  0.00    -0.336 N 
ATOM     14  H   UNL     1      -3.888   0.808   0.190  0.00  0.00    +0.147 HD
ENDROOT
BRANCH  12  15
ATOM     15  C   UNL     1      -1.760  -1.231   0.791  0.00  0.00    -0.023 A 
ATOM     16  C   UNL     1      -1.449  -2.134   1.791  0.00  0.00    +0.009 A 
ATOM     17  C   UNL     1      -1.154  -3.447   1.475  0.00  0.00    +0.050 A 
ATOM     18  C   UNL     1      -1.169  -3.861   0.152  0.00  0.00    +0.161 A 
ATOM     19  C   UNL     1      -1.482  -2.952  -0.854  0.00  0.00    +0.159 A 
ATOM     20  C   UNL     1      -1.782  -1.639  -0.530  0.00  0.00    +0.054 A 
BRANCH  19  21
ATOM     21  O   UNL     1      -1.498  -3.354  -2.154  0.00  0.00    -0.503 OA
ATOM     22  H   UNL     1      -2.357  -3.680  -2.454  0.00  0.00    +0.292 HD
ENDBRANCH  19  21
BRANCH  18  23
ATOM     23  O   UNL     1      -0.879  -5.152  -0.161  0.00  0.00    -0.491 OA
ATOM     24  C   UNL     1      -0.568  -6.029   0.924  0.00  0.00    +0.277 C 
ENDBRANCH  18  23
ENDBRANCH  12  15
BRANCH   1  25
ATOM     25  S   UNL     1      -0.615   3.349  -4.735  0.00  0.00    +0.072 S 
ATOM     26  O   UNL     1      -1.536   4.354  -5.135  0.00  0.00    -0.150 OA
ATOM     27  O   UNL     1       0.746   3.635  -4.443  0.00  0.00    -0.150 OA
BRANCH  25  28
ATOM     28  N   UNL     1      -0.612   2.206  -5.935  0.00  0.00    -0.216 N 
ATOM     29  H   UNL     1       0.229   1.890  -6.301  0.00  0.00    +0.174 HD
BRANCH  28  35
ATOM     30  C   UNL     1      -3.878  -1.460  -6.143  0.00  0.00    +0.044 C 
ATOM     31  C   UNL     1      -3.428  -0.076  -6.536  0.00  0.00    -0.048 A 
ATOM     32  C   UNL     1      -4.211   0.692  -7.378  0.00  0.00    +0.006 A 
ATOM     33  C   UNL     1      -3.802   1.962  -7.741  0.00  0.00    -0.048 A 
ATOM     34  C   UNL     1      -2.609   2.467  -7.264  0.00  0.00    +0.028 A 
ATOM     35  C   UNL     1      -1.819   1.698  -6.418  0.00  0.00    +0.049 A 
ATOM     36  C   UNL     1      -2.231   0.421  -6.060  0.00  0.00    +0.028 A 
ATOM     37  C   UNL     1      -4.659   2.795  -8.659  0.00  0.00    +0.044 C 
ENDBRANCH  28  35
ENDBRANCH  25  28
ENDBRANCH   1  25
TORSDOF 6
