REMARK  Name = ZINC08864773
REMARK  2 active torsions:
REMARK  status: ('A' for Active; 'I' for Inactive)
REMARK    1  A    between atoms: N_10  and  S_11
REMARK    2  A    between atoms: S_11  and  C_14
REMARK                            x       y       z     vdW  Elec       q    Type
REMARK                         _______ _______ _______ _____ _____    ______ ____
ROOT
ATOM      1  C   UNL     1       2.383  -0.071  -0.020  0.00  0.00    +0.004 A 
ATOM      2  C   UNL     1       2.404   1.317  -0.013  0.00  0.00    +0.040 A 
ATOM      3  C   UNL     1       1.244   2.050   0.001  0.00  0.00    +0.150 A 
ATOM      4  C   UNL     1      -0.017   1.408   0.010  0.00  0.00    +0.115 A 
ATOM      5  C   UNL     1       0.002  -0.004   0.002  0.00  0.00    +0.044 A 
ATOM      6  C   UNL     1       1.168  -0.730  -0.013  0.00  0.00    +0.017 A 
ATOM      7  S   UNL     1      -1.728  -0.406   0.016  0.00  0.00    -0.051 S 
ATOM      8  C   UNL     1      -2.349   1.269   0.031  0.00  0.00    +0.179 A 
ATOM      9  N   UNL     1      -1.243   1.978   0.030  0.00  0.00    -0.221 NA
ATOM     10  N   UNL     1      -3.658   1.708   0.046  0.00  0.00    -0.193 N 
ATOM     11  F   UNL     1       1.308   3.400   0.007  0.00  0.00    -0.203 F 
ATOM     12  H   UNL     1      -4.385   1.065   0.050  0.00  0.00    +0.176 HD
ENDROOT
BRANCH  10  13
ATOM     13  S   UNL     1      -3.987   3.331   0.058  0.00  0.00    +0.080 S 
ATOM     14  O   UNL     1      -5.403   3.458   0.045  0.00  0.00    -0.149 OA
ATOM     15  O   UNL     1      -3.181   3.901   1.079  0.00  0.00    -0.149 OA
BRANCH  13  16
ATOM     16  C   UNL     1      -3.409   3.991  -1.470  0.00  0.00    +0.147 A 
ATOM     17  C   UNL     1      -4.068   4.123  -2.646  0.00  0.00    +0.038 A 
ATOM     18  C   UNL     1      -3.406   4.677  -3.727  0.00  0.00    +0.030 A 
ATOM     19  C   UNL     1      -2.117   5.071  -3.577  0.00  0.00    +0.080 A 
ATOM     20  S   UNL     1      -1.804   4.666  -1.866  0.00  0.00    -0.057 S 
ATOM     21 CL   UNL     1      -1.050   5.789  -4.743  0.00  0.00    -0.076 Cl
ENDBRANCH  13  16
ENDBRANCH  10  13
TORSDOF 2
