REMARK  Name = ZINC40259925
REMARK  5 active torsions:
REMARK  status: ('A' for Active; 'I' for Inactive)
REMARK    1  A    between atoms: C_1  and  C_2
REMARK    2  A    between atoms: C_5  and  C_9
REMARK    3  A    between atoms: C_6  and  C_8
REMARK    4  A    between atoms: C_9  and  C_11
REMARK    5  A    between atoms: C_9  and  O_22
REMARK                            x       y       z     vdW  Elec       q    Type
REMARK                         _______ _______ _______ _____ _____    ______ ____
ROOT
ATOM      1  C   UNL     1       0.047  -4.342   0.032  0.00  0.00    +0.176 C 
ENDROOT
BRANCH   1   2
ATOM      2  C   UNL     1      -1.322  -4.884   0.354  0.00  0.00    +0.007 A 
ATOM      3  C   UNL     1      -2.136  -5.351  -0.661  0.00  0.00    +0.057 A 
ATOM      4  C   UNL     1      -3.395  -5.851  -0.368  0.00  0.00    +0.163 A 
ATOM      5  C   UNL     1      -3.837  -5.884   0.950  0.00  0.00    +0.163 A 
ATOM      6  C   UNL     1      -3.017  -5.413   1.964  0.00  0.00    +0.069 A 
ATOM      7  C   UNL     1      -1.760  -4.919   1.666  0.00  0.00    +0.051 A 
ATOM      8 CL   UNL     1      -0.733  -4.338   2.938  0.00  0.00    -0.083 Cl
ATOM      9  O   UNL     1      -5.067  -6.378   1.260  0.00  0.00    -0.485 OA
ATOM     10  C   UNL     1      -6.004  -6.495   0.184  0.00  0.00    +0.270 C 
ATOM     11  C   UNL     1      -5.287  -7.142  -1.009  0.00  0.00    +0.270 C 
ATOM     12  O   UNL     1      -4.186  -6.303  -1.379  0.00  0.00    -0.485 OA
ENDBRANCH   1   2
BRANCH   1  17
ATOM     13  C   UNL     1      -0.261   1.390  -0.629  0.00  0.00    +0.044 C 
ATOM     14  C   UNL     1      -0.180  -0.105  -0.456  0.00  0.00    -0.050 A 
ATOM     15  C   UNL     1      -0.861  -0.938  -1.325  0.00  0.00    +0.004 A 
ATOM     16  C   UNL     1      -0.787  -2.309  -1.167  0.00  0.00    +0.007 A 
ATOM     17  C   UNL     1      -0.033  -2.847  -0.141  0.00  0.00    -0.012 A 
ATOM     18  C   UNL     1       0.648  -2.014   0.727  0.00  0.00    -0.044 A 
ATOM     19  C   UNL     1       0.578  -0.643   0.566  0.00  0.00    +0.007 A 
ATOM     20  C   UNL     1       1.470  -2.601   1.846  0.00  0.00    +0.044 C 
ENDBRANCH   1  17
BRANCH   1  21
ATOM     21  O   UNL     1       0.522  -4.937  -1.177  0.00  0.00    -0.382 OA
ATOM     22  H   UNL     1      -0.040  -4.768  -1.946  0.00  0.00    +0.211 HD
ENDBRANCH   1  21
TORSDOF 3
