REMARK  Name = ZINC45485110
REMARK  9 active torsions:
REMARK  status: ('A' for Active; 'I' for Inactive)
REMARK    1  A    between atoms: C_1  and  C_2
REMARK    2  A    between atoms: C_11  and  N_32
REMARK    3  A    between atoms: C_13  and  S_15
REMARK    4  A    between atoms: S_15  and  C_16
REMARK    5  A    between atoms: C_16  and  C_18
REMARK    6  A    between atoms: C_16  and  C_19
REMARK    7  A    between atoms: N_21  and  C_22
REMARK    8  A    between atoms: C_27  and  O_28
REMARK    9  A    between atoms: O_28  and  C_29
REMARK                            x       y       z     vdW  Elec       q    Type
REMARK                         _______ _______ _______ _____ _____    ______ ____
ROOT
ATOM      1  C   UNL     1      -3.007  -0.086  -0.203  0.00  0.00    +0.008 C 
ATOM      2  C   UNL     1      -2.447  -1.504  -0.331  0.00  0.00    -0.009 C 
ATOM      3  C   UNL     1      -1.237  -1.496  -1.270  0.00  0.00    +0.008 C 
ATOM      4  C   UNL     1      -0.826  -2.931  -1.599  0.00  0.00    +0.037 C 
ATOM      5  C   UNL     1      -0.637  -3.703  -0.295  0.00  0.00    -0.025 A 
ATOM      6  C   UNL     1      -1.179  -3.248   0.857  0.00  0.00    -0.004 A 
ATOM      7  S   UNL     1      -0.716  -4.436   2.092  0.00  0.00    -0.073 S 
ATOM      8  C   UNL     1       0.202  -5.540   1.067  0.00  0.00    +0.115 A 
ATOM      9  C   UNL     1       0.118  -4.943  -0.217  0.00  0.00    +0.051 A 
ATOM     10  C   UNL     1       0.778  -5.616  -1.286  0.00  0.00    +0.129 A 
ATOM     11  N   UNL     1       1.409  -6.742  -0.964  0.00  0.00    -0.207 NA
ATOM     12  C   UNL     1       1.446  -7.244   0.261  0.00  0.00    +0.192 A 
ATOM     13  N   UNL     1       0.848  -6.663   1.304  0.00  0.00    -0.214 NA
ATOM     14  C   UNL     1      -1.999  -2.009   1.048  0.00  0.00    +0.046 C 
ENDROOT
BRANCH  10  15
ATOM     15  N   UNL     1       0.764  -5.127  -2.579  0.00  0.00    -0.343 N 
ATOM     16  H   UNL     1       1.391  -5.472  -3.235  0.00  0.00    +0.144 HD
ATOM     17  H   UNL     1       0.128  -4.439  -2.831  0.00  0.00    +0.144 HD
ENDBRANCH  10  15
BRANCH  12  18
ATOM     18  S   UNL     1       2.324  -8.749   0.527  0.00  0.00    -0.073 S 
BRANCH  18  19
ATOM     19  C   UNL     1       2.962  -9.180  -1.115  0.00  0.00    +0.137 C 
ATOM     20  C   UNL     1       3.972  -8.122  -1.564  0.00  0.00    +0.029 C 
BRANCH  19  21
ATOM     21  C   UNL     1       3.639 -10.526  -1.054  0.00  0.00    +0.230 C 
ATOM     22  O   UNL     1       4.011 -10.969   0.012  0.00  0.00    -0.274 OA
ATOM     23  N   UNL     1       3.830 -11.236  -2.183  0.00  0.00    -0.282 N 
ATOM     24  H   UNL     1       3.610 -10.847  -3.044  0.00  0.00    +0.155 HD
BRANCH  23  25
ATOM     25  C   UNL     1       4.347 -12.536  -2.114  0.00  0.00    +0.076 A 
ATOM     26  C   UNL     1       4.289 -13.245  -0.923  0.00  0.00    +0.027 A 
ATOM     27  C   UNL     1       4.800 -14.528  -0.857  0.00  0.00    +0.002 A 
ATOM     28  C   UNL     1       5.369 -15.107  -1.976  0.00  0.00    +0.004 A 
ATOM     29  C   UNL     1       5.431 -14.407  -3.166  0.00  0.00    +0.048 A 
ATOM     30  C   UNL     1       4.916 -13.123  -3.242  0.00  0.00    +0.148 A 
BRANCH  30  31
ATOM     31  O   UNL     1       4.971 -12.435  -4.413  0.00  0.00    -0.432 OA
BRANCH  31  32
ATOM     32  C   UNL     1       5.568 -13.099  -5.529  0.00  0.00    +0.541 C 
ATOM     33  F   UNL     1       6.894 -13.425  -5.222  0.00  0.00    -0.166 F 
ATOM     34  F   UNL     1       4.854 -14.268  -5.812  0.00  0.00    -0.166 F 
ENDBRANCH  31  32
ENDBRANCH  30  31
ENDBRANCH  23  25
ENDBRANCH  19  21
ENDBRANCH  18  19
ENDBRANCH  12  18
TORSDOF 7
