REMARK  Name = ZINC08772454
REMARK  3 active torsions:
REMARK  status: ('A' for Active; 'I' for Inactive)
REMARK    1  A    between atoms: N_14  and  C_18
REMARK    2  A    between atoms: C_18  and  C_19
REMARK    3  A    between atoms: N_21  and  C_22
REMARK                            x       y       z     vdW  Elec       q    Type
REMARK                         _______ _______ _______ _____ _____    ______ ____
ROOT
ATOM      1  C   UNL     1      -2.707  -4.264  -2.831  0.00  0.00    +0.000 A 
ATOM      2  C   UNL     1      -2.905  -4.087  -1.474  0.00  0.00    +0.000 A 
ATOM      3  C   UNL     1      -3.288  -2.850  -0.994  0.00  0.00    +0.006 A 
ATOM      4  C   UNL     1      -3.471  -1.786  -1.869  0.00  0.00    -0.012 A 
ATOM      5  C   UNL     1      -3.260  -1.954  -3.210  0.00  0.00    -0.042 A 
ATOM      6  C   UNL     1      -2.886  -3.204  -3.696  0.00  0.00    +0.004 A 
ATOM      7  C   UNL     1      -3.400  -0.842  -4.225  0.00  0.00    +0.035 C 
ATOM      8  C   UNL     1      -4.832  -0.335  -4.310  0.00  0.00    +0.005 C 
ATOM      9  C   UNL     1      -5.189   0.601  -3.167  0.00  0.00    +0.003 C 
ATOM     10  C   UNL     1      -5.306  -0.143  -1.843  0.00  0.00    +0.040 C 
ATOM     11  C   UNL     1      -3.910  -0.464  -1.295  0.00  0.00    +0.138 C 
ATOM     12  C   UNL     1      -2.914   0.629  -1.551  0.00  0.00    +0.251 C 
ATOM     13  O   UNL     1      -2.577   1.160  -2.586  0.00  0.00    -0.272 OA
ATOM     14  N   UNL     1      -2.410   0.965  -0.337  0.00  0.00    -0.215 N 
ATOM     15  C   UNL     1      -3.040   0.319   0.647  0.00  0.00    +0.310 C 
ATOM     16  O   UNL     1      -2.783   0.461   1.827  0.00  0.00    -0.252 OA
ATOM     17  N   UNL     1      -3.990  -0.508   0.178  0.00  0.00    -0.281 N 
ATOM     18  H   UNL     1      -4.617  -1.036   0.697  0.00  0.00    +0.152 HD
ENDROOT
BRANCH  14  19
ATOM     19  C   UNL     1      -1.326   1.929  -0.141  0.00  0.00    +0.214 C 
BRANCH  19  20
ATOM     20  C   UNL     1      -0.003   1.207  -0.156  0.00  0.00    +0.235 C 
ATOM     21  O   UNL     1       0.030   0.006  -0.316  0.00  0.00    -0.274 OA
ATOM     22  N   UNL     1       1.143   1.898   0.001  0.00  0.00    -0.284 N 
ATOM     23  H   UNL     1       1.123   2.867   0.052  0.00  0.00    +0.155 HD
BRANCH  22  24
ATOM     24  C   UNL     1       2.363   1.219   0.092  0.00  0.00    +0.034 A 
ATOM     25  C   UNL     1       2.422  -0.031   0.695  0.00  0.00    +0.023 A 
ATOM     26  C   UNL     1       3.626  -0.699   0.777  0.00  0.00    +0.006 A 
ATOM     27  C   UNL     1       4.780  -0.124   0.269  0.00  0.00    -0.044 A 
ATOM     28  C   UNL     1       4.726   1.122  -0.328  0.00  0.00    -0.042 A 
ATOM     29  C   UNL     1       3.519   1.793  -0.416  0.00  0.00    +0.027 A 
ATOM     30  C   UNL     1       6.108   1.525  -0.797  0.00  0.00    +0.036 C 
ATOM     31  C   UNL     1       7.079   0.596  -0.038  0.00  0.00    +0.009 C 
ATOM     32  C   UNL     1       6.202  -0.643   0.242  0.00  0.00    +0.036 C 
ENDBRANCH  22  24
ENDBRANCH  19  20
ENDBRANCH  14  19
TORSDOF 3
