REMARK  Name = ZINC03670354
REMARK  14 active torsions:
REMARK  status: ('A' for Active; 'I' for Inactive)
REMARK    1  A    between atoms: C_1  and  C_2
REMARK    2  A    between atoms: C_2  and  C_3
REMARK    3  A    between atoms: C_3  and  N_4
REMARK    4  A    between atoms: N_4  and  C_5
REMARK    5  A    between atoms: N_4  and  C_8
REMARK    6  A    between atoms: C_5  and  C_6
REMARK    7  A    between atoms: C_6  and  C_7
REMARK    8  A    between atoms: C_8  and  C_9
REMARK    9  A    between atoms: C_9  and  N_10
REMARK   10  A    between atoms: C_11  and  C_13
REMARK   11  A    between atoms: C_13  and  O_32
REMARK   12  A    between atoms: N_23  and  C_24
REMARK   13  A    between atoms: C_28  and  O_30
REMARK   14  A    between atoms: O_30  and  C_31
REMARK                            x       y       z     vdW  Elec       q    Type
REMARK                         _______ _______ _______ _____ _____    ______ ____
ROOT
ATOM      1  C   UNL     1       0.315  -2.818   7.771  0.00  0.00    +0.247 C 
ATOM      2  C   UNL     1       0.066  -4.308   7.763  0.00  0.00    +0.033 A 
ATOM      3  C   UNL     1      -1.180  -4.823   7.489  0.00  0.00    +0.010 A 
ATOM      4  C   UNL     1      -1.371  -6.195   7.491  0.00  0.00    +0.001 A 
ATOM      5  C   UNL     1      -0.313  -7.041   7.768  0.00  0.00    +0.002 A 
ATOM      6  C   UNL     1       0.938  -6.526   8.044  0.00  0.00    +0.024 A 
ATOM      7  C   UNL     1       1.135  -5.152   8.043  0.00  0.00    +0.043 A 
ATOM      8  N   UNL     1       2.392  -4.612   8.318  0.00  0.00    -0.269 N 
ATOM      9  C   UNL     1       2.633  -3.295   8.329  0.00  0.00    +0.314 C 
ATOM     10  O   UNL     1       3.760  -2.914   8.578  0.00  0.00    -0.252 OA
ATOM     11  N   UNL     1       1.686  -2.373   8.076  0.00  0.00    -0.214 N 
ATOM     12  H   UNL     1       3.125  -5.218   8.510  0.00  0.00    +0.156 HD
ENDROOT
BRANCH  11  13
ATOM     13  C   UNL     1       1.999  -1.010   8.102  0.00  0.00    +0.045 A 
ATOM     14  C   UNL     1       1.469  -0.193   9.093  0.00  0.00    +0.024 A 
ATOM     15  C   UNL     1       1.778   1.153   9.119  0.00  0.00    +0.005 A 
ATOM     16  C   UNL     1       2.615   1.691   8.160  0.00  0.00    +0.046 A 
ATOM     17  C   UNL     1       3.148   0.880   7.168  0.00  0.00    +0.122 A 
ATOM     18  C   UNL     1       2.845  -0.473   7.142  0.00  0.00    +0.069 A 
BRANCH  17  19
ATOM     19  O   UNL     1       3.972   1.410   6.226  0.00  0.00    -0.495 OA
ATOM     20  C   UNL     1       4.246   2.809   6.317  0.00  0.00    +0.277 C 
ENDBRANCH  17  19
ENDBRANCH  11  13
BRANCH   1  22
ATOM     21  N   UNL     1       0.668  -2.619   5.331  0.00  0.00    -0.313 N 
ATOM     22  C   UNL     1      -0.057  -2.277   6.414  0.00  0.00    +0.269 C 
ATOM     23  O   UNL     1      -1.009  -1.536   6.297  0.00  0.00    -0.270 OA
ATOM     24  H   UNL     1       1.430  -3.212   5.424  0.00  0.00    +0.149 HD
BRANCH  21  25
ATOM     25  C   UNL     1       0.307  -2.093   4.012  0.00  0.00    +0.086 C 
BRANCH  25  26
ATOM     26  C   UNL     1       1.283  -2.631   2.963  0.00  0.00    -0.060 C 
BRANCH  26  27
ATOM     27  N   UNL     1       0.920  -2.104   1.641  0.00  0.00    +0.381 N 
ATOM     28  H   UNL     1      -0.044  -2.325   1.444  0.00  0.00    -0.082 HD
BRANCH  27  29
ATOM     29  C   UNL     1       1.100  -0.646   1.628  0.00  0.00    -0.079 C 
BRANCH  29  31
ATOM     30  C   UNL     1       0.645   1.448   0.343  0.00  0.00    +0.002 C 
ATOM     31  C   UNL     1       0.589  -0.081   0.302  0.00  0.00    -0.022 C 
ENDBRANCH  29  31
ENDBRANCH  27  29
BRANCH  27  32
ATOM     32  C   UNL     1       1.781  -2.712   0.618  0.00  0.00    -0.079 C 
BRANCH  32  33
ATOM     33  C   UNL     1       1.490  -4.212   0.532  0.00  0.00    -0.022 C 
ATOM     34  C   UNL     1       2.283  -4.820  -0.626  0.00  0.00    +0.002 C 
ENDBRANCH  32  33
ENDBRANCH  27  32
ENDBRANCH  26  27
ENDBRANCH  25  26
ENDBRANCH  21  25
ENDBRANCH   1  22
BRANCH   1  35
ATOM     35  O   UNL     1      -0.563  -2.229   8.732  0.00  0.00    -0.360 OA
ATOM     36  H   UNL     1      -1.499  -2.421   8.579  0.00  0.00    +0.213 HD
ENDBRANCH   1  35
TORSDOF 11
