REMARK  Name = ZINC37496382
REMARK  6 active torsions:
REMARK  status: ('A' for Active; 'I' for Inactive)
REMARK    1  A    between atoms: C_1  and  C_2
REMARK    2  A    between atoms: C_2  and  N_3
REMARK    3  A    between atoms: N_3  and  C_4
REMARK    4  A    between atoms: C_4  and  C_5
REMARK    5  A    between atoms: C_11  and  C_13
REMARK    6  A    between atoms: N_17  and  C_18
REMARK                            x       y       z     vdW  Elec       q    Type
REMARK                         _______ _______ _______ _____ _____    ______ ____
ROOT
ATOM      1  N   UNL     1       0.809  -0.823   0.988  0.00  0.00    -0.292 N 
ATOM      2  C   UNL     1       2.147  -0.661   0.965  0.00  0.00    +0.263 C 
ATOM      3  O   UNL     1       2.809  -0.932   1.949  0.00  0.00    -0.268 OA
ENDROOT
BRANCH   2   4
ATOM      4  C   UNL     1       2.804  -0.159  -0.246  0.00  0.00    +0.105 A 
ATOM      5  C   UNL     1       2.176   0.331  -1.371  0.00  0.00    +0.047 A 
ATOM      6  C   UNL     1       3.178   0.697  -2.276  0.00  0.00    +0.036 A 
ATOM      7  C   UNL     1       4.375   0.430  -1.700  0.00  0.00    +0.101 A 
ATOM      8  N   UNL     1       4.162  -0.086  -0.464  0.00  0.00    -0.345 N 
ATOM      9  C   UNL     1       5.202  -0.499   0.481  0.00  0.00    +0.149 C 
ATOM     10 BR   UNL     1       2.910   1.434  -3.996  0.00  0.00    -0.049 Br
ENDBRANCH   2   4
BRANCH   1  12
ATOM     11  C   UNL     1      -0.280   0.937  -0.315  0.00  0.00    +0.024 C 
ATOM     12  C   UNL     1       0.019  -0.560  -0.218  0.00  0.00    +0.105 C 
ENDBRANCH   1  12
BRANCH   1  13
ATOM     13  C   UNL     1       0.145  -1.262   2.217  0.00  0.00    +0.150 C 
BRANCH  13  14
ATOM     14  C   UNL     1       0.074  -2.767   2.241  0.00  0.00    +0.009 A 
ATOM     15  C   UNL     1       0.963  -3.655   2.748  0.00  0.00    +0.014 A 
ATOM     16  C   UNL     1       0.687  -5.007   2.656  0.00  0.00    +0.028 A 
ATOM     17  C   UNL     1      -0.465  -5.404   2.060  0.00  0.00    +0.078 A 
ATOM     18  S   UNL     1      -1.206  -3.842   1.613  0.00  0.00    -0.080 S 
ATOM     19 CL   UNL     1      -1.067  -7.012   1.805  0.00  0.00    -0.076 Cl
ENDBRANCH  13  14
ENDBRANCH   1  13
TORSDOF 4
