REMARK  Name = ZINC39884057
REMARK  5 active torsions:
REMARK  status: ('A' for Active; 'I' for Inactive)
REMARK    1  A    between atoms: C_1  and  O_2
REMARK    2  A    between atoms: O_2  and  C_3
REMARK    3  A    between atoms: C_3  and  C_5
REMARK    4  A    between atoms: C_5  and  N_6
REMARK    5  A    between atoms: C_24  and  C_34
REMARK                            x       y       z     vdW  Elec       q    Type
REMARK                         _______ _______ _______ _____ _____    ______ ____
ROOT
ATOM      1  N   UNL     1       1.354  -2.503  -2.345  0.00  0.00    -0.231 N 
ATOM      2  C   UNL     1       0.719  -2.705  -3.505  0.00  0.00    +0.226 C 
ATOM      3  O   UNL     1      -0.471  -2.558  -3.686  0.00  0.00    -0.275 OA
ATOM      4  C   UNL     1       1.716  -3.146  -4.556  0.00  0.00    +0.091 C 
ATOM      5  C   UNL     1       1.520  -4.702  -4.737  0.00  0.00    +0.007 C 
ATOM      6  C   UNL     1       3.003  -5.047  -5.152  0.00  0.00    +0.010 C 
ATOM      7  C   UNL     1       3.688  -4.489  -3.837  0.00  0.00    +0.015 C 
ATOM      8  C   UNL     1       3.077  -3.052  -3.805  0.00  0.00    +0.092 C 
ATOM      9  C   UNL     1       2.678  -2.689  -2.397  0.00  0.00    +0.226 C 
ATOM     10  O   UNL     1       3.438  -2.586  -1.458  0.00  0.00    -0.275 OA
ATOM     11  C   UNL     1       2.926  -5.386  -2.840  0.00  0.00    +0.061 C 
ATOM     12  C   UNL     1       1.438  -5.140  -3.277  0.00  0.00    +0.019 C 
ATOM     13  C   UNL     1       0.510  -6.189  -2.777  0.00  0.00    +0.063 C 
ATOM     14  C   UNL     1       0.570  -6.188  -1.272  0.00  0.00    +0.032 A 
ATOM     15  C   UNL     1       1.504  -5.662  -0.449  0.00  0.00    +0.087 A 
ATOM     16  N   UNL     1       1.248  -5.819   0.891  0.00  0.00    -0.311 N 
ATOM     17  H   UNL     1       1.866  -5.461   1.548  0.00  0.00    +0.170 HD
ATOM     18  C   UNL     1       0.142  -6.472   1.294  0.00  0.00    +0.289 A 
ATOM     19  O   UNL     1      -0.229  -6.699   2.433  0.00  0.00    -0.260 OA
ATOM     20  S   UNL     1      -0.608  -6.895  -0.151  0.00  0.00    -0.030 S 
ATOM     21  S   UNL     1       3.041  -4.861  -1.111  0.00  0.00    -0.103 S 
ENDROOT
BRANCH  13  22
ATOM     22  C   UNL     1      -0.895  -5.885  -3.232  0.00  0.00    -0.039 A 
ATOM     23  C   UNL     1      -1.499  -4.699  -2.861  0.00  0.00    +0.006 A 
ATOM     24  C   UNL     1      -2.787  -4.419  -3.277  0.00  0.00    +0.020 A 
ATOM     25  C   UNL     1      -3.471  -5.327  -4.066  0.00  0.00    +0.041 A 
ATOM     26  C   UNL     1      -2.865  -6.514  -4.437  0.00  0.00    +0.020 A 
ATOM     27  C   UNL     1      -1.575  -6.790  -4.025  0.00  0.00    +0.006 A 
ATOM     28 CL   UNL     1      -5.089  -4.977  -4.589  0.00  0.00    -0.084 Cl
ENDBRANCH  13  22
BRANCH   1  29
ATOM     29  C   UNL     1       0.657  -2.104  -1.120  0.00  0.00    +0.236 C 
BRANCH  29  30
ATOM     30  C   UNL     1       0.598  -0.600  -1.043  0.00  0.00    +0.325 C 
ATOM     31  O   UNL     1       1.088   0.070  -1.921  0.00  0.00    -0.249 OA
BRANCH  30  33
ATOM     32  C   UNL     1      -0.017   1.425   0.010  0.00  0.00    +0.280 C 
ATOM     33  O   UNL     1       0.002  -0.004   0.002  0.00  0.00    -0.467 OA
ENDBRANCH  30  33
ENDBRANCH  29  30
ENDBRANCH   1  29
TORSDOF 4
