REMARK  Name = ZINC39866493
REMARK  6 active torsions:
REMARK  status: ('A' for Active; 'I' for Inactive)
REMARK    1  A    between atoms: C_1  and  C_2
REMARK    2  A    between atoms: C_5  and  N_7
REMARK    3  A    between atoms: N_9  and  C_23
REMARK    4  A    between atoms: C_13  and  C_14
REMARK    5  A    between atoms: C_17  and  O_21
REMARK    6  A    between atoms: C_18  and  O_20
REMARK                            x       y       z     vdW  Elec       q    Type
REMARK                         _______ _______ _______ _____ _____    ______ ____
ROOT
ATOM      1  N   UNL     1      -1.401  -4.048   0.516  0.00  0.00    -0.198 NA
ATOM      2  C   UNL     1      -1.134  -4.994  -0.360  0.00  0.00    +0.171 C 
ATOM      3  N   UNL     1      -1.067  -4.897  -1.732  0.00  0.00    -0.243 N 
ATOM      4  C   UNL     1      -0.784  -5.956  -2.471  0.00  0.00    +0.259 C 
ATOM      5  O   UNL     1      -0.720  -5.887  -3.684  0.00  0.00    -0.269 OA
ATOM      6  C   UNL     1      -0.547  -7.225  -1.757  0.00  0.00    +0.078 C 
ATOM      7  C   UNL     1      -0.242  -8.450  -2.256  0.00  0.00    +0.028 C 
ATOM      8  S   UNL     1      -0.762  -6.714  -0.058  0.00  0.00    -0.049 S 
ENDROOT
BRANCH   1  13
ATOM      9  C   UNL     1      -3.667   0.629  -1.288  0.00  0.00    +0.075 C 
ATOM     10  C   UNL     1      -2.869  -0.546  -0.783  0.00  0.00    +0.101 A 
ATOM     11  N   UNL     1      -1.591  -0.629  -0.471  0.00  0.00    -0.145 NA
ATOM     12  N   UNL     1      -1.068  -1.700  -0.057  0.00  0.00    -0.121 NA
ATOM     13  C   UNL     1      -1.782  -2.815   0.090  0.00  0.00    +0.217 A 
ATOM     14  S   UNL     1      -3.390  -2.222  -0.430  0.00  0.00    -0.031 S 
ENDBRANCH   1  13
BRANCH   7  15
ATOM     15  C   UNL     1      -0.210  -9.618  -1.367  0.00  0.00    -0.020 A 
ATOM     16  C   UNL     1      -0.840  -9.567  -0.117  0.00  0.00    +0.012 A 
ATOM     17  C   UNL     1      -0.808 -10.664   0.715  0.00  0.00    +0.050 A 
ATOM     18  C   UNL     1      -0.153 -11.823   0.319  0.00  0.00    +0.158 A 
ATOM     19  C   UNL     1       0.476 -11.882  -0.924  0.00  0.00    +0.159 A 
ATOM     20  C   UNL     1       0.445 -10.789  -1.768  0.00  0.00    +0.057 A 
BRANCH  19  21
ATOM     21  O   UNL     1       1.117 -13.019  -1.308  0.00  0.00    -0.503 OA
ATOM     22  H   UNL     1       0.555 -13.646  -1.783  0.00  0.00    +0.292 HD
ENDBRANCH  19  21
BRANCH  18  23
ATOM     23  O   UNL     1      -0.126 -12.901   1.144  0.00  0.00    -0.503 OA
ATOM     24  H   UNL     1      -0.865 -13.512   1.019  0.00  0.00    +0.292 HD
ENDBRANCH  18  23
ENDBRANCH   7  15
BRANCH   3  25
ATOM     25  C   UNL     1      -1.314  -3.606  -2.380  0.00  0.00    +0.084 C 
ATOM     26  C   UNL     1      -2.619  -3.675  -3.175  0.00  0.00    +0.023 C 
ATOM     27  C   UNL     1      -2.876  -2.328  -3.852  0.00  0.00    +0.002 C 
ATOM     28  C   UNL     1      -1.719  -2.003  -4.798  0.00  0.00    +0.000 C 
ATOM     29  C   UNL     1      -0.414  -1.933  -4.003  0.00  0.00    +0.002 C 
ATOM     30  C   UNL     1      -0.156  -3.281  -3.326  0.00  0.00    +0.023 C 
ENDBRANCH   3  25
TORSDOF 5
