REMARK  Name = ZINC32529101
REMARK  10 active torsions:
REMARK  status: ('A' for Active; 'I' for Inactive)
REMARK    1  A    between atoms: C_1  and  C_2
REMARK    2  A    between atoms: C_5  and  C_8
REMARK    3  A    between atoms: C_11  and  N_16
REMARK    4  A    between atoms: C_12  and  C_13
REMARK    5  A    between atoms: C_17  and  C_19
REMARK    6  A    between atoms: C_19  and  C_21
REMARK    7  A    between atoms: C_19  and  S_22
REMARK    8  A    between atoms: S_22  and  C_23
REMARK    9  A    between atoms: C_25  and  C_34
REMARK   10  A    between atoms: C_30  and  C_33
REMARK                            x       y       z     vdW  Elec       q    Type
REMARK                         _______ _______ _______ _____ _____    ______ ____
ROOT
ATOM      1  N   UNL     1      -1.517   2.074  -2.463  0.00  0.00    -0.278 N 
ATOM      2  C   UNL     1      -2.274   2.506  -3.491  0.00  0.00    +0.231 C 
ATOM      3  O   UNL     1      -3.316   3.088  -3.275  0.00  0.00    -0.274 OA
ATOM      4  H   UNL     1      -0.572   1.547  -2.659  0.00  0.00    +0.155 HD
ENDROOT
BRANCH   1   8
ATOM      5  C   UNL     1      -1.950   2.293   1.259  0.00  0.00    +0.003 A 
ATOM      6  C   UNL     1      -3.131   2.954   1.152  0.00  0.00    +0.056 A 
ATOM      7  S   UNL     1      -3.366   3.091  -0.608  0.00  0.00    -0.081 S 
ATOM      8  C   UNL     1      -1.930   2.295  -1.158  0.00  0.00    +0.085 A 
ATOM      9  C   UNL     1      -1.293   1.928   0.019  0.00  0.00    +0.073 A 
BRANCH   5  14
ATOM     10  C   UNL     1       0.332   0.996   6.384  0.00  0.00    +0.044 C 
ATOM     11  C   UNL     1      -0.266   1.336   5.043  0.00  0.00    -0.050 A 
ATOM     12  C   UNL     1      -0.688   2.627   4.783  0.00  0.00    +0.004 A 
ATOM     13  C   UNL     1      -1.236   2.944   3.557  0.00  0.00    +0.009 A 
ATOM     14  C   UNL     1      -1.363   1.959   2.578  0.00  0.00    -0.017 A 
ATOM     15  C   UNL     1      -0.940   0.658   2.847  0.00  0.00    +0.009 A 
ATOM     16  C   UNL     1      -0.389   0.354   4.075  0.00  0.00    +0.004 A 
ENDBRANCH   5  14
BRANCH   9  17
ATOM     17  C   UNL     1      -0.014   1.213   0.009  0.00  0.00    +0.244 C 
ATOM     18  O   UNL     1       0.002  -0.004   0.002  0.00  0.00    -0.270 OA
ATOM     19  N   UNL     1       1.143   1.903   0.001  0.00  0.00    -0.325 N 
ATOM     20  H   UNL     1       2.103   1.366  -0.006  0.00  0.00    +0.145 HD
ATOM     21  H   UNL     1       1.129   3.003   0.003  0.00  0.00    +0.145 HD
ENDBRANCH   9  17
ENDBRANCH   1   8
BRANCH   2  22
ATOM     22  C   UNL     1      -1.825   2.267  -4.910  0.00  0.00    +0.136 C 
ATOM     23  C   UNL     1      -0.773   3.309  -5.295  0.00  0.00    +0.029 C 
BRANCH  22  24
ATOM     24  S   UNL     1      -3.245   2.402  -6.023  0.00  0.00    -0.093 S 
BRANCH  24  25
ATOM     25  C   UNL     1      -2.486   1.940  -7.545  0.00  0.00    +0.099 A 
ATOM     26  C   UNL     1      -3.260   1.910  -8.715  0.00  0.00    +0.038 A 
ATOM     27  C   UNL     1      -2.687   1.555  -9.898  0.00  0.00    -0.039 A 
ATOM     28  C   UNL     1      -1.315   1.226  -9.904  0.00  0.00    +0.004 A 
ATOM     29  C   UNL     1      -0.662   0.852 -11.089  0.00  0.00    +0.010 A 
ATOM     30  C   UNL     1       0.664   0.540 -11.057  0.00  0.00    +0.001 A 
ATOM     31  C   UNL     1       1.380   0.588  -9.864  0.00  0.00    +0.005 A 
ATOM     32  C   UNL     1       0.778   0.947  -8.697  0.00  0.00    -0.024 A 
ATOM     33  C   UNL     1      -0.589   1.275  -8.690  0.00  0.00    +0.075 A 
ATOM     34  N   UNL     1      -1.204   1.636  -7.558  0.00  0.00    -0.240 NA
ATOM     35  C   UNL     1       1.573   0.992  -7.418  0.00  0.00    +0.046 C 
ATOM     36  C   UNL     1      -3.497   1.515 -11.168  0.00  0.00    +0.044 C 
ENDBRANCH  24  25
ENDBRANCH  22  24
ENDBRANCH   2  22
TORSDOF 6
