REMARK  Name = ZINC30960794
REMARK  10 active torsions:
REMARK  status: ('A' for Active; 'I' for Inactive)
REMARK    1  A    between atoms: C_1  and  C_2
REMARK    2  A    between atoms: C_2  and  C_3
REMARK    3  A    between atoms: C_2  and  C_4
REMARK    4  A    between atoms: C_4  and  C_6
REMARK    5  A    between atoms: C_4  and  N_25
REMARK    6  A    between atoms: N_8  and  N_9
REMARK    7  A    between atoms: C_10  and  C_11
REMARK    8  A    between atoms: C_14  and  N_20
REMARK    9  A    between atoms: C_15  and  N_17
REMARK   10  A    between atoms: C_26  and  C_28
REMARK                            x       y       z     vdW  Elec       q    Type
REMARK                         _______ _______ _______ _____ _____    ______ ____
ROOT
ATOM      1  C   UNL     1      -0.960  -2.346   1.136  0.00  0.00    +0.253 C 
ATOM      2  O   UNL     1      -1.930  -2.616   0.459  0.00  0.00    -0.272 OA
ATOM      3  N   UNL     1      -1.038  -1.376   2.069  0.00  0.00    -0.205 N 
ATOM      4  H   UNL     1      -0.135  -1.064   2.613  0.00  0.00    +0.177 HD
ENDROOT
BRANCH   3   5
ATOM      5  N   UNL     1      -2.269  -0.767   2.345  0.00  0.00    -0.188 NA
ATOM      6  C   UNL     1      -2.330   0.220   3.185  0.00  0.00    +0.138 C 
BRANCH   6   7
ATOM      7  C   UNL     1      -1.116   0.994   3.503  0.00  0.00    -0.003 A 
ATOM      8  C   UNL     1      -0.064   1.056   2.585  0.00  0.00    +0.011 A 
ATOM      9  C   UNL     1       1.066   1.785   2.883  0.00  0.00    +0.026 A 
ATOM     10  C   UNL     1       1.163   2.455   4.098  0.00  0.00    +0.060 A 
ATOM     11  C   UNL     1       0.120   2.392   5.016  0.00  0.00    +0.148 A 
ATOM     12  C   UNL     1      -1.013   1.664   4.726  0.00  0.00    +0.044 A 
BRANCH  10  13
ATOM     13  N   UNL     1       2.308   3.193   4.396  0.00  0.00    -0.328 N 
ATOM     14  C   UNL     1       3.533   2.373   4.211  0.00  0.00    +0.105 C 
ATOM     15  C   UNL     1       4.651   3.434   4.060  0.00  0.00    +0.020 C 
ATOM     16  C   UNL     1       3.959   4.552   3.246  0.00  0.00    +0.020 C 
ATOM     17  C   UNL     1       2.451   4.344   3.478  0.00  0.00    +0.105 C 
ENDBRANCH  10  13
BRANCH  11  18
ATOM     18  N   UNL     1       0.228   3.107   6.308  0.00  0.00    +0.058 N 
ATOM     19  O   UNL     1      -0.639   2.973   7.152  0.00  0.00    -0.126 OA
ATOM     20  O   UNL     1       1.184   3.829   6.526  0.00  0.00    -0.126 OA
ENDBRANCH  11  18
ENDBRANCH   6   7
ENDBRANCH   3   5
BRANCH   1  21
ATOM     21  C   UNL     1       0.332  -3.096   0.934  0.00  0.00    +0.163 C 
BRANCH  21  22
ATOM     22  N   UNL     1       0.045  -4.520   0.747  0.00  0.00    -0.300 N 
ATOM     23  C   UNL     1       0.984  -5.441   1.045  0.00  0.00    +0.245 C 
ATOM     24  O   UNL     1       2.067  -5.089   1.469  0.00  0.00    -0.270 OA
ATOM     25  H   UNL     1      -0.935  -4.839   0.363  0.00  0.00    +0.150 HD
BRANCH  23  26
ATOM     26  C   UNL     1       0.695  -6.878   0.857  0.00  0.00    +0.038 A 
ATOM     27  C   UNL     1      -0.551  -7.285   0.376  0.00  0.00    +0.014 A 
ATOM     28  C   UNL     1      -0.813  -8.627   0.197  0.00  0.00    +0.022 A 
ATOM     29  C   UNL     1       0.152  -9.571   0.504  0.00  0.00    +0.059 A 
ATOM     30  C   UNL     1       1.389  -9.174   0.987  0.00  0.00    +0.060 A 
ATOM     31  C   UNL     1       1.665  -7.833   1.165  0.00  0.00    +0.034 A 
ATOM     32 CL   UNL     1       2.594 -10.364   1.369  0.00  0.00    -0.082 Cl
ATOM     33 CL   UNL     1      -0.188 -11.259   0.283  0.00  0.00    -0.082 Cl
ENDBRANCH  23  26
ENDBRANCH  21  22
BRANCH  21  35
ATOM     34  C   UNL     1       0.099  -2.599  -1.504  0.00  0.00    +0.009 C 
ATOM     35  C   UNL     1       1.048  -2.553  -0.304  0.00  0.00    +0.012 C 
ATOM     36  C   UNL     1       1.479  -1.107  -0.051  0.00  0.00    +0.009 C 
ENDBRANCH  21  35
ENDBRANCH   1  21
TORSDOF 8
