REMARK  Name = ZINC58849338
REMARK  9 active torsions:
REMARK  status: ('A' for Active; 'I' for Inactive)
REMARK    1  A    between atoms: C_1  and  O_2
REMARK    2  A    between atoms: O_2  and  C_3
REMARK    3  A    between atoms: C_6  and  N_11
REMARK    4  A    between atoms: C_7  and  O_9
REMARK    5  A    between atoms: O_9  and  C_10
REMARK    6  A    between atoms: N_11  and  S_12
REMARK    7  A    between atoms: S_12  and  C_15
REMARK    8  A    between atoms: C_28  and  C_31
REMARK    9  A    between atoms: C_36  and  C_37
REMARK                            x       y       z     vdW  Elec       q    Type
REMARK                         _______ _______ _______ _____ _____    ______ ____
ROOT
ATOM      1  C   UNL     1      -5.306  -0.645  -2.888  0.00  0.00    +0.109 A 
ATOM      2  C   UNL     1      -4.632   0.150  -3.797  0.00  0.00    +0.030 A 
ATOM      3  C   UNL     1      -4.576  -0.222  -5.124  0.00  0.00    +0.025 A 
ATOM      4  C   UNL     1      -5.194  -1.394  -5.548  0.00  0.00    +0.031 A 
ATOM      5  C   UNL     1      -5.859  -2.200  -4.636  0.00  0.00    -0.018 A 
ATOM      6  C   UNL     1      -5.911  -1.814  -3.304  0.00  0.00    +0.034 A 
ATOM      7  C   UNL     1      -6.499  -3.483  -5.045  0.00  0.00    +0.049 C 
ATOM      8  C   UNL     1      -7.998  -3.365  -5.140  0.00  0.00    -0.023 C 
ATOM      9  C   UNL     1      -8.448  -4.093  -6.131  0.00  0.00    -0.030 C 
ATOM     10  C   UNL     1      -7.313  -4.796  -6.843  0.00  0.00    +0.033 C 
ATOM     11  C   UNL     1      -6.058  -4.004  -6.411  0.00  0.00    +0.029 C 
ATOM     12  C   UNL     1      -5.814  -2.911  -7.431  0.00  0.00    +0.106 C 
ATOM     13  N   UNL     1      -5.145  -1.746  -6.891  0.00  0.00    -0.336 N 
ATOM     14  H   UNL     1      -4.657  -1.171  -7.501  0.00  0.00    +0.147 HD
ENDROOT
BRANCH  12  15
ATOM     15  C   UNL     1      -7.140  -2.505  -8.023  0.00  0.00    -0.013 A 
ATOM     16  C   UNL     1      -7.883  -1.505  -7.433  0.00  0.00    +0.006 A 
ATOM     17  C   UNL     1      -9.100  -1.131  -7.975  0.00  0.00    +0.000 A 
ATOM     18  C   UNL     1      -9.580  -1.756  -9.112  0.00  0.00    +0.001 A 
ATOM     19  C   UNL     1      -8.848  -2.759  -9.713  0.00  0.00    +0.015 A 
ATOM     20  C   UNL     1      -7.615  -3.138  -9.175  0.00  0.00    +0.068 A 
BRANCH  20  21
ATOM     21  C   UNL     1      -6.823  -4.204  -9.816  0.00  0.00    +0.387 C 
ATOM     22  O   UNL     1      -7.272  -4.801 -10.784  0.00  0.00    -0.241 OA
ATOM     23  O   UNL     1      -5.717  -4.491  -9.379  0.00  0.00    -0.241 OA
ENDBRANCH  20  21
ENDBRANCH  12  15
BRANCH   1  24
ATOM     24  S   UNL     1      -5.388  -0.169  -1.194  0.00  0.00    +0.072 S 
ATOM     25  O   UNL     1      -6.535  -0.805  -0.648  0.00  0.00    -0.150 OA
ATOM     26  O   UNL     1      -5.210   1.240  -1.159  0.00  0.00    -0.150 OA
BRANCH  24  27
ATOM     27  N   UNL     1      -4.073  -0.831  -0.436  0.00  0.00    -0.213 N 
ATOM     28  H   UNL     1      -4.198  -1.453   0.298  0.00  0.00    +0.174 HD
BRANCH  27  32
ATOM     29  C   UNL     1      -0.218   0.179  -1.679  0.00  0.00    +0.124 A 
ATOM     30  C   UNL     1      -1.228   1.130  -1.702  0.00  0.00    +0.048 A 
ATOM     31  C   UNL     1      -2.504   0.795  -1.290  0.00  0.00    +0.032 A 
ATOM     32  C   UNL     1      -2.778  -0.492  -0.854  0.00  0.00    +0.090 A 
ATOM     33  C   UNL     1      -1.765  -1.448  -0.831  0.00  0.00    +0.146 A 
ATOM     34  C   UNL     1      -0.488  -1.111  -1.249  0.00  0.00    +0.093 A 
BRANCH  29  36
ATOM     35  C   UNL     1       1.245   1.858  -2.515  0.00  0.00    +0.277 C 
ATOM     36  O   UNL     1       1.037   0.511  -2.084  0.00  0.00    -0.495 OA
ENDBRANCH  29  36
BRANCH  33  37
ATOM     37  O   UNL     1      -2.031  -2.711  -0.403  0.00  0.00    -0.493 OA
ATOM     38  C   UNL     1      -0.944  -3.639  -0.406  0.00  0.00    +0.277 C 
ENDBRANCH  33  37
ENDBRANCH  27  32
ENDBRANCH  24  27
ENDBRANCH   1  24
TORSDOF 7
