REMARK  Name = ZINC04600520
REMARK  10 active torsions:
REMARK  status: ('A' for Active; 'I' for Inactive)
REMARK    1  A    between atoms: C_1  and  C_2
REMARK    2  A    between atoms: C_2  and  C_3
REMARK    3  A    between atoms: C_3  and  C_4
REMARK    4  A    between atoms: C_4  and  C_5
REMARK    5  A    between atoms: C_5  and  C_6
REMARK    6  A    between atoms: C_6  and  N_7
REMARK    7  A    between atoms: C_15  and  N_16
REMARK    8  A    between atoms: C_17  and  C_18
REMARK    9  A    between atoms: C_17  and  C_19
REMARK   10  A    between atoms: C_24  and  O_25
REMARK                            x       y       z     vdW  Elec       q    Type
REMARK                         _______ _______ _______ _____ _____    ______ ____
ROOT
ATOM      1  N   UNL     1      -4.193  -4.583   0.013  0.00  0.00    -0.310 N 
ATOM      2  C   UNL     1      -4.939  -4.876   1.140  0.00  0.00    +0.068 A 
ATOM      3  C   UNL     1      -4.705  -4.770   2.503  0.00  0.00    +0.028 A 
ATOM      4  C   UNL     1      -5.680  -5.160   3.397  0.00  0.00    +0.002 A 
ATOM      5  C   UNL     1      -6.893  -5.657   2.943  0.00  0.00    +0.002 A 
ATOM      6  C   UNL     1      -7.142  -5.770   1.604  0.00  0.00    +0.028 A 
ATOM      7  C   UNL     1      -6.168  -5.380   0.679  0.00  0.00    +0.066 A 
ATOM      8  N   UNL     1      -6.123  -5.373  -0.676  0.00  0.00    -0.324 N 
ATOM      9  C   UNL     1      -4.964  -4.900  -1.076  0.00  0.00    +0.209 A 
ATOM     10  H   UNL     1      -6.838  -5.669  -1.260  0.00  0.00    +0.169 HD
ENDROOT
BRANCH   9  11
ATOM     11  N   UNL     1      -4.586  -4.750  -2.372  0.00  0.00    -0.218 NA
ATOM     12  C   UNL     1      -3.919  -5.701  -2.973  0.00  0.00    +0.053 C 
ATOM     13  C   UNL     1      -3.682  -7.014  -2.272  0.00  0.00    +0.066 C 
BRANCH  12  14
ATOM     14  C   UNL     1      -3.402  -5.490  -4.330  0.00  0.00    +0.039 A 
ATOM     15  C   UNL     1      -2.693  -6.507  -4.980  0.00  0.00    +0.033 A 
ATOM     16  C   UNL     1      -2.210  -6.302  -6.255  0.00  0.00    +0.042 A 
ATOM     17  C   UNL     1      -2.425  -5.091  -6.897  0.00  0.00    +0.023 A 
ATOM     18  C   UNL     1      -3.122  -4.079  -6.268  0.00  0.00    +0.047 A 
ATOM     19  C   UNL     1      -3.620  -4.269  -4.988  0.00  0.00    +0.126 A 
ATOM     20 CL   UNL     1      -1.331  -7.564  -7.060  0.00  0.00    -0.084 Cl
BRANCH  19  21
ATOM     21  O   UNL     1      -4.310  -3.276  -4.372  0.00  0.00    -0.506 OA
ATOM     22  H   UNL     1      -3.757  -2.673  -3.857  0.00  0.00    +0.292 HD
ENDBRANCH  19  21
ENDBRANCH  12  14
ENDBRANCH   9  11
BRANCH   1  23
ATOM     23  C   UNL     1      -2.837  -4.030  -0.013  0.00  0.00    +0.125 C 
BRANCH  23  24
ATOM     24  C   UNL     1      -2.909  -2.502  -0.026  0.00  0.00    +0.022 C 
BRANCH  24  25
ATOM     25  C   UNL     1      -1.492  -1.925  -0.053  0.00  0.00    +0.002 C 
BRANCH  25  26
ATOM     26  C   UNL     1      -1.563  -0.397  -0.066  0.00  0.00    -0.000 C 
BRANCH  26  28
ATOM     27  C   UNL     1      -0.218   1.708  -0.106  0.00  0.00    +0.004 C 
ATOM     28  C   UNL     1      -0.147   0.180  -0.093  0.00  0.00    -0.003 C 
ENDBRANCH  26  28
ENDBRANCH  25  26
ENDBRANCH  24  25
ENDBRANCH  23  24
ENDBRANCH   1  23
TORSDOF 8
