REMARK  Name = ZINC03428623
REMARK  11 active torsions:
REMARK  status: ('A' for Active; 'I' for Inactive)
REMARK    1  A    between atoms: C_1  and  C_2
REMARK    2  A    between atoms: C_2  and  C_3
REMARK    3  A    between atoms: C_3  and  N_58
REMARK    4  A    between atoms: C_4  and  C_5
REMARK    5  A    between atoms: C_4  and  N_58
REMARK    6  A    between atoms: N_7  and  C_8
REMARK    7  A    between atoms: C_17  and  C_18
REMARK    8  A    between atoms: C_17  and  N_58
REMARK    9  A    between atoms: N_20  and  C_21
REMARK   10  A    between atoms: C_22  and  C_32
REMARK   11  A    between atoms: C_27  and  C_31
REMARK                            x       y       z     vdW  Elec       q    Type
REMARK                         _______ _______ _______ _____ _____    ______ ____
ROOT
ATOM      1  N   UNL     1       4.276   5.415  -0.043  0.00  0.00    +0.391 N 
ATOM      2  H   UNL     1       4.650   4.837  -0.805  0.00  0.00    -0.080 HD
ENDROOT
BRANCH   1   3
ATOM      3  C   UNL     1       4.844   4.945   1.239  0.00  0.00    -0.078 C 
BRANCH   3   5
ATOM      4  C   UNL     1       5.331   2.910   2.602  0.00  0.00    +0.002 C 
ATOM      5  C   UNL     1       4.844   3.415   1.243  0.00  0.00    -0.022 C 
ENDBRANCH   3   5
ENDBRANCH   1   3
BRANCH   1   6
ATOM      6  C   UNL     1       4.657   6.824  -0.278  0.00  0.00    +0.020 C 
BRANCH   6   7
ATOM      7  C   UNL     1       6.144   6.893  -0.515  0.00  0.00    +0.201 C 
ATOM      8  O   UNL     1       6.812   5.881  -0.474  0.00  0.00    -0.278 OA
ATOM      9  N   UNL     1       6.731   8.078  -0.772  0.00  0.00    -0.285 N 
ATOM     10  H   UNL     1       6.189   8.878  -0.864  0.00  0.00    +0.155 HD
BRANCH   9  11
ATOM     11  C   UNL     1       8.123   8.156  -0.906  0.00  0.00    +0.072 A 
ATOM     12  C   UNL     1       8.827   7.104  -1.476  0.00  0.00    +0.029 A 
ATOM     13  C   UNL     1      10.199   7.183  -1.613  0.00  0.00    +0.043 A 
ATOM     14  C   UNL     1      10.877   8.307  -1.172  0.00  0.00    +0.161 A 
ATOM     15  C   UNL     1      10.180   9.358  -0.597  0.00  0.00    +0.195 A 
ATOM     16  C   UNL     1       8.803   9.285  -0.463  0.00  0.00    +0.182 A 
ATOM     17  F   UNL     1       8.122  10.308   0.098  0.00  0.00    -0.200 F 
ATOM     18  F   UNL     1      10.843  10.454  -0.166  0.00  0.00    -0.199 F 
ATOM     19  F   UNL     1      12.220   8.380  -1.302  0.00  0.00    -0.202 F 
ENDBRANCH   9  11
ENDBRANCH   6   7
ENDBRANCH   1   6
BRANCH   1  20
ATOM     20  C   UNL     1       2.804   5.286  -0.021  0.00  0.00    +0.020 C 
BRANCH  20  21
ATOM     21  C   UNL     1       2.296   5.318  -1.439  0.00  0.00    +0.201 C 
ATOM     22  O   UNL     1       3.062   5.533  -2.354  0.00  0.00    -0.278 OA
ATOM     23  N   UNL     1       0.989   5.106  -1.692  0.00  0.00    -0.281 N 
ATOM     24  H   UNL     1       0.375   4.934  -0.960  0.00  0.00    +0.155 HD
BRANCH  23  25
ATOM     25  C   UNL     1       0.520   5.135  -2.998  0.00  0.00    +0.090 A 
ATOM     26  C   UNL     1      -0.776   4.943  -3.453  0.00  0.00    +0.084 A 
ATOM     27  C   UNL     1      -1.004   5.026  -4.885  0.00  0.00    -0.018 A 
ATOM     28  C   UNL     1       0.094   5.287  -5.629  0.00  0.00    -0.004 A 
ATOM     29  S   UNL     1       1.413   5.420  -4.455  0.00  0.00    -0.077 S 
ATOM     30  C   UNL     1       0.163   5.428  -7.118  0.00  0.00    +0.046 C 
ATOM     31  C   UNL     1      -1.265   5.604  -7.654  0.00  0.00    -0.009 C 
ATOM     32  C   UNL     1      -2.164   4.536  -7.024  0.00  0.00    +0.008 C 
ATOM     33  C   UNL     1      -2.368   4.838  -5.538  0.00  0.00    +0.037 C 
ATOM     34  C   UNL     1      -1.268   5.445  -9.175  0.00  0.00    +0.008 C 
BRANCH  26  35
ATOM     35  C   UNL     1      -1.850   4.679  -2.544  0.00  0.00    +0.102 C 
ATOM     36  N   UNL     1      -2.702   4.469  -1.823  0.00  0.00    -0.191 NA
ENDBRANCH  26  35
ENDBRANCH  23  25
ENDBRANCH  20  21
ENDBRANCH   1  20
TORSDOF 9
