REMARK  Name = ZINC16085674
REMARK  4 active torsions:
REMARK  status: ('A' for Active; 'I' for Inactive)
REMARK    1  A    between atoms: C_3  and  O_12
REMARK    2  A    between atoms: C_6  and  C_7
REMARK    3  A    between atoms: O_12  and  S_13
REMARK    4  A    between atoms: S_13  and  C_16
REMARK                            x       y       z     vdW  Elec       q    Type
REMARK                         _______ _______ _______ _____ _____    ______ ____
ROOT
ATOM      1  O   UNL     1       3.548   2.104  -0.021  0.00  0.00    -0.342 OA
ENDROOT
BRANCH   1   4
ATOM      2  C   UNL     1      -0.017   1.378   0.010  0.00  0.00    +0.009 A 
ATOM      3  C   UNL     1       1.169   2.087   0.002  0.00  0.00    +0.049 A 
ATOM      4  C   UNL     1       2.380   1.409  -0.013  0.00  0.00    +0.157 A 
ATOM      5  C   UNL     1       2.396   0.022  -0.021  0.00  0.00    +0.049 A 
ATOM      6  C   UNL     1       1.207  -0.681  -0.013  0.00  0.00    +0.009 A 
ATOM      7  C   UNL     1       0.002  -0.004   0.002  0.00  0.00    -0.024 A 
BRANCH   7   8
ATOM      8  C   UNL     1      -1.293  -0.774   0.011  0.00  0.00    +0.133 C 
ATOM      9  S   UNL     1      -1.312  -2.010   1.372  0.00  0.00    -0.141 S 
ATOM     10  C   UNL     1      -2.117  -3.460   0.588  0.00  0.00    +0.081 C 
ATOM     11  C   UNL     1      -1.500  -3.545  -0.831  0.00  0.00    +0.081 C 
ATOM     12  S   UNL     1      -1.432  -1.837  -1.478  0.00  0.00    -0.141 S 
ENDBRANCH   7   8
ENDBRANCH   1   4
BRANCH   1  13
ATOM     13  S   UNL     1       4.094   2.413   1.366  0.00  0.00    +0.151 S 
ATOM     14  O   UNL     1       5.184   3.307   1.183  0.00  0.00    -0.131 OA
ATOM     15  O   UNL     1       2.975   2.733   2.181  0.00  0.00    -0.131 OA
BRANCH  13  16
ATOM     16  C   UNL     1       4.771   0.917   2.005  0.00  0.00    +0.128 A 
ATOM     17  C   UNL     1       3.974   0.051   2.730  0.00  0.00    +0.031 A 
ATOM     18  C   UNL     1       4.506  -1.121   3.230  0.00  0.00    +0.006 A 
ATOM     19  C   UNL     1       5.838  -1.432   3.007  0.00  0.00    -0.044 A 
ATOM     20  C   UNL     1       6.635  -0.567   2.282  0.00  0.00    -0.042 A 
ATOM     21  C   UNL     1       6.097   0.606   1.777  0.00  0.00    +0.034 A 
ATOM     22  C   UNL     1       8.037  -1.127   2.179  0.00  0.00    +0.036 C 
ATOM     23  C   UNL     1       8.123  -2.204   3.281  0.00  0.00    +0.009 C 
ATOM     24  C   UNL     1       6.649  -2.634   3.441  0.00  0.00    +0.036 C 
ENDBRANCH  13  16
ENDBRANCH   1  13
TORSDOF 4
