REMARK  Name = ZINC59858464
REMARK  6 active torsions:
REMARK  status: ('A' for Active; 'I' for Inactive)
REMARK    1  A    between atoms: C_1  and  C_2
REMARK    2  A    between atoms: C_3  and  N_9
REMARK    3  A    between atoms: C_4  and  C_8
REMARK    4  A    between atoms: N_9  and  C_10
REMARK    5  A    between atoms: C_12  and  C_26
REMARK    6  A    between atoms: N_14  and  C_17
REMARK                            x       y       z     vdW  Elec       q    Type
REMARK                         _______ _______ _______ _____ _____    ______ ____
ROOT
ATOM      1  C   UNL     1       0.959  -0.826  -3.407  0.00  0.00    +0.087 C 
ATOM      2  C   UNL     1       1.309  -0.251  -4.618  0.00  0.00    +0.075 C 
ATOM      3  C   UNL     1       1.881  -0.921  -5.795  0.00  0.00    +0.070 C 
ATOM      4  N   UNL     1       2.057  -0.019  -6.712  0.00  0.00    -0.176 NA
ATOM      5  N   UNL     1       1.651   1.240  -6.270  0.00  0.00    -0.154 N 
ATOM      6  C   UNL     1       1.182   1.158  -5.008  0.00  0.00    +0.273 C 
ATOM      7  O   UNL     1       0.745   2.071  -4.328  0.00  0.00    -0.268 OA
ATOM      8  C   UNL     1       2.205  -2.388  -5.915  0.00  0.00    +0.068 C 
ENDROOT
BRANCH   5   9
ATOM      9  C   UNL     1       1.715   2.417  -7.028  0.00  0.00    +0.097 A 
ATOM     10  C   UNL     1       2.857   3.208  -6.991  0.00  0.00    +0.067 A 
ATOM     11  C   UNL     1       2.917   4.368  -7.740  0.00  0.00    +0.042 A 
ATOM     12  C   UNL     1       1.842   4.742  -8.527  0.00  0.00    +0.044 A 
ATOM     13  C   UNL     1       0.704   3.956  -8.567  0.00  0.00    +0.042 A 
ATOM     14  C   UNL     1       0.640   2.792  -7.824  0.00  0.00    +0.067 A 
ATOM     15 CL   UNL     1      -0.786   1.803  -7.879  0.00  0.00    -0.081 Cl
ATOM     16 CL   UNL     1       1.921   6.199  -9.467  0.00  0.00    -0.083 Cl
ATOM     17 CL   UNL     1       4.206   2.741  -6.003  0.00  0.00    -0.081 Cl
ENDBRANCH   5   9
BRANCH   1  18
ATOM     18  N   UNL     1       0.437  -0.064  -2.425  0.00  0.00    -0.317 N 
ATOM     19  H   UNL     1       0.380   0.898  -2.536  0.00  0.00    +0.152 HD
BRANCH  18  22
ATOM     20  C   UNL     1       0.061   1.411   0.249  0.00  0.00    +0.067 C 
ATOM     21  C   UNL     1      -0.203  -0.043  -0.046  0.00  0.00    +0.054 A 
ATOM     22  C   UNL     1      -0.025  -0.664  -1.241  0.00  0.00    +0.075 A 
ATOM     23  C   UNL     1      -0.386  -2.011  -1.083  0.00  0.00    +0.081 A 
ATOM     24  N   UNL     1      -0.764  -2.189   0.157  0.00  0.00    -0.177 NA
ATOM     25  N   UNL     1      -0.653  -0.967   0.833  0.00  0.00    -0.280 N 
ATOM     26  H   UNL     1      -0.864  -0.811   1.766  0.00  0.00    +0.189 HD
ATOM     27  C   UNL     1      -0.345  -3.069  -2.155  0.00  0.00    +0.069 C 
ENDBRANCH  18  22
ENDBRANCH   1  18
TORSDOF 3
