REMARK  Name = ZINC06136137
REMARK  10 active torsions:
REMARK  status: ('A' for Active; 'I' for Inactive)
REMARK    1  A    between atoms: C_1  and  O_2
REMARK    2  A    between atoms: O_2  and  C_3
REMARK    3  A    between atoms: C_3  and  C_5
REMARK    4  A    between atoms: C_10  and  N_11
REMARK    5  A    between atoms: N_11  and  C_12
REMARK    6  A    between atoms: C_12  and  N_14
REMARK    7  A    between atoms: N_14  and  C_15
REMARK    8  A    between atoms: N_14  and  C_21
REMARK    9  A    between atoms: C_15  and  C_16
REMARK   10  A    between atoms: C_21  and  C_22
REMARK                            x       y       z     vdW  Elec       q    Type
REMARK                         _______ _______ _______ _____ _____    ______ ____
ROOT
ATOM      1  N   UNL     1      -5.793   0.981   1.572  0.00  0.00    -0.301 N 
ENDROOT
BRANCH   1   2
ATOM      2  C   UNL     1      -5.305  -0.039   2.305  0.00  0.00    +0.138 C 
ATOM      3  S   UNL     1      -3.926  -0.898   1.766  0.00  0.00    -0.018 S 
BRANCH   2   4
ATOM      4  N   UNL     1      -5.903  -0.383   3.463  0.00  0.00    -0.296 N 
ATOM      5  H   UNL     1      -6.633   0.154   3.811  0.00  0.00    +0.154 HD
BRANCH   4  11
ATOM      6  C   UNL     1      -5.265  -1.442   5.547  0.00  0.00    +0.080 A 
ATOM      7  C   UNL     1      -4.834  -2.580   6.235  0.00  0.00    +0.017 A 
ATOM      8  C   UNL     1      -4.619  -3.756   5.551  0.00  0.00    +0.001 A 
ATOM      9  C   UNL     1      -4.827  -3.818   4.182  0.00  0.00    +0.002 A 
ATOM     10  C   UNL     1      -5.257  -2.705   3.489  0.00  0.00    +0.024 A 
ATOM     11  C   UNL     1      -5.474  -1.508   4.160  0.00  0.00    +0.047 A 
BRANCH   6  12
ATOM     12  C   UNL     1      -5.498  -0.181   6.272  0.00  0.00    +0.341 C 
ATOM     13  O   UNL     1      -5.812   0.822   5.662  0.00  0.00    -0.245 OA
BRANCH  12  15
ATOM     14  C   UNL     1      -5.607   1.137   8.260  0.00  0.00    +0.280 C 
ATOM     15  O   UNL     1      -5.362  -0.139   7.612  0.00  0.00    -0.464 OA
ENDBRANCH  12  15
ENDBRANCH   6  12
ENDBRANCH   4  11
ENDBRANCH   2   4
ENDBRANCH   1   2
BRANCH   1  16
ATOM     16  C   UNL     1      -6.974   1.716   2.033  0.00  0.00    +0.181 C 
BRANCH  16  17
ATOM     17  C   UNL     1      -8.217   1.061   1.489  0.00  0.00    +0.122 A 
ATOM     18  C   UNL     1      -8.918   0.082   2.089  0.00  0.00    +0.046 A 
ATOM     19  C   UNL     1     -10.000  -0.231   1.234  0.00  0.00    +0.041 A 
ATOM     20  C   UNL     1      -9.895   0.576   0.163  0.00  0.00    +0.195 A 
ATOM     21  O   UNL     1      -8.817   1.360   0.325  0.00  0.00    -0.466 OA
ENDBRANCH  16  17
ENDBRANCH   1  16
BRANCH   1  22
ATOM     22  C   UNL     1      -5.143   1.354   0.313  0.00  0.00    +0.147 C 
BRANCH  22  23
ATOM     23  C   UNL     1      -4.082   2.389   0.584  0.00  0.00    +0.035 A 
ATOM     24  C   UNL     1      -2.792   2.004   0.761  0.00  0.00    +0.020 A 
ATOM     25  C   UNL     1      -1.784   3.032   1.018  0.00  0.00    +0.003 A 
ATOM     26  C   UNL     1      -0.440   2.693   1.215  0.00  0.00    +0.059 A 
ATOM     27  C   UNL     1       0.486   3.683   1.459  0.00  0.00    +0.167 A 
ATOM     28  C   UNL     1       0.086   5.024   1.516  0.00  0.00    +0.168 A 
ATOM     29  C   UNL     1      -1.240   5.368   1.328  0.00  0.00    +0.075 A 
ATOM     30  C   UNL     1      -2.186   4.381   1.081  0.00  0.00    +0.053 A 
ATOM     31  N   UNL     1      -3.514   4.705   0.892  0.00  0.00    -0.322 N 
ATOM     32  H   UNL     1      -3.797   5.663   0.933  0.00  0.00    +0.169 HD
ATOM     33  C   UNL     1      -4.431   3.753   0.653  0.00  0.00    +0.254 A 
ATOM     34  O   UNL     1      -5.596   4.076   0.491  0.00  0.00    -0.268 OA
ATOM     35  O   UNL     1       1.186   5.792   1.768  0.00  0.00    -0.453 OA
ATOM     36  C   UNL     1       2.183   4.885   2.273  0.00  0.00    +0.466 C 
ATOM     37  O   UNL     1       1.833   3.622   1.677  0.00  0.00    -0.453 OA
ENDBRANCH  22  23
ENDBRANCH   1  22
TORSDOF 9
