REMARK  Name = ZINC29279350
REMARK  3 active torsions:
REMARK  status: ('A' for Active; 'I' for Inactive)
REMARK    1  A    between atoms: C_3  and  N_13
REMARK    2  A    between atoms: C_6  and  C_7
REMARK    3  A    between atoms: C_14  and  C_16
REMARK                            x       y       z     vdW  Elec       q    Type
REMARK                         _______ _______ _______ _____ _____    ______ ____
ROOT
ATOM      1  C   UNL     1      -4.748   0.998   0.323  0.00  0.00    +0.012 A 
ATOM      2  C   UNL     1      -3.564   1.697   0.425  0.00  0.00    +0.024 A 
ATOM      3  C   UNL     1      -2.390   1.155  -0.086  0.00  0.00    +0.033 A 
ATOM      4  C   UNL     1      -2.408  -0.089  -0.705  0.00  0.00    +0.024 A 
ATOM      5  C   UNL     1      -3.589  -0.794  -0.803  0.00  0.00    +0.012 A 
ATOM      6  C   UNL     1      -4.767  -0.253  -0.292  0.00  0.00    +0.002 A 
ENDROOT
BRANCH   6   7
ATOM      7  C   UNL     1      -6.041  -1.007  -0.403  0.00  0.00    +0.092 A 
ATOM      8  C   UNL     1      -6.205  -2.274  -0.996  0.00  0.00    +0.049 A 
ATOM      9  C   UNL     1      -7.508  -2.613  -0.894  0.00  0.00    +0.105 A 
ATOM     10  N   UNL     1      -8.152  -1.608  -0.264  0.00  0.00    -0.284 N 
ATOM     11  H   UNL     1      -9.235  -1.679  -0.079  0.00  0.00    +0.188 HD
ATOM     12  N   UNL     1      -7.215  -0.613   0.041  0.00  0.00    -0.174 NA
ENDBRANCH   6   7
BRANCH   3  13
ATOM     13  N   UNL     1      -1.191   1.867   0.018  0.00  0.00    -0.285 N 
ATOM     14  C   UNL     1      -0.027   1.205   0.177  0.00  0.00    +0.221 C 
ATOM     15  O   UNL     1      -0.029   0.002   0.327  0.00  0.00    -0.275 OA
ATOM     16  H   UNL     1      -1.197   2.966  -0.031  0.00  0.00    +0.155 HD
BRANCH  14  17
ATOM     17  C   UNL     1       1.277   1.961   0.164  0.00  0.00    +0.079 C 
ATOM     18  C   UNL     1       1.495   2.635  -1.210  0.00  0.00    +0.016 C 
ATOM     19  C   UNL     1       2.808   1.991  -1.759  0.00  0.00    -0.010 C 
ATOM     20  C   UNL     1       3.935   2.573  -0.852  0.00  0.00    +0.004 C 
ATOM     21  C   UNL     1       3.712   1.901   0.544  0.00  0.00    +0.004 C 
ATOM     22  C   UNL     1       2.477   0.977   0.318  0.00  0.00    +0.001 C 
ATOM     23  C   UNL     1       2.686   0.539  -1.175  0.00  0.00    +0.008 C 
ENDBRANCH  14  17
ENDBRANCH   3  13
TORSDOF 3
