REMARK  Name = ZINC01463289
REMARK  6 active torsions:
REMARK  status: ('A' for Active; 'I' for Inactive)
REMARK    1  A    between atoms: C_3  and  C_6
REMARK    2  A    between atoms: C_6  and  N_50
REMARK    3  A    between atoms: C_9  and  C_22
REMARK    4  A    between atoms: C_9  and  O_29
REMARK    5  A    between atoms: C_10  and  C_13
REMARK    6  A    between atoms: C_13  and  C_15
REMARK                            x       y       z     vdW  Elec       q    Type
REMARK                         _______ _______ _______ _____ _____    ______ ____
ROOT
ATOM      1  C   UNL     1      -2.997  -1.886   1.459  0.00  0.00    -0.075 C 
ATOM      2  C   UNL     1      -1.714  -1.051   1.457  0.00  0.00    +0.022 C 
ATOM      3  C   UNL     1      -1.293  -0.775   0.011  0.00  0.00    +0.097 C 
ATOM      4  C   UNL     1      -1.100  -2.107  -0.720  0.00  0.00    +0.080 C 
ATOM      5  C   UNL     1      -2.401  -2.911  -0.655  0.00  0.00    -0.064 C 
ATOM      6  N   UNL     1      -2.738  -3.164   0.762  0.00  0.00    +0.385 N 
ATOM      7  H   UNL     1      -1.945  -3.635   1.214  0.00  0.00    -0.081 HD
ENDROOT
BRANCH   3   8
ATOM      8  C   UNL     1       0.002  -0.004   0.002  0.00  0.00    -0.015 A 
ATOM      9  C   UNL     1      -0.017   1.378   0.010  0.00  0.00    +0.008 A 
ATOM     10  C   UNL     1       1.171   2.086   0.002  0.00  0.00    +0.020 A 
ATOM     11  C   UNL     1       2.378   1.410  -0.013  0.00  0.00    +0.041 A 
ATOM     12  C   UNL     1       2.396   0.027  -0.021  0.00  0.00    +0.020 A 
ATOM     13  C   UNL     1       1.208  -0.679  -0.013  0.00  0.00    +0.008 A 
ATOM     14 CL   UNL     1       3.870   2.298  -0.022  0.00  0.00    -0.084 Cl
ENDBRANCH   3   8
BRANCH   4  15
ATOM     15  C   UNL     1      -0.742  -1.843  -2.160  0.00  0.00    +0.167 C 
ATOM     16  O   UNL     1      -1.075  -0.803  -2.687  0.00  0.00    -0.292 OA
BRANCH  15  17
ATOM     17  C   UNL     1       0.012  -2.848  -2.926  0.00  0.00    +0.018 A 
ATOM     18  C   UNL     1       0.403  -4.046  -2.319  0.00  0.00    +0.013 A 
ATOM     19  C   UNL     1       1.104  -4.985  -3.044  0.00  0.00    +0.020 A 
ATOM     20  C   UNL     1       1.432  -4.739  -4.368  0.00  0.00    +0.041 A 
ATOM     21  C   UNL     1       1.053  -3.552  -4.974  0.00  0.00    +0.020 A 
ATOM     22  C   UNL     1       0.346  -2.607  -4.263  0.00  0.00    +0.013 A 
ATOM     23 CL   UNL     1       2.321  -5.925  -5.272  0.00  0.00    -0.084 Cl
ENDBRANCH  15  17
ENDBRANCH   4  15
BRANCH   3  24
ATOM     24  O   UNL     1      -2.307  -0.012  -0.646  0.00  0.00    -0.383 OA
ATOM     25  H   UNL     1      -2.483   0.845  -0.234  0.00  0.00    +0.211 HD
ENDBRANCH   3  24
BRANCH   6  26
ATOM     26  C   UNL     1      -3.928  -4.036   0.850  0.00  0.00    -0.003 C 
BRANCH  26  29
ATOM     27  C   UNL     1      -5.487  -3.611   4.162  0.00  0.00    +0.041 A 
ATOM     28  C   UNL     1      -5.327  -3.229   2.810  0.00  0.00    +0.042 A 
ATOM     29  C   UNL     1      -4.417  -4.063   2.275  0.00  0.00    +0.089 A 
ATOM     30  O   UNL     1      -4.013  -4.919   3.228  0.00  0.00    -0.470 OA
ATOM     31  C   UNL     1      -4.659  -4.649   4.374  0.00  0.00    +0.195 A 
ENDBRANCH  26  29
ENDBRANCH   6  26
TORSDOF 6
