REMARK  Name = ZINC14944207
REMARK  5 active torsions:
REMARK  status: ('A' for Active; 'I' for Inactive)
REMARK    1  A    between atoms: N_6  and  C_7
REMARK    2  A    between atoms: C_7  and  C_8
REMARK    3  A    between atoms: C_8  and  C_9
REMARK    4  A    between atoms: C_26  and  C_29
REMARK    5  A    between atoms: C_33  and  C_35
REMARK                            x       y       z     vdW  Elec       q    Type
REMARK                         _______ _______ _______ _____ _____    ______ ____
ROOT
ATOM      1  C   UNL     1      -1.374   2.361   0.569  0.00  0.00    -0.046 A 
ATOM      2  C   UNL     1      -0.511   2.317   1.649  0.00  0.00    +0.005 A 
ATOM      3  C   UNL     1      -0.965   2.604   2.921  0.00  0.00    +0.023 A 
ATOM      4  C   UNL     1      -2.294   2.943   3.127  0.00  0.00    +0.031 A 
ATOM      5  C   UNL     1      -3.159   2.991   2.016  0.00  0.00    -0.023 A 
ATOM      6  C   UNL     1      -2.703   2.705   0.759  0.00  0.00    +0.009 A 
ATOM      7  C   UNL     1      -4.552   3.384   2.352  0.00  0.00    +0.029 C 
ATOM      8  C   UNL     1      -5.471   3.971   1.276  0.00  0.00    -0.003 C 
ATOM      9  C   UNL     1      -4.883   5.317   0.773  0.00  0.00    +0.004 C 
ATOM     10  C   UNL     1      -5.152   6.352   1.897  0.00  0.00    +0.004 C 
ATOM     11  C   UNL     1      -5.636   5.444   3.093  0.00  0.00    -0.005 C 
ATOM     12  C   UNL     1      -6.582   4.520   2.266  0.00  0.00    +0.008 C 
ATOM     13  C   UNL     1      -4.382   4.598   3.307  0.00  0.00    +0.024 C 
ATOM     14  C   UNL     1      -3.933   4.112   4.643  0.00  0.00    +0.105 C 
ATOM     15  N   UNL     1      -2.773   3.220   4.411  0.00  0.00    -0.336 N 
ATOM     16  H   UNL     1      -2.331   2.815   5.174  0.00  0.00    +0.147 HD
ENDROOT
BRANCH  14  17
ATOM     17  C   UNL     1      -5.046   3.345   5.312  0.00  0.00    -0.026 A 
ATOM     18  C   UNL     1      -5.209   1.996   5.050  0.00  0.00    +0.005 A 
ATOM     19  C   UNL     1      -6.228   1.285   5.659  0.00  0.00    +0.001 A 
ATOM     20  C   UNL     1      -7.088   1.918   6.532  0.00  0.00    +0.015 A 
ATOM     21  C   UNL     1      -6.929   3.278   6.801  0.00  0.00    +0.063 A 
ATOM     22  C   UNL     1      -5.895   3.989   6.187  0.00  0.00    +0.020 A 
BRANCH  21  23
ATOM     23  C   UNL     1      -7.846   3.962   7.736  0.00  0.00    +0.387 C 
ATOM     24  O   UNL     1      -7.705   5.146   7.968  0.00  0.00    -0.241 OA
ATOM     25  O   UNL     1      -8.838   3.272   8.331  0.00  0.00    -0.241 OA
ENDBRANCH  21  23
ENDBRANCH  14  17
BRANCH   1  26
ATOM     26  C   UNL     1      -0.868   2.040  -0.814  0.00  0.00    +0.054 C 
BRANCH  26  27
ATOM     27  C   UNL     1      -1.022   0.540  -1.079  0.00  0.00    +0.107 C 
BRANCH  27  33
ATOM     28  C   UNL     1      -1.108  -3.386  -2.555  0.00  0.00    +0.005 A 
ATOM     29  C   UNL     1      -0.631  -3.632  -3.836  0.00  0.00    +0.018 A 
ATOM     30  C   UNL     1      -0.142  -2.584  -4.589  0.00  0.00    +0.084 A 
ATOM     31  C   UNL     1      -0.569  -1.080  -2.891  0.00  0.00    +0.096 A 
ATOM     32  C   UNL     1      -1.070  -2.089  -2.075  0.00  0.00    +0.041 A 
ATOM     33  N   UNL     1      -0.531   0.229  -2.423  0.00  0.00    -0.330 N 
ATOM     34  H   UNL     1      -0.178   0.935  -2.987  0.00  0.00    +0.147 HD
ATOM     35  N   UNL     1      -0.095  -1.297  -4.151  0.00  0.00    -0.350 N 
ATOM     36  H   UNL     1       0.275  -0.536  -4.734  0.00  0.00    +0.166 HD
ENDBRANCH  27  33
ENDBRANCH  26  27
ENDBRANCH   1  26
TORSDOF 5
