REMARK  Name = ZINC40692032
REMARK  7 active torsions:
REMARK  status: ('A' for Active; 'I' for Inactive)
REMARK    1  A    between atoms: C_1  and  C_2
REMARK    2  A    between atoms: C_7  and  S_8
REMARK    3  A    between atoms: S_8  and  N_11
REMARK    4  A    between atoms: N_11  and  C_12
REMARK    5  A    between atoms: N_11  and  C_13
REMARK    6  A    between atoms: C_13  and  C_14
REMARK    7  A    between atoms: C_19  and  O_20
REMARK                            x       y       z     vdW  Elec       q    Type
REMARK                         _______ _______ _______ _____ _____    ______ ____
ROOT
ATOM      1  S   UNL     1       0.271   0.160   2.656  0.00  0.00    +0.061 S 
ATOM      2  O   UNL     1      -0.853   1.026   2.578  0.00  0.00    -0.153 OA
ATOM      3  O   UNL     1       0.458  -0.750   3.731  0.00  0.00    -0.153 OA
ENDROOT
BRANCH   1  10
ATOM      4  C   UNL     1      -0.059   1.314  -0.120  0.00  0.00    +0.046 C 
ATOM      5  C   UNL     1       0.114  -0.181  -0.048  0.00  0.00    -0.024 A 
ATOM      6  C   UNL     1       0.119  -0.933  -1.208  0.00  0.00    +0.006 A 
ATOM      7  C   UNL     1       0.278  -2.305  -1.142  0.00  0.00    +0.015 A 
ATOM      8  C   UNL     1       0.431  -2.925   0.085  0.00  0.00    +0.020 A 
ATOM      9  C   UNL     1       0.425  -2.172   1.246  0.00  0.00    +0.044 A 
ATOM     10  C   UNL     1       0.272  -0.800   1.178  0.00  0.00    +0.109 A 
ATOM     11 BR   UNL     1       0.648  -4.801   0.176  0.00  0.00    -0.050 Br
ENDBRANCH   1  10
BRANCH   1  12
ATOM     12  N   UNL     1       1.616   1.125   2.613  0.00  0.00    -0.175 NA
ATOM     13  C   UNL     1       1.501   2.523   2.192  0.00  0.00    +0.132 C 
BRANCH  12  14
ATOM     14  C   UNL     1       2.921   0.580   2.996  0.00  0.00    +0.147 C 
BRANCH  14  15
ATOM     15  C   UNL     1       3.654   0.119   1.763  0.00  0.00    +0.010 A 
ATOM     16  C   UNL     1       3.666  -1.222   1.427  0.00  0.00    +0.008 A 
ATOM     17  C   UNL     1       4.339  -1.645   0.296  0.00  0.00    +0.001 A 
ATOM     18  C   UNL     1       5.002  -0.730  -0.501  0.00  0.00    +0.004 A 
ATOM     19  C   UNL     1       4.992   0.611  -0.170  0.00  0.00    +0.046 A 
ATOM     20  C   UNL     1       4.313   1.040   0.962  0.00  0.00    +0.121 A 
BRANCH  20  21
ATOM     21  O   UNL     1       4.298   2.359   1.287  0.00  0.00    -0.506 OA
ATOM     22  H   UNL     1       5.028   2.631   1.860  0.00  0.00    +0.292 HD
ENDBRANCH  20  21
ENDBRANCH  14  15
ENDBRANCH  12  14
ENDBRANCH   1  12
TORSDOF 5
