REMARK  Name = ZINC03085640
REMARK  13 active torsions:
REMARK  status: ('A' for Active; 'I' for Inactive)
REMARK    1  A    between atoms: C_1  and  C_2
REMARK    2  A    between atoms: C_4  and  C_24
REMARK    3  A    between atoms: C_5  and  C_22
REMARK    4  A    between atoms: C_6  and  S_8
REMARK    5  A    between atoms: S_8  and  S_9
REMARK    6  A    between atoms: S_9  and  C_10
REMARK    7  A    between atoms: C_12  and  C_20
REMARK    8  A    between atoms: C_13  and  C_17
REMARK    9  A    between atoms: C_15  and  C_16
REMARK   10  A    between atoms: C_17  and  O_18
REMARK   11  A    between atoms: O_18  and  C_19
REMARK   12  A    between atoms: C_24  and  O_25
REMARK   13  A    between atoms: O_25  and  C_26
REMARK                            x       y       z     vdW  Elec       q    Type
REMARK                         _______ _______ _______ _____ _____    ______ ____
ROOT
ATOM      1  S   UNL     1      -3.484   5.100   3.989  0.00  0.00    -0.064 S 
ENDROOT
BRANCH   1   7
ATOM      2  C   UNL     1      -4.197   0.962   4.956  0.00  0.00    +0.059 C 
ATOM      3  C   UNL     1      -3.939   2.272   5.655  0.00  0.00    -0.014 C 
ATOM      4  C   UNL     1      -4.859   2.791   6.499  0.00  0.00    +0.023 C 
ATOM      5  C   UNL     1      -4.629   4.033   7.121  0.00  0.00    -0.005 C 
ATOM      6  C   UNL     1      -3.623   4.840   6.694  0.00  0.00    +0.064 C 
ATOM      7  C   UNL     1      -2.777   4.422   5.515  0.00  0.00    +0.165 C 
ATOM      8  N   UNL     1      -2.710   2.922   5.430  0.00  0.00    -0.394 NA
ATOM      9  H   UNL     1      -2.381   2.667   4.492  0.00  0.00    +0.124 HD
ATOM     10  H   UNL     1      -2.039   2.589   6.132  0.00  0.00    +0.124 HD
BRANCH   6  11
ATOM     11  C   UNL     1      -3.365   6.082   7.360  0.00  0.00    +0.098 C 
ATOM     12  N   UNL     1      -3.160   7.067   7.888  0.00  0.00    -0.191 NA
ENDBRANCH   6  11
BRANCH   5  13
ATOM     13  C   UNL     1      -5.503   4.469   8.268  0.00  0.00    +0.195 C 
BRANCH  13  14
ATOM     14  O   UNL     1      -6.867   4.502   7.842  0.00  0.00    -0.378 OA
ATOM     15  C   UNL     1      -7.785   4.905   8.860  0.00  0.00    +0.194 C 
ENDBRANCH  13  14
ENDBRANCH   5  13
ENDBRANCH   1   7
BRANCH   1  16
ATOM     16  S   UNL     1      -2.139   4.562   2.538  0.00  0.00    -0.064 S 
BRANCH  16  17
ATOM     17  C   UNL     1      -0.899   5.886   2.578  0.00  0.00    +0.165 C 
ATOM     18  C   UNL     1       0.231   5.549   1.635  0.00  0.00    +0.064 C 
ATOM     19  C   UNL     1       0.191   5.994   0.351  0.00  0.00    -0.005 C 
ATOM     20  C   UNL     1      -0.872   6.805  -0.089  0.00  0.00    +0.023 C 
ATOM     21  C   UNL     1      -1.724   7.355   0.803  0.00  0.00    -0.014 C 
ATOM     22  C   UNL     1      -2.889   8.188   0.334  0.00  0.00    +0.059 C 
ATOM     23  N   UNL     1      -1.529   7.194   2.188  0.00  0.00    -0.394 NA
ATOM     24  H   UNL     1      -0.922   7.954   2.517  0.00  0.00    +0.124 HD
ATOM     25  H   UNL     1      -2.443   7.261   2.650  0.00  0.00    +0.124 HD
BRANCH  18  26
ATOM     26  C   UNL     1       1.339   4.765   2.090  0.00  0.00    +0.098 C 
ATOM     27  N   UNL     1       2.218   4.143   2.452  0.00  0.00    -0.191 NA
ENDBRANCH  18  26
BRANCH  19  28
ATOM     28  C   UNL     1       1.294   5.620  -0.605  0.00  0.00    +0.195 C 
BRANCH  28  29
ATOM     29  O   UNL     1       0.741   4.918  -1.720  0.00  0.00    -0.378 OA
ATOM     30  C   UNL     1       1.708   4.517  -2.692  0.00  0.00    +0.194 C 
ENDBRANCH  28  29
ENDBRANCH  19  28
ENDBRANCH  16  17
ENDBRANCH   1  16
TORSDOF 9
