REMARK  Name = ZINC03417737
REMARK  10 active torsions:
REMARK  status: ('A' for Active; 'I' for Inactive)
REMARK    1  A    between atoms: C_1  and  C_2
REMARK    2  A    between atoms: C_2  and  C_4
REMARK    3  A    between atoms: C_2  and  O_33
REMARK    4  A    between atoms: C_4  and  C_6
REMARK    5  A    between atoms: C_4  and  N_22
REMARK    6  A    between atoms: C_6  and  O_8
REMARK    7  A    between atoms: O_8  and  C_9
REMARK    8  A    between atoms: C_9  and  C_10
REMARK    9  A    between atoms: N_22  and  S_23
REMARK   10  A    between atoms: S_23  and  C_26
REMARK                            x       y       z     vdW  Elec       q    Type
REMARK                         _______ _______ _______ _____ _____    ______ ____
ROOT
ATOM      1  C   UNL     1      -1.535  -0.774  -0.285  0.00  0.00    +0.213 C 
ENDROOT
BRANCH   1   3
ATOM      2  C   UNL     1      -2.534   0.965   1.205  0.00  0.00    +0.040 C 
ATOM      3  C   UNL     1      -2.186  -0.519   1.076  0.00  0.00    +0.141 C 
BRANCH   3   4
ATOM      4  O   UNL     1      -1.276  -0.888   2.115  0.00  0.00    -0.390 OA
ATOM      5  H   UNL     1      -1.012  -1.817   2.095  0.00  0.00    +0.210 HD
ENDBRANCH   3   4
ENDBRANCH   1   3
BRANCH   1   6
ATOM      6  C   UNL     1      -0.216  -0.049  -0.355  0.00  0.00    +0.329 C 
ATOM      7  O   UNL     1       0.806  -0.670  -0.531  0.00  0.00    -0.249 OA
BRANCH   6   8
ATOM      8  O   UNL     1      -0.176   1.286  -0.221  0.00  0.00    -0.459 OA
BRANCH   8   9
ATOM      9  C   UNL     1       1.130   1.917  -0.299  0.00  0.00    +0.268 C 
BRANCH   9  10
ATOM     10  C   UNL     1       0.978   3.407  -0.128  0.00  0.00    +0.007 A 
ATOM     11  C   UNL     1      -0.243   3.966   0.064  0.00  0.00    +0.099 A 
ATOM     12  C   UNL     1      -0.358   5.364   0.222  0.00  0.00    +0.338 A 
ATOM     13  O   UNL     1      -1.460   5.853   0.393  0.00  0.00    -0.245 OA
ATOM     14  O   UNL     1       0.716   6.168   0.187  0.00  0.00    -0.422 OA
ATOM     15  C   UNL     1       1.959   5.675  -0.001  0.00  0.00    +0.140 A 
ATOM     16  C   UNL     1       2.147   4.291  -0.159  0.00  0.00    +0.024 A 
ATOM     17  C   UNL     1       3.433   3.779  -0.359  0.00  0.00    +0.013 A 
ATOM     18  C   UNL     1       4.503   4.628  -0.389  0.00  0.00    +0.016 A 
ATOM     19  C   UNL     1       4.322   5.995  -0.227  0.00  0.00    +0.021 A 
ATOM     20  C   UNL     1       3.060   6.520  -0.034  0.00  0.00    +0.062 A 
ATOM     21 BR   UNL     1       5.819   7.150  -0.272  0.00  0.00    -0.050 Br
ENDBRANCH   9  10
ENDBRANCH   8   9
ENDBRANCH   6   8
ENDBRANCH   1   6
BRANCH   1  22
ATOM     22  N   UNL     1      -1.312  -2.212  -0.459  0.00  0.00    -0.174 NA
ATOM     23  H   UNL     1      -0.511  -2.625  -0.102  0.00  0.00    +0.149 HD
BRANCH  22  24
ATOM     24  S   UNL     1      -2.430  -3.131  -1.264  0.00  0.00    +0.059 S 
ATOM     25  O   UNL     1      -1.902  -4.449  -1.326  0.00  0.00    -0.153 OA
ATOM     26  O   UNL     1      -3.692  -2.843  -0.677  0.00  0.00    -0.153 OA
BRANCH  24  27
ATOM     27  C   UNL     1      -2.497  -2.537  -2.921  0.00  0.00    +0.105 A 
ATOM     28  C   UNL     1      -3.388  -1.536  -3.260  0.00  0.00    +0.030 A 
ATOM     29  C   UNL     1      -3.437  -1.065  -4.559  0.00  0.00    +0.022 A 
ATOM     30  C   UNL     1      -2.602  -1.605  -5.522  0.00  0.00    +0.041 A 
ATOM     31  C   UNL     1      -1.715  -2.611  -5.183  0.00  0.00    +0.022 A 
ATOM     32  C   UNL     1      -1.663  -3.076  -3.883  0.00  0.00    +0.030 A 
ATOM     33 CL   UNL     1      -2.668  -1.019  -7.155  0.00  0.00    -0.084 Cl
ENDBRANCH  24  27
ENDBRANCH  22  24
ENDBRANCH   1  22
TORSDOF 9
