REMARK  Name = ZINC36839472
REMARK  8 active torsions:
REMARK  status: ('A' for Active; 'I' for Inactive)
REMARK    1  A    between atoms: C_1  and  C_2
REMARK    2  A    between atoms: C_2  and  O_3
REMARK    3  A    between atoms: O_3  and  C_4
REMARK    4  A    between atoms: C_7  and  C_10
REMARK    5  A    between atoms: C_11  and  C_33
REMARK    6  A    between atoms: C_16  and  C_18
REMARK    7  A    between atoms: C_18  and  N_19
REMARK    8  A    between atoms: C_27  and  C_29
REMARK                            x       y       z     vdW  Elec       q    Type
REMARK                         _______ _______ _______ _____ _____    ______ ____
ROOT
ATOM      1  C   UNL     1      -1.998  -6.072  -0.011  0.00  0.00    +0.083 A 
ATOM      2  C   UNL     1      -3.039  -6.647   0.665  0.00  0.00    +0.016 A 
ATOM      3  S   UNL     1      -2.749  -8.376   0.312  0.00  0.00    -0.057 S 
ATOM      4  C   UNL     1      -1.285  -8.156  -0.690  0.00  0.00    +0.165 A 
ATOM      5  N   UNL     1      -1.150  -6.843  -0.675  0.00  0.00    -0.224 NA
ATOM      6  N   UNL     1      -0.499  -9.114  -1.320  0.00  0.00    -0.263 N 
ATOM      7  C   UNL     1      -0.814 -10.420  -1.214  0.00  0.00    +0.237 C 
ATOM      8  O   UNL     1      -1.783 -10.760  -0.569  0.00  0.00    -0.274 OA
ATOM      9  C   UNL     1      -4.129  -6.001   1.481  0.00  0.00    +0.054 C 
ATOM     10  H   UNL     1       0.276  -8.842  -1.836  0.00  0.00    +0.157 HD
ENDROOT
BRANCH   1  14
ATOM     11  C   UNL     1      -1.498  -1.848   0.006  0.00  0.00    +0.121 A 
ATOM     12  C   UNL     1      -0.385  -2.678  -0.003  0.00  0.00    +0.046 A 
ATOM     13  C   UNL     1      -0.544  -4.048  -0.008  0.00  0.00    +0.013 A 
ATOM     14  C   UNL     1      -1.824  -4.599  -0.004  0.00  0.00    +0.001 A 
ATOM     15  C   UNL     1      -2.940  -3.764   0.005  0.00  0.00    +0.013 A 
ATOM     16  C   UNL     1      -2.774  -2.395   0.016  0.00  0.00    +0.046 A 
BRANCH  11  17
ATOM     17  O   UNL     1      -1.339  -0.499   0.012  0.00  0.00    -0.492 OA
BRANCH  17  19
ATOM     18  C   UNL     1      -0.019   1.526   0.010  0.00  0.00    +0.048 C 
ATOM     19  C   UNL     1       0.002  -0.004   0.002  0.00  0.00    +0.225 C 
ENDBRANCH  17  19
ENDBRANCH  11  17
ENDBRANCH   1  14
BRANCH   7  20
ATOM     20  C   UNL     1       0.038 -11.458  -1.897  0.00  0.00    +0.214 C 
BRANCH  20  21
ATOM     21  N   UNL     1      -0.509 -12.791  -1.632  0.00  0.00    -0.215 N 
ATOM     22  C   UNL     1      -0.160 -13.557  -0.578  0.00  0.00    +0.247 C 
ATOM     23  O   UNL     1       0.636 -13.286   0.295  0.00  0.00    -0.273 OA
ATOM     24  C   UNL     1      -0.970 -14.826  -0.717  0.00  0.00    +0.115 C 
ATOM     25  C   UNL     1      -1.890 -15.003   0.486  0.00  0.00    +0.035 C 
ATOM     26  C   UNL     1      -2.722 -16.276   0.311  0.00  0.00    +0.003 C 
ATOM     27  C   UNL     1      -1.788 -17.481   0.182  0.00  0.00    +0.000 C 
ATOM     28  C   UNL     1      -0.887 -17.300  -1.042  0.00  0.00    +0.006 C 
ATOM     29  C   UNL     1      -0.048 -16.031  -0.873  0.00  0.00    +0.018 C 
ATOM     30  C   UNL     1       0.839 -15.838  -2.105  0.00  0.00    +0.010 C 
ATOM     31  N   UNL     1      -1.754 -14.617  -1.940  0.00  0.00    -0.285 N 
ATOM     32  C   UNL     1      -1.421 -13.396  -2.402  0.00  0.00    +0.310 C 
ATOM     33  O   UNL     1      -1.894 -12.902  -3.406  0.00  0.00    -0.252 OA
ATOM     34  H   UNL     1      -2.390 -15.234  -2.335  0.00  0.00    +0.151 HD
ENDBRANCH  20  21
ENDBRANCH   7  20
TORSDOF 5
