REMARK  Name = ZINC08583924
REMARK  10 active torsions:
REMARK  status: ('A' for Active; 'I' for Inactive)
REMARK    1  A    between atoms: C_1  and  C_2
REMARK    2  A    between atoms: C_2  and  C_4
REMARK    3  A    between atoms: C_2  and  N_19
REMARK    4  A    between atoms: C_8  and  N_9
REMARK    5  A    between atoms: N_15  and  C_18
REMARK    6  A    between atoms: N_22  and  C_23
REMARK    7  A    between atoms: C_25  and  O_31
REMARK    8  A    between atoms: C_27  and  O_29
REMARK    9  A    between atoms: O_29  and  C_30
REMARK   10  A    between atoms: O_31  and  C_32
REMARK                            x       y       z     vdW  Elec       q    Type
REMARK                         _______ _______ _______ _____ _____    ______ ____
ROOT
ATOM      1  C   UNL     1       0.724  -0.393   1.155  0.00  0.00    +0.033 C 
ATOM      2  C   UNL     1       0.762   0.105  -0.291  0.00  0.00    +0.104 C 
ENDROOT
BRANCH   2   3
ATOM      3  C   UNL     1       2.170   0.509  -0.645  0.00  0.00    +0.007 A 
ATOM      4  C   UNL     1       2.808   1.519   0.069  0.00  0.00    -0.034 A 
ATOM      5  C   UNL     1       4.079   1.830  -0.311  0.00  0.00    -0.021 A 
ATOM      6  S   UNL     1       4.402   0.724  -1.655  0.00  0.00    -0.077 S 
ATOM      7  C   UNL     1       2.825  -0.116  -1.661  0.00  0.00    +0.090 A 
ATOM      8  C   UNL     1       4.962   2.873   0.291  0.00  0.00    -0.036 C 
ATOM      9  N   UNL     1       4.127   3.768   1.115  0.00  0.00    +0.381 N 
ATOM     10  C   UNL     1       3.292   2.965   2.017  0.00  0.00    -0.074 C 
ATOM     11  C   UNL     1       2.172   2.277   1.232  0.00  0.00    +0.018 C 
ATOM     12  C   UNL     1       4.992   4.653   1.906  0.00  0.00    -0.096 C 
ATOM     13  H   UNL     1       3.536   4.324   0.514  0.00  0.00    -0.082 HD
BRANCH   7  14
ATOM     14  N   UNL     1       2.378  -1.148  -2.494  0.00  0.00    -0.317 N 
ATOM     15  C   UNL     1       1.855  -0.991  -3.746  0.00  0.00    +0.092 A 
ATOM     16  C   UNL     1       1.543  -2.212  -4.228  0.00  0.00    +0.019 A 
ATOM     17  C   UNL     1       1.885  -3.157  -3.241  0.00  0.00    +0.019 A 
ATOM     18  C   UNL     1       2.400  -2.480  -2.193  0.00  0.00    +0.092 A 
ENDBRANCH   7  14
ENDBRANCH   2   3
BRANCH   2  19
ATOM     19  N   UNL     1       0.321  -0.966  -1.188  0.00  0.00    -0.292 N 
ATOM     20  C   UNL     1      -0.643  -0.728  -2.099  0.00  0.00    +0.304 C 
ATOM     21  O   UNL     1      -1.146   0.376  -2.177  0.00  0.00    -0.252 OA
ATOM     22  N   UNL     1      -1.049  -1.713  -2.924  0.00  0.00    -0.269 N 
ATOM     23  H   UNL     1       0.723  -1.847  -1.126  0.00  0.00    +0.151 HD
ATOM     24  H   UNL     1      -0.738  -2.621  -2.785  0.00  0.00    +0.156 HD
BRANCH  22  25
ATOM     25  C   UNL     1      -1.919  -1.426  -3.982  0.00  0.00    +0.042 A 
ATOM     26  C   UNL     1      -1.749  -2.050  -5.210  0.00  0.00    +0.069 A 
ATOM     27  C   UNL     1      -2.611  -1.766  -6.258  0.00  0.00    +0.125 A 
ATOM     28  C   UNL     1      -3.644  -0.857  -6.079  0.00  0.00    +0.091 A 
ATOM     29  C   UNL     1      -3.814  -0.233  -4.852  0.00  0.00    +0.125 A 
ATOM     30  C   UNL     1      -2.955  -0.521  -3.802  0.00  0.00    +0.069 A 
BRANCH  29  31
ATOM     31  O   UNL     1      -4.826   0.657  -4.678  0.00  0.00    -0.495 OA
ATOM     32  C   UNL     1      -5.676   0.902  -5.800  0.00  0.00    +0.277 C 
ENDBRANCH  29  31
BRANCH  27  33
ATOM     33  O   UNL     1      -2.445  -2.377  -7.460  0.00  0.00    -0.495 OA
ATOM     34  C   UNL     1      -3.370  -2.036  -8.494  0.00  0.00    +0.277 C 
ENDBRANCH  27  33
ENDBRANCH  22  25
ENDBRANCH   2  19
TORSDOF 6
