REMARK  Name = ZINC39606072
REMARK  8 active torsions:
REMARK  status: ('A' for Active; 'I' for Inactive)
REMARK    1  A    between atoms: C_1  and  C_2
REMARK    2  A    between atoms: C_2  and  C_3
REMARK    3  A    between atoms: C_3  and  C_5
REMARK    4  A    between atoms: C_3  and  C_6
REMARK    5  A    between atoms: C_6  and  N_7
REMARK    6  A    between atoms: C_8  and  C_10
REMARK    7  A    between atoms: C_21  and  C_23
REMARK    8  A    between atoms: C_23  and  C_29
REMARK                            x       y       z     vdW  Elec       q    Type
REMARK                         _______ _______ _______ _____ _____    ______ ____
ROOT
ATOM      1  C   UNL     1      -5.021  -4.290   0.526  0.00  0.00    +0.100 C 
ATOM      2  C   UNL     1      -5.577  -3.813  -0.835  0.00  0.00    +0.121 C 
ATOM      3  N   UNL     1      -5.477  -4.999  -1.717  0.00  0.00    -0.300 N 
ATOM      4  C   UNL     1      -5.856  -6.138  -0.847  0.00  0.00    +0.115 C 
ATOM      5  C   UNL     1      -5.209  -5.816   0.515  0.00  0.00    -0.004 C 
ATOM      6  C   UNL     1      -3.859  -6.516   0.636  0.00  0.00    -0.010 C 
ATOM      7  C   UNL     1      -4.076  -8.031   0.681  0.00  0.00    -0.082 C 
ATOM      8  N   UNL     1      -4.930  -8.371   1.825  0.00  0.00    +0.379 N 
ATOM      9  C   UNL     1      -6.258  -7.769   1.656  0.00  0.00    -0.082 C 
ATOM     10  C   UNL     1      -6.133  -6.243   1.652  0.00  0.00    -0.010 C 
ATOM     11  C   UNL     1      -5.123  -5.035  -3.017  0.00  0.00    +0.222 C 
ATOM     12  O   UNL     1      -4.763  -4.021  -3.575  0.00  0.00    -0.275 OA
ATOM     13  H   UNL     1      -5.021  -9.374   1.889  0.00  0.00    -0.086 HD
ATOM     14  H   UNL     1      -4.509  -8.020   2.673  0.00  0.00    -0.086 HD
ENDROOT
BRANCH  11  15
ATOM     15  C   UNL     1      -5.175  -6.335  -3.776  0.00  0.00    +0.044 C 
ATOM     16  C   UNL     1      -4.124  -7.296  -3.216  0.00  0.00    +0.016 C 
ATOM     17  C   UNL     1      -2.734  -6.673  -3.364  0.00  0.00    +0.001 C 
ATOM     18  C   UNL     1      -2.448  -6.411  -4.844  0.00  0.00    +0.000 C 
ATOM     19  C   UNL     1      -3.499  -5.451  -5.405  0.00  0.00    +0.001 C 
ATOM     20  C   UNL     1      -4.889  -6.073  -5.256  0.00  0.00    +0.016 C 
ATOM     21  C   UNL     1      -6.565  -6.958  -3.628  0.00  0.00    +0.021 C 
ENDBRANCH  11  15
BRANCH   1  23
ATOM     22  N   UNL     1      -3.022  -3.706   1.860  0.00  0.00    -0.315 N 
ATOM     23  C   UNL     1      -3.560  -3.942   0.647  0.00  0.00    +0.218 C 
ATOM     24  O   UNL     1      -2.868  -3.874  -0.347  0.00  0.00    -0.275 OA
ATOM     25  H   UNL     1      -3.575  -3.761   2.655  0.00  0.00    +0.149 HD
BRANCH  22  26
ATOM     26  C   UNL     1      -1.602  -3.368   1.978  0.00  0.00    +0.107 C 
BRANCH  26  27
ATOM     27  C   UNL     1      -1.250  -3.151   3.451  0.00  0.00    +0.003 C 
ATOM     28  C   UNL     1      -2.002  -1.929   3.981  0.00  0.00    +0.009 C 
BRANCH  27  30
ATOM     29  C   UNL     1       0.627  -2.828   5.069  0.00  0.00    +0.004 C 
ATOM     30  C   UNL     1       0.257  -2.921   3.587  0.00  0.00    +0.001 C 
ENDBRANCH  27  30
ENDBRANCH  26  27
ENDBRANCH  22  26
ENDBRANCH   1  23
TORSDOF 5
