REMARK  Name = ZINC19944478
REMARK  3 active torsions:
REMARK  status: ('A' for Active; 'I' for Inactive)
REMARK    1  A    between atoms: C_1  and  C_2
REMARK    2  A    between atoms: C_6  and  C_9
REMARK    3  A    between atoms: C_11  and  C_15
REMARK                            x       y       z     vdW  Elec       q    Type
REMARK                         _______ _______ _______ _____ _____    ______ ____
ROOT
ATOM      1  C   UNL     1      -2.432  -2.759   0.721  0.00  0.00    +0.045 C 
ATOM      2  C   UNL     1      -1.159  -2.049   0.341  0.00  0.00    -0.028 A 
ATOM      3  C   UNL     1      -1.195  -0.710   0.013  0.00  0.00    +0.051 A 
ATOM      4  C   UNL     1      -0.027  -0.045  -0.340  0.00  0.00    +0.141 A 
ATOM      5  C   UNL     1       1.190  -0.751  -0.359  0.00  0.00    +0.041 A 
ATOM      6  C   UNL     1       1.211  -2.112  -0.022  0.00  0.00    -0.020 A 
ATOM      7  C   UNL     1       0.041  -2.748   0.324  0.00  0.00    +0.048 A 
ATOM      8 CL   UNL     1       0.064  -4.433   0.742  0.00  0.00    -0.083 Cl
ATOM      9  C   UNL     1       2.510  -2.876  -0.039  0.00  0.00    +0.046 C 
ATOM     10  C   UNL     1       2.392  -0.087  -0.717  0.00  0.00    +0.069 A 
ATOM     11  C   UNL     1       2.334   1.264  -1.046  0.00  0.00    +0.117 A 
ATOM     12  C   UNL     1       1.034   1.945  -1.008  0.00  0.00    +0.349 A 
ATOM     13  O   UNL     1       0.958   3.125  -1.291  0.00  0.00    -0.244 OA
ATOM     14  O   UNL     1      -0.072   1.266  -0.661  0.00  0.00    -0.422 OA
ATOM     15 CL   UNL     1       3.902  -0.943  -0.745  0.00  0.00    -0.082 Cl
ENDROOT
BRANCH  11  16
ATOM     16  C   UNL     1       3.546   1.992  -1.423  0.00  0.00    +0.267 C 
ATOM     17  O   UNL     1       4.615   1.418  -1.451  0.00  0.00    -0.295 OA
ENDBRANCH  11  16
TORSDOF 1
