REMARK  Name = ZINC24713381
REMARK  6 active torsions:
REMARK  status: ('A' for Active; 'I' for Inactive)
REMARK    1  A    between atoms: C_1  and  C_2
REMARK    2  A    between atoms: C_2  and  C_3
REMARK    3  A    between atoms: C_6  and  C_9
REMARK    4  A    between atoms: C_11  and  C_14
REMARK    5  A    between atoms: C_14  and  S_15
REMARK    6  A    between atoms: S_15  and  C_16
REMARK                            x       y       z     vdW  Elec       q    Type
REMARK                         _______ _______ _______ _____ _____    ______ ____
ROOT
ATOM      1  C   UNL     1      -6.922  -2.072  -0.517  0.00  0.00    +0.202 A 
ATOM      2  N   UNL     1      -5.665  -2.138  -1.010  0.00  0.00    -0.191 NA
ATOM      3  C   UNL     1      -4.879  -2.194   0.036  0.00  0.00    +0.238 A 
ATOM      4  O   UNL     1      -5.662  -2.152   1.119  0.00  0.00    -0.337 OA
ATOM      5  N   UNL     1      -6.826  -2.083   0.787  0.00  0.00    -0.056 NA
ENDROOT
BRANCH   1   9
ATOM      6  C   UNL     1     -10.515  -1.851  -2.781  0.00  0.00    -0.048 A 
ATOM      7  C   UNL     1     -10.571  -1.854  -1.399  0.00  0.00    +0.004 A 
ATOM      8  C   UNL     1      -9.408  -1.926  -0.659  0.00  0.00    +0.012 A 
ATOM      9  C   UNL     1      -8.176  -1.995  -1.307  0.00  0.00    +0.022 A 
ATOM     10  C   UNL     1      -8.126  -1.986  -2.699  0.00  0.00    +0.012 A 
ATOM     11  C   UNL     1      -9.295  -1.919  -3.429  0.00  0.00    +0.004 A 
BRANCH   6  13
ATOM     12  C   UNL     1     -12.135  -0.307  -3.849  0.00  0.00    +0.009 C 
ATOM     13  C   UNL     1     -11.788  -1.773  -3.584  0.00  0.00    +0.032 C 
ENDBRANCH   6  13
ENDBRANCH   1   9
BRANCH   3  14
ATOM     14  C   UNL     1      -3.375  -2.282   0.022  0.00  0.00    +0.174 C 
BRANCH  14  15
ATOM     15  S   UNL     1      -2.672  -0.614   0.024  0.00  0.00    -0.095 S 
BRANCH  15  16
ATOM     16  C   UNL     1      -0.955  -1.005   0.006  0.00  0.00    +0.115 A 
ATOM     17  C   UNL     1       0.002  -0.004   0.002  0.00  0.00    +0.069 A 
ATOM     18  C   UNL     1       1.379  -0.311  -0.013  0.00  0.00    +0.082 A 
ATOM     19  C   UNL     1       2.243   0.798  -0.015  0.00  0.00    +0.036 A 
ATOM     20  C   UNL     1       1.741   2.047  -0.004  0.00  0.00    +0.048 A 
ATOM     21  S   UNL     1      -0.022   1.768   0.012  0.00  0.00    -0.092 S 
ATOM     22  N   UNL     1       1.685  -1.633  -0.023  0.00  0.00    -0.235 NA
ATOM     23  C   UNL     1       0.751  -2.548  -0.019  0.00  0.00    +0.223 A 
ATOM     24  N   UNL     1      -0.542  -2.274  -0.005  0.00  0.00    -0.228 NA
ENDBRANCH  15  16
ENDBRANCH  14  15
ENDBRANCH   3  14
TORSDOF 5
