REMARK  Name = ZINC47145669
REMARK  2 active torsions:
REMARK  status: ('A' for Active; 'I' for Inactive)
REMARK    1  A    between atoms: C_6  and  C_7
REMARK    2  A    between atoms: N_23  and  C_26
REMARK                            x       y       z     vdW  Elec       q    Type
REMARK                         _______ _______ _______ _____ _____    ______ ____
ROOT
ATOM      1  C   UNL     1      -1.293  -0.775   0.010  0.00  0.00    +0.072 C 
ATOM      2  C   UNL     1      -1.376  -1.547  -1.248  0.00  0.00    +0.033 A 
ATOM      3  C   UNL     1      -1.826  -2.799  -1.458  0.00  0.00    +0.088 A 
ATOM      4  N   UNL     1      -1.817  -3.217  -2.766  0.00  0.00    -0.311 N 
ATOM      5  H   UNL     1      -2.152  -4.098  -2.997  0.00  0.00    +0.170 HD
ATOM      6  C   UNL     1      -1.340  -2.404  -3.726  0.00  0.00    +0.289 A 
ATOM      7  O   UNL     1      -1.250  -2.617  -4.923  0.00  0.00    -0.260 OA
ATOM      8  S   UNL     1      -0.897  -1.021  -2.878  0.00  0.00    -0.030 S 
ATOM      9  S   UNL     1      -2.349  -3.803  -0.090  0.00  0.00    -0.093 S 
ATOM     10  C   UNL     1      -2.447  -2.662   1.283  0.00  0.00    +0.152 C 
ATOM     11  C   UNL     1      -1.354  -1.586   1.302  0.00  0.00    +0.110 C 
ATOM     12  C   UNL     1      -2.044  -0.622   2.294  0.00  0.00    +0.232 C 
ATOM     13  O   UNL     1      -1.497   0.124   3.077  0.00  0.00    -0.274 OA
ATOM     14  N   UNL     1      -3.373  -0.772   2.118  0.00  0.00    -0.209 N 
ATOM     15  C   UNL     1      -3.706  -1.855   1.387  0.00  0.00    +0.240 C 
ATOM     16  O   UNL     1      -4.794  -2.126   0.926  0.00  0.00    -0.274 OA
ENDROOT
BRANCH   1  22
ATOM     17  C   UNL     1      -0.017   1.378   0.010  0.00  0.00    +0.005 A 
ATOM     18  C   UNL     1       1.171   2.086   0.002  0.00  0.00    +0.015 A 
ATOM     19  C   UNL     1       2.378   1.411  -0.013  0.00  0.00    +0.018 A 
ATOM     20  C   UNL     1       2.396   0.027  -0.021  0.00  0.00    +0.015 A 
ATOM     21  C   UNL     1       1.208  -0.679  -0.013  0.00  0.00    +0.005 A 
ATOM     22  C   UNL     1       0.002  -0.004   0.002  0.00  0.00    -0.039 A 
ATOM     23 BR   UNL     1       4.003   2.378  -0.024  0.00  0.00    -0.050 Br
ENDBRANCH   1  22
BRANCH  14  24
ATOM     24  C   UNL     1      -4.320   0.125   2.633  0.00  0.00    +0.044 A 
ATOM     25  C   UNL     1      -3.905   1.233   3.360  0.00  0.00    +0.025 A 
ATOM     26  C   UNL     1      -4.839   2.115   3.866  0.00  0.00    +0.022 A 
ATOM     27  C   UNL     1      -6.188   1.895   3.651  0.00  0.00    +0.041 A 
ATOM     28  C   UNL     1      -6.605   0.791   2.928  0.00  0.00    +0.022 A 
ATOM     29  C   UNL     1      -5.674  -0.090   2.414  0.00  0.00    +0.025 A 
ATOM     30 CL   UNL     1      -7.360   3.005   4.289  0.00  0.00    -0.084 Cl
ENDBRANCH  14  24
TORSDOF 2
