REMARK  Name = ZINC63686639
REMARK  10 active torsions:
REMARK  status: ('A' for Active; 'I' for Inactive)
REMARK    1  A    between atoms: C_1  and  C_2
REMARK    2  A    between atoms: C_2  and  C_3
REMARK    3  A    between atoms: C_8  and  O_9
REMARK    4  A    between atoms: O_9  and  C_10
REMARK    5  A    between atoms: C_10  and  C_11
REMARK    6  A    between atoms: C_15  and  S_20
REMARK    7  A    between atoms: N_17  and  C_18
REMARK    8  A    between atoms: C_18  and  C_19
REMARK    9  A    between atoms: S_20  and  C_21
REMARK   10  A    between atoms: C_21  and  C_22
REMARK                            x       y       z     vdW  Elec       q    Type
REMARK                         _______ _______ _______ _____ _____    ______ ____
ROOT
ATOM      1  C   UNL     1       4.530  -0.142   1.259  0.00  0.00    +0.178 C 
ATOM      2  N   UNL     1       4.104   1.217   1.664  0.00  0.00    -0.234 NA
ATOM      3  N   UNL     1       3.000   0.990   2.609  0.00  0.00    -0.229 NA
ATOM      4  C   UNL     1       3.444  -0.211   3.363  0.00  0.00    +0.200 C 
ATOM      5  N   UNL     1       4.111  -1.055   2.343  0.00  0.00    -0.259 NA
ATOM      6  H   UNL     1       3.794   1.752   0.866  0.00  0.00    +0.142 HD
ATOM      7  H   UNL     1       2.136   0.811   2.119  0.00  0.00    +0.143 HD
ENDROOT
BRANCH   5   8
ATOM      8  C   UNL     1       5.268  -1.758   2.914  0.00  0.00    +0.085 C 
ATOM      9  C   UNL     1       4.779  -2.866   3.850  0.00  0.00    +0.020 C 
ENDBRANCH   5   8
BRANCH   1  10
ATOM     10  C   UNL     1       3.847  -0.536  -0.052  0.00  0.00    +0.265 C 
BRANCH  10  11
ATOM     11  O   UNL     1       4.308  -1.826  -0.460  0.00  0.00    -0.489 OA
BRANCH  11  17
ATOM     12  C   UNL     1       4.162  -3.592  -2.047  0.00  0.00    -0.006 A 
ATOM     13  C   UNL     1       3.659  -4.089  -3.234  0.00  0.00    +0.007 A 
ATOM     14  C   UNL     1       2.818  -3.311  -4.009  0.00  0.00    +0.000 A 
ATOM     15  C   UNL     1       2.479  -2.035  -3.598  0.00  0.00    +0.004 A 
ATOM     16  C   UNL     1       2.980  -1.534  -2.412  0.00  0.00    +0.046 A 
ATOM     17  C   UNL     1       3.819  -2.315  -1.630  0.00  0.00    +0.124 A 
BRANCH  12  19
ATOM     18  C   UNL     1       4.265  -5.143  -0.115  0.00  0.00    +0.009 C 
ATOM     19  C   UNL     1       5.079  -4.440  -1.203  0.00  0.00    +0.035 C 
ENDBRANCH  12  19
ENDBRANCH  11  17
ENDBRANCH  10  11
ENDBRANCH   1  10
BRANCH   4  20
ATOM     20  S   UNL     1       2.018  -1.078   4.074  0.00  0.00    -0.119 S 
BRANCH  20  21
ATOM     21  C   UNL     1       1.100  -1.674   2.628  0.00  0.00    +0.125 C 
BRANCH  21  22
ATOM     22  C   UNL     1      -0.181  -2.326   3.080  0.00  0.00    +0.030 A 
ATOM     23  N   UNL     1      -0.121  -3.555   3.646  0.00  0.00    -0.355 N 
ATOM     24  C   UNL     1      -1.255  -4.206   4.080  0.00  0.00    +0.086 A 
ATOM     25  C   UNL     1      -2.508  -3.586   3.936  0.00  0.00    +0.048 A 
ATOM     26  C   UNL     1      -3.663  -4.235   4.371  0.00  0.00    +0.014 A 
ATOM     27  C   UNL     1      -3.572  -5.476   4.938  0.00  0.00    +0.004 A 
ATOM     28  C   UNL     1      -2.338  -6.095   5.084  0.00  0.00    +0.040 A 
ATOM     29  C   UNL     1      -1.183  -5.471   4.661  0.00  0.00    +0.147 A 
ATOM     30  F   UNL     1       0.012  -6.084   4.808  0.00  0.00    -0.203 F 
ATOM     31  C   UNL     1      -2.562  -2.249   3.320  0.00  0.00    +0.190 A 
ATOM     32  O   UNL     1      -3.624  -1.666   3.171  0.00  0.00    -0.287 OA
ATOM     33  C   UNL     1      -1.342  -1.662   2.910  0.00  0.00    +0.073 A 
ATOM     34  H   UNL     1       0.741  -3.988   3.748  0.00  0.00    +0.166 HD
ENDBRANCH  21  22
ENDBRANCH  20  21
ENDBRANCH   4  20
TORSDOF 8
