REMARK  Name = ZINC09594131
REMARK  6 active torsions:
REMARK  status: ('A' for Active; 'I' for Inactive)
REMARK    1  A    between atoms: N_9  and  C_31
REMARK    2  A    between atoms: C_10  and  C_12
REMARK    3  A    between atoms: C_12  and  N_64
REMARK    4  A    between atoms: N_15  and  S_18
REMARK    5  A    between atoms: S_18  and  C_21
REMARK    6  A    between atoms: C_31  and  C_32
REMARK                            x       y       z     vdW  Elec       q    Type
REMARK                         _______ _______ _______ _____ _____    ______ ____
ROOT
ATOM      1  C   UNL     1      -0.185   5.662   1.792  0.00  0.00    -0.061 C 
ATOM      2  C   UNL     1       0.017   6.855   2.734  0.00  0.00    +0.091 C 
ATOM      3  N   UNL     1       1.301   7.494   2.410  0.00  0.00    -0.180 NA
ATOM      4  C   UNL     1       2.501   6.646   2.334  0.00  0.00    +0.091 C 
ATOM      5  C   UNL     1       2.201   5.462   1.408  0.00  0.00    -0.061 C 
ATOM      6  N   UNL     1       0.990   4.770   1.899  0.00  0.00    +0.386 N 
ATOM      7  H   UNL     1       1.127   4.517   2.884  0.00  0.00    -0.081 HD
ENDROOT
BRANCH   3   8
ATOM      8  S   UNL     1       1.395   9.125   2.139  0.00  0.00    +0.061 S 
ATOM      9  O   UNL     1       0.286   9.712   2.807  0.00  0.00    -0.153 OA
ATOM     10  O   UNL     1       2.736   9.505   2.411  0.00  0.00    -0.153 OA
BRANCH   8  11
ATOM     11  C   UNL     1       1.138   9.382   0.415  0.00  0.00    +0.106 A 
ATOM     12  C   UNL     1       2.215   9.389  -0.453  0.00  0.00    +0.029 A 
ATOM     13  C   UNL     1       2.005   9.587  -1.802  0.00  0.00    +0.006 A 
ATOM     14  C   UNL     1       0.723   9.791  -2.295  0.00  0.00    -0.044 A 
ATOM     15  C   UNL     1      -0.349   9.786  -1.430  0.00  0.00    -0.042 A 
ATOM     16  C   UNL     1      -0.136   9.581  -0.073  0.00  0.00    +0.032 A 
ATOM     17  C   UNL     1      -1.767   9.990  -1.895  0.00  0.00    +0.035 C 
ATOM     18  C   UNL     1      -1.790  10.616  -3.288  0.00  0.00    +0.005 C 
ATOM     19  C   UNL     1      -0.880   9.790  -4.205  0.00  0.00    +0.005 C 
ATOM     20  C   UNL     1       0.568  10.015  -3.776  0.00  0.00    +0.035 C 
ENDBRANCH   8  11
ENDBRANCH   3   8
BRANCH   6  21
ATOM     21  C   UNL     1       0.760   3.539   1.115  0.00  0.00    -0.003 C 
BRANCH  21  31
ATOM     22  C   UNL     1      -3.929   1.166   4.752  0.00  0.00    +0.001 A 
ATOM     23  C   UNL     1      -3.504   2.392   5.249  0.00  0.00    +0.002 A 
ATOM     24  C   UNL     1      -2.500   3.096   4.625  0.00  0.00    +0.028 A 
ATOM     25  C   UNL     1      -1.898   2.574   3.478  0.00  0.00    +0.078 A 
ATOM     26  C   UNL     1      -2.332   1.327   2.975  0.00  0.00    +0.065 A 
ATOM     27  C   UNL     1      -3.351   0.630   3.622  0.00  0.00    +0.015 A 
ATOM     28  C   UNL     1      -1.678   0.805   1.766  0.00  0.00    +0.262 A 
ATOM     29  O   UNL     1      -2.005  -0.262   1.281  0.00  0.00    -0.267 OA
ATOM     30  N   UNL     1      -0.698   1.558   1.213  0.00  0.00    -0.289 N 
ATOM     31  C   UNL     1      -0.341   2.745   1.769  0.00  0.00    +0.097 A 
ATOM     32  N   UNL     1      -0.904   3.234   2.832  0.00  0.00    -0.235 NA
BRANCH  30  33
ATOM     33  C   UNL     1      -0.013   1.086   0.008  0.00  0.00    +0.221 C 
BRANCH  33  34
ATOM     34  C   UNL     1      -0.742   1.585  -1.213  0.00  0.00    +0.230 C 
ATOM     35  O   UNL     1      -1.736   2.268  -1.088  0.00  0.00    -0.274 OA
ATOM     36  N   UNL     1      -0.288   1.272  -2.443  0.00  0.00    -0.328 N 
ATOM     37  H   UNL     1       0.507   0.726  -2.543  0.00  0.00    +0.145 HD
ATOM     38  H   UNL     1      -0.758   1.594  -3.229  0.00  0.00    +0.145 HD
ENDBRANCH  33  34
ENDBRANCH  30  33
ENDBRANCH  21  31
ENDBRANCH   6  21
TORSDOF 6
