REMARK  Name = ZINC03225192
REMARK  3 active torsions:
REMARK  status: ('A' for Active; 'I' for Inactive)
REMARK    1  A    between atoms: C_3  and  C_9
REMARK    2  A    between atoms: C_15  and  S_22
REMARK    3  A    between atoms: S_22  and  N_25
REMARK                            x       y       z     vdW  Elec       q    Type
REMARK                         _______ _______ _______ _____ _____    ______ ____
ROOT
ATOM      1  C   UNL     1      -0.033  -5.028   1.104  0.00  0.00    +0.192 C 
ATOM      2  N   UNL     1       0.018  -4.174  -0.080  0.00  0.00    -0.322 N 
ATOM      3  C   UNL     1       0.025  -2.783  -0.019  0.00  0.00    +0.057 A 
ATOM      4  C   UNL     1       0.521  -2.065  -1.107  0.00  0.00    +0.047 A 
ATOM      5  C   UNL     1       0.502  -0.685  -1.095  0.00  0.00    +0.069 A 
ATOM      6  C   UNL     1       0.002  -0.004   0.002  0.00  0.00    +0.125 A 
ATOM      7  C   UNL     1      -0.484  -0.710   1.087  0.00  0.00    +0.060 A 
ATOM      8  C   UNL     1      -0.465  -2.089   1.079  0.00  0.00    +0.128 A 
ATOM      9  S   UNL     1      -1.055  -2.986   2.483  0.00  0.00    +0.062 S 
ATOM     10  O   UNL     1      -0.037  -2.922   3.473  0.00  0.00    -0.153 OA
ATOM     11  O   UNL     1      -2.388  -2.556   2.721  0.00  0.00    -0.153 OA
ATOM     12  N   UNL     1      -1.137  -4.571   1.971  0.00  0.00    -0.166 NA
ATOM     13 CL   UNL     1       1.114   0.200  -2.457  0.00  0.00    -0.081 Cl
ATOM     14  H   UNL     1       0.049  -4.597  -0.952  0.00  0.00    +0.148 HD
ATOM     15  H   UNL     1      -1.867  -5.157   2.227  0.00  0.00    +0.150 HD
ENDROOT
BRANCH   1  18
ATOM     16  C   UNL     1       3.624  -4.485   1.873  0.00  0.00    +0.002 A 
ATOM     17  C   UNL     1       2.427  -4.574   1.186  0.00  0.00    +0.008 A 
ATOM     18  C   UNL     1       1.271  -4.931   1.853  0.00  0.00    +0.008 A 
ATOM     19  C   UNL     1       1.310  -5.194   3.211  0.00  0.00    +0.065 A 
ATOM     20  C   UNL     1       2.509  -5.109   3.898  0.00  0.00    +0.060 A 
ATOM     21  C   UNL     1       3.665  -4.752   3.228  0.00  0.00    +0.021 A 
ATOM     22 CL   UNL     1       2.560  -5.446   5.601  0.00  0.00    -0.082 Cl
ATOM     23 CL   UNL     1      -0.143  -5.636   4.052  0.00  0.00    -0.082 Cl
ENDBRANCH   1  18
BRANCH   6  24
ATOM     24  S   UNL     1      -0.022   1.758   0.012  0.00  0.00    +0.057 S 
ATOM     25  O   UNL     1      -0.590   2.163  -1.226  0.00  0.00    -0.153 OA
ATOM     26  O   UNL     1      -0.566   2.150   1.264  0.00  0.00    -0.153 OA
BRANCH  24  27
ATOM     27  N   UNL     1       1.553   2.269  -0.001  0.00  0.00    -0.203 NA
ATOM     28  H   UNL     1       2.274   1.619  -0.011  0.00  0.00    +0.144 HD
ATOM     29  H   UNL     1       1.755   3.218   0.003  0.00  0.00    +0.144 HD
ENDBRANCH  24  27
ENDBRANCH   6  24
TORSDOF 3
