REMARK  Name = ZINC05728286
REMARK  5 active torsions:
REMARK  status: ('A' for Active; 'I' for Inactive)
REMARK    1  A    between atoms: C_1  and  O_2
REMARK    2  A    between atoms: O_2  and  C_3
REMARK    3  A    between atoms: C_6  and  C_11
REMARK    4  A    between atoms: C_7  and  O_9
REMARK    5  A    between atoms: O_9  and  C_10
REMARK                            x       y       z     vdW  Elec       q    Type
REMARK                         _______ _______ _______ _____ _____    ______ ____
ROOT
ATOM      1  C   UNL     1      -4.964  -2.605   0.037  0.00  0.00    +0.146 A 
ATOM      2  N   UNL     1      -6.114  -1.863   0.041  0.00  0.00    -0.306 N 
ATOM      3  H   UNL     1      -6.055  -0.895   0.039  0.00  0.00    +0.170 HD
ATOM      4  C   UNL     1      -7.324  -2.452   0.050  0.00  0.00    +0.260 A 
ATOM      5  O   UNL     1      -8.340  -1.779   0.053  0.00  0.00    -0.267 OA
ATOM      6  C   UNL     1      -7.399  -3.883   0.055  0.00  0.00    +0.075 A 
ATOM      7  C   UNL     1      -8.619  -4.714   0.054  0.00  0.00    -0.023 A 
ATOM      8  C   UNL     1      -8.416  -6.044   0.085  0.00  0.00    -0.004 A 
ATOM      9  S   UNL     1      -6.655  -6.268   0.056  0.00  0.00    -0.073 S 
ATOM     10  C   UNL     1      -6.173  -4.561   0.049  0.00  0.00    +0.116 A 
ATOM     11  N   UNL     1      -5.009  -3.923   0.036  0.00  0.00    -0.222 NA
ATOM     12  C   UNL     1      -9.438  -7.142   0.188  0.00  0.00    +0.043 C 
ATOM     13  C   UNL     1      -9.873  -7.229   1.661  0.00  0.00    +0.005 C 
ATOM     14  C   UNL     1     -10.336  -5.839   2.108  0.00  0.00    +0.000 C 
ATOM     15  C   UNL     1     -11.522  -5.512   1.224  0.00  0.00    +0.000 C 
ATOM     16  C   UNL     1     -11.140  -4.950  -0.133  0.00  0.00    +0.005 C 
ATOM     17  C   UNL     1      -9.963  -3.990  -0.047  0.00  0.00    +0.037 C 
ENDROOT
BRANCH   1  21
ATOM     18  C   UNL     1      -1.199  -0.637   0.010  0.00  0.00    +0.124 A 
ATOM     19  C   UNL     1      -2.374   0.108   0.020  0.00  0.00    +0.046 A 
ATOM     20  C   UNL     1      -3.596  -0.526   0.028  0.00  0.00    +0.019 A 
ATOM     21  C   UNL     1      -3.658  -1.923   0.027  0.00  0.00    +0.059 A 
ATOM     22  C   UNL     1      -2.472  -2.672   0.017  0.00  0.00    +0.134 A 
ATOM     23  C   UNL     1      -1.250  -2.023   0.003  0.00  0.00    +0.092 A 
BRANCH  18  25
ATOM     24  C   UNL     1      -0.017   1.425   0.010  0.00  0.00    +0.277 C 
ATOM     25  O   UNL     1       0.002  -0.004   0.002  0.00  0.00    -0.495 OA
ENDBRANCH  18  25
BRANCH  22  26
ATOM     26  O   UNL     1      -2.524  -4.028   0.016  0.00  0.00    -0.494 OA
ATOM     27  C   UNL     1      -1.276  -4.724   0.006  0.00  0.00    +0.277 C 
ENDBRANCH  22  26
ENDBRANCH   1  21
TORSDOF 3
