REMARK  Name = ZINC25129976
REMARK  7 active torsions:
REMARK  status: ('A' for Active; 'I' for Inactive)
REMARK    1  A    between atoms: N_13  and  C_14
REMARK    2  A    between atoms: C_14  and  C_15
REMARK    3  A    between atoms: C_15  and  C_17
REMARK    4  A    between atoms: C_15  and  O_34
REMARK    5  A    between atoms: C_17  and  N_18
REMARK    6  A    between atoms: N_21  and  C_24
REMARK    7  A    between atoms: C_24  and  C_25
REMARK                            x       y       z     vdW  Elec       q    Type
REMARK                         _______ _______ _______ _____ _____    ______ ____
ROOT
ATOM      1  C   UNL     1       5.612   0.943  -1.490  0.00  0.00    +0.117 C 
ENDROOT
BRANCH   1   2
ATOM      2  N   UNL     1       5.961   1.087  -2.909  0.00  0.00    -0.303 NA
ATOM      3  C   UNL     1       5.602  -0.120  -3.666  0.00  0.00    +0.066 C 
ATOM      4  C   UNL     1       5.908   0.100  -5.149  0.00  0.00    -0.063 C 
ATOM      5  N   UNL     1       7.335   0.415  -5.311  0.00  0.00    +0.387 N 
ATOM      6  C   UNL     1       7.694   1.623  -4.554  0.00  0.00    -0.063 C 
ATOM      7  C   UNL     1       7.388   1.402  -3.071  0.00  0.00    +0.066 C 
ATOM      8  H   UNL     1       7.916  -0.426  -4.905  0.00  0.00    -0.081 HD
BRANCH   5   9
ATOM      9  C   UNL     1       7.684   0.559  -6.730  0.00  0.00    +0.019 C 
BRANCH   9  10
ATOM     10  C   UNL     1       7.533  -0.771  -7.423  0.00  0.00    +0.199 C 
ATOM     11  O   UNL     1       7.170  -1.743  -6.795  0.00  0.00    -0.278 OA
ATOM     12  N   UNL     1       7.801  -0.879  -8.739  0.00  0.00    -0.303 N 
ATOM     13  C   UNL     1       8.226   0.300  -9.460  0.00  0.00    +0.107 C 
ATOM     14  C   UNL     1       6.996   1.051 -10.011  0.00  0.00    +0.019 C 
ATOM     15  C   UNL     1       6.390   0.294 -11.117  0.00  0.00    +0.002 C 
ATOM     16  C   UNL     1       5.851  -1.077 -10.721  0.00  0.00    +0.002 C 
ATOM     17  C   UNL     1       6.971  -2.087 -10.768  0.00  0.00    +0.019 C 
ATOM     18  C   UNL     1       7.643  -2.196  -9.387  0.00  0.00    +0.107 C 
ENDBRANCH   9  10
ENDBRANCH   5   9
ENDBRANCH   1   2
BRANCH   1  19
ATOM     19  C   UNL     1       5.532   2.326  -0.841  0.00  0.00    +0.148 C 
BRANCH  19  20
ATOM     20  O   UNL     1       4.523   3.100  -1.493  0.00  0.00    -0.389 OA
ATOM     21  H   UNL     1       4.604   3.316  -2.569  0.00  0.00    +0.210 HD
ENDBRANCH  19  20
BRANCH  19  22
ATOM     22  C   UNL     1       5.181   2.175   0.640  0.00  0.00    +0.155 C 
BRANCH  22  35
ATOM     23  C   UNL     1       8.232   5.604   3.190  0.00  0.00    +0.001 A 
ATOM     24  C   UNL     1       8.578   4.359   2.687  0.00  0.00    +0.002 A 
ATOM     25  C   UNL     1       7.643   3.582   2.038  0.00  0.00    +0.026 A 
ATOM     26  C   UNL     1       6.340   4.043   1.883  0.00  0.00    +0.050 A 
ATOM     27  C   UNL     1       5.992   5.303   2.392  0.00  0.00    +0.008 A 
ATOM     28  C   UNL     1       6.947   6.081   3.042  0.00  0.00    +0.010 A 
ATOM     29  C   UNL     1       4.566   5.503   2.074  0.00  0.00    +0.008 A 
ATOM     30  C   UNL     1       3.666   6.539   2.314  0.00  0.00    +0.010 A 
ATOM     31  C   UNL     1       2.363   6.429   1.882  0.00  0.00    +0.001 A 
ATOM     32  C   UNL     1       1.945   5.291   1.208  0.00  0.00    +0.002 A 
ATOM     33  C   UNL     1       2.824   4.258   0.964  0.00  0.00    +0.026 A 
ATOM     34  C   UNL     1       4.144   4.351   1.393  0.00  0.00    +0.050 A 
ATOM     35  N   UNL     1       5.221   3.489   1.288  0.00  0.00    -0.337 N 
ENDBRANCH  22  35
ENDBRANCH  19  22
ENDBRANCH   1  19
TORSDOF 7
