REMARK  Name = ZINC04082321
REMARK  12 active torsions:
REMARK  status: ('A' for Active; 'I' for Inactive)
REMARK    1  A    between atoms: C_1  and  O_2
REMARK    2  A    between atoms: O_2  and  C_3
REMARK    3  A    between atoms: C_6  and  C_11
REMARK    4  A    between atoms: C_8  and  O_9
REMARK    5  A    between atoms: O_9  and  C_10
REMARK    6  A    between atoms: C_16  and  C_26
REMARK    7  A    between atoms: C_29  and  O_36
REMARK    8  A    between atoms: C_30  and  O_34
REMARK    9  A    between atoms: C_31  and  O_32
REMARK   10  A    between atoms: O_32  and  C_33
REMARK   11  A    between atoms: O_34  and  C_35
REMARK   12  A    between atoms: O_36  and  C_37
REMARK                            x       y       z     vdW  Elec       q    Type
REMARK                         _______ _______ _______ _____ _____    ______ ____
ROOT
ATOM      1  C   UNL     1       0.428  -0.714  -0.776  0.00  0.00    +0.032 C 
ATOM      2  C   UNL     1       1.417  -0.943  -1.918  0.00  0.00    +0.059 C 
ATOM      3  C   UNL     1       2.717  -0.209  -1.633  0.00  0.00    +0.017 C 
ATOM      4  C   UNL     1       2.708   0.951  -0.956  0.00  0.00    +0.037 C 
ATOM      5  C   UNL     1       3.917   1.793  -0.625  0.00  0.00    +0.140 C 
ATOM      6  N   UNL     1       5.186   1.139  -0.864  0.00  0.00    -0.331 N 
ATOM      7  C   UNL     1       5.580   0.779  -2.151  0.00  0.00    +0.049 A 
ATOM      8  C   UNL     1       6.677   1.363  -2.763  0.00  0.00    +0.025 A 
ATOM      9  C   UNL     1       7.002   1.006  -4.060  0.00  0.00    +0.002 A 
ATOM     10  C   UNL     1       6.239   0.077  -4.743  0.00  0.00    +0.002 A 
ATOM     11  C   UNL     1       5.153  -0.522  -4.129  0.00  0.00    +0.025 A 
ATOM     12  C   UNL     1       4.839  -0.181  -2.825  0.00  0.00    +0.052 A 
ATOM     13  N   UNL     1       3.829  -0.820  -2.115  0.00  0.00    -0.316 N 
ATOM     14  C   UNL     1       1.489   1.489  -0.479  0.00  0.00    +0.163 C 
ATOM     15  O   UNL     1       1.509   2.552   0.110  0.00  0.00    -0.292 OA
ATOM     16  C   UNL     1       0.175   0.795  -0.675  0.00  0.00    +0.088 C 
ATOM     17  H   UNL     1       5.772   0.947  -0.115  0.00  0.00    +0.147 HD
ATOM     18  H   UNL     1       3.927  -1.771  -1.952  0.00  0.00    +0.152 HD
ENDROOT
BRANCH   1  22
ATOM     19  C   UNL     1      -3.242  -2.746  -1.604  0.00  0.00    +0.161 A 
ATOM     20  C   UNL     1      -2.760  -1.793  -2.487  0.00  0.00    +0.049 A 
ATOM     21  C   UNL     1      -1.573  -1.138  -2.216  0.00  0.00    +0.008 A 
ATOM     22  C   UNL     1      -0.865  -1.431  -1.066  0.00  0.00    -0.040 A 
ATOM     23  C   UNL     1      -1.337  -2.384  -0.183  0.00  0.00    +0.053 A 
ATOM     24  C   UNL     1      -2.529  -3.041  -0.446  0.00  0.00    +0.162 A 
BRANCH  19  26
ATOM     25  C   UNL     1      -5.087  -3.038  -3.076  0.00  0.00    +0.277 C 
ATOM     26  O   UNL     1      -4.409  -3.392  -1.869  0.00  0.00    -0.491 OA
ENDBRANCH  19  26
BRANCH  24  27
ATOM     27  O   UNL     1      -2.998  -3.976   0.423  0.00  0.00    -0.491 OA
ATOM     28  C   UNL     1      -2.213  -4.227   1.591  0.00  0.00    +0.277 C 
ENDBRANCH  24  27
ENDBRANCH   1  22
BRANCH   5  29
ATOM     29  C   UNL     1       3.865   3.051  -1.453  0.00  0.00    +0.023 A 
ATOM     30  C   UNL     1       3.047   3.111  -2.566  0.00  0.00    +0.013 A 
ATOM     31  C   UNL     1       2.991   4.264  -3.326  0.00  0.00    +0.050 A 
ATOM     32  C   UNL     1       3.765   5.362  -2.981  0.00  0.00    +0.165 A 
ATOM     33  C   UNL     1       4.592   5.304  -1.866  0.00  0.00    +0.204 A 
ATOM     34  C   UNL     1       4.641   4.144  -1.101  0.00  0.00    +0.170 A 
BRANCH  34  35
ATOM     35  O   UNL     1       5.450   4.082  -0.009  0.00  0.00    -0.491 OA
ATOM     36  C   UNL     1       4.925   4.597   1.216  0.00  0.00    +0.277 C 
ENDBRANCH  34  35
BRANCH  33  37
ATOM     37  O   UNL     1       5.353   6.379  -1.524  0.00  0.00    -0.488 OA
ATOM     38  C   UNL     1       6.657   6.461  -2.102  0.00  0.00    +0.277 C 
ENDBRANCH  33  37
BRANCH  32  39
ATOM     39  O   UNL     1       3.713   6.494  -3.732  0.00  0.00    -0.491 OA
ATOM     40  C   UNL     1       2.841   6.483  -4.864  0.00  0.00    +0.277 C 
ENDBRANCH  32  39
ENDBRANCH   5  29
TORSDOF 7
