REMARK  Name = ZINC37515012
REMARK  7 active torsions:
REMARK  status: ('A' for Active; 'I' for Inactive)
REMARK    1  A    between atoms: C_1  and  C_2
REMARK    2  A    between atoms: C_2  and  C_4
REMARK    3  A    between atoms: C_2  and  C_19
REMARK    4  A    between atoms: C_8  and  C_18
REMARK    5  A    between atoms: C_15  and  O_17
REMARK    6  A    between atoms: C_19  and  N_21
REMARK    7  A    between atoms: C_25  and  C_28
REMARK                            x       y       z     vdW  Elec       q    Type
REMARK                         _______ _______ _______ _____ _____    ______ ____
ROOT
ATOM      1  C   UNL     1      -0.019   1.526   0.010  0.00  0.00    +0.017 C 
ATOM      2  C   UNL     1       0.002  -0.004   0.002  0.00  0.00    +0.080 C 
ENDROOT
BRANCH   2   3
ATOM      3  C   UNL     1       0.718  -0.497  -1.257  0.00  0.00    +0.033 C 
ATOM      4  C   UNL     1       2.130   0.054  -1.271  0.00  0.00    +0.008 C 
ATOM      5  C   UNL     1       2.918  -0.364  -0.049  0.00  0.00    +0.015 C 
ATOM      6  C   UNL     1       2.852  -1.827   0.262  0.00  0.00    +0.010 C 
ATOM      7  C   UNL     1       4.173  -2.531   0.128  0.00  0.00    -0.012 C 
ATOM      8  C   UNL     1       4.180  -3.864   0.350  0.00  0.00    +0.047 C 
ATOM      9  C   UNL     1       2.852  -4.454   0.673  0.00  0.00    +0.179 C 
ATOM     10  O   UNL     1       2.702  -5.296   1.539  0.00  0.00    -0.288 OA
ATOM     11  C   UNL     1       1.721  -3.936  -0.145  0.00  0.00    +0.053 C 
ATOM     12  C   UNL     1       1.746  -2.601  -0.368  0.00  0.00    -0.028 C 
ATOM     13  C   UNL     1       0.710  -2.013  -1.268  0.00  0.00    +0.145 C 
ATOM     14  C   UNL     1       2.556  -1.888   1.762  0.00  0.00    +0.020 C 
BRANCH  13  15
ATOM     15  O   UNL     1       0.946  -2.466  -2.603  0.00  0.00    -0.387 OA
ATOM     16  H   UNL     1       0.956  -3.428  -2.695  0.00  0.00    +0.210 HD
ENDBRANCH  13  15
ENDBRANCH   2   3
BRANCH   2  17
ATOM     17  C   UNL     1      -1.412  -0.526   0.013  0.00  0.00    +0.242 C 
ATOM     18  O   UNL     1      -1.809  -1.226  -0.900  0.00  0.00    -0.273 OA
BRANCH  17  19
ATOM     19  N   UNL     1      -2.224  -0.222   1.018  0.00  0.00    -0.156 NA
ATOM     20  C   UNL     1      -3.475  -0.683   1.027  0.00  0.00    +0.163 A 
ATOM     21  N   UNL     1      -4.087  -1.475   0.107  0.00  0.00    -0.335 N 
ATOM     22  H   UNL     1      -3.608  -1.778  -0.680  0.00  0.00    +0.168 HD
ATOM     23  C   UNL     1      -5.389  -1.837   0.310  0.00  0.00    +0.055 A 
ATOM     24  C   UNL     1      -5.983  -1.372   1.432  0.00  0.00    +0.074 A 
ATOM     25  S   UNL     1      -4.669  -0.431   2.183  0.00  0.00    -0.060 S 
BRANCH  23  26
ATOM     26  C   UNL     1      -6.114  -2.696  -0.652  0.00  0.00    -0.001 A 
ATOM     27  C   UNL     1      -5.470  -3.163  -1.798  0.00  0.00    +0.010 A 
ATOM     28  C   UNL     1      -6.151  -3.964  -2.691  0.00  0.00    +0.001 A 
ATOM     29  C   UNL     1      -7.471  -4.304  -2.452  0.00  0.00    +0.000 A 
ATOM     30  C   UNL     1      -8.116  -3.844  -1.318  0.00  0.00    +0.001 A 
ATOM     31  C   UNL     1      -7.444  -3.047  -0.414  0.00  0.00    +0.010 A 
ENDBRANCH  23  26
ENDBRANCH  17  19
ENDBRANCH   2  17
TORSDOF 5
