REMARK  Name = ZINC39507590
REMARK  7 active torsions:
REMARK  status: ('A' for Active; 'I' for Inactive)
REMARK    1  A    between atoms: C_1  and  C_2
REMARK    2  A    between atoms: C_2  and  O_3
REMARK    3  A    between atoms: O_3  and  N_4
REMARK    4  A    between atoms: C_6  and  C_22
REMARK    5  A    between atoms: C_12  and  C_15
REMARK    6  A    between atoms: C_20  and  O_21
REMARK    7  A    between atoms: C_22  and  C_23
REMARK                            x       y       z     vdW  Elec       q    Type
REMARK                         _______ _______ _______ _____ _____    ______ ____
ROOT
ATOM      1  N   UNL     1      -1.434  -1.958   0.005  0.00  0.00    -0.182 NA
ATOM      2  C   UNL     1      -2.159  -2.437  -1.194  0.00  0.00    +0.119 C 
ATOM      3  C   UNL     1      -2.928  -3.695  -0.716  0.00  0.00    +0.011 C 
ATOM      4  C   UNL     1      -3.340  -3.285   0.724  0.00  0.00    +0.030 C 
ATOM      5  C   UNL     1      -2.141  -2.445   1.197  0.00  0.00    +0.048 C 
ATOM      6  C   UNL     1      -1.212  -3.292   2.075  0.00  0.00    +0.025 C 
ATOM      7  C   UNL     1      -1.163  -2.598   3.453  0.00  0.00    +0.010 C 
ATOM      8  C   UNL     1      -1.540  -1.126   3.152  0.00  0.00    +0.024 C 
ATOM      9  C   UNL     1      -2.628  -1.267   2.056  0.00  0.00    +0.033 C 
ENDROOT
BRANCH   8  10
ATOM     10  C   UNL     1      -2.099  -0.456   4.380  0.00  0.00    -0.003 A 
ATOM     11  C   UNL     1      -3.217  -0.976   5.004  0.00  0.00    +0.007 A 
ATOM     12  C   UNL     1      -3.731  -0.361   6.131  0.00  0.00    +0.001 A 
ATOM     13  C   UNL     1      -3.127   0.775   6.637  0.00  0.00    +0.004 A 
ATOM     14  C   UNL     1      -2.009   1.299   6.018  0.00  0.00    +0.046 A 
ATOM     15  C   UNL     1      -1.488   0.681   4.890  0.00  0.00    +0.120 A 
BRANCH  15  16
ATOM     16  O   UNL     1      -0.385   1.191   4.282  0.00  0.00    -0.506 OA
ATOM     17  H   UNL     1      -0.581   1.844   3.596  0.00  0.00    +0.292 HD
ENDBRANCH  15  16
ENDBRANCH   8  10
BRANCH   1  18
ATOM     18  O   UNL     1      -1.339  -0.499   0.012  0.00  0.00    -0.297 OA
BRANCH  18  20
ATOM     19  C   UNL     1      -0.019   1.526   0.010  0.00  0.00    +0.036 C 
ATOM     20  C   UNL     1       0.002  -0.004   0.002  0.00  0.00    +0.182 C 
ENDBRANCH  18  20
ENDBRANCH   1  18
BRANCH   3  21
ATOM     21  C   UNL     1      -4.159  -3.948  -1.588  0.00  0.00    +0.040 C 
BRANCH  21  22
ATOM     22  C   UNL     1      -3.720  -4.314  -2.983  0.00  0.00    -0.047 A 
ATOM     23  C   UNL     1      -3.532  -3.325  -3.930  0.00  0.00    +0.003 A 
ATOM     24  C   UNL     1      -3.130  -3.661  -5.209  0.00  0.00    +0.000 A 
ATOM     25  C   UNL     1      -2.915  -4.986  -5.541  0.00  0.00    +0.000 A 
ATOM     26  C   UNL     1      -3.102  -5.974  -4.593  0.00  0.00    +0.000 A 
ATOM     27  C   UNL     1      -3.500  -5.638  -3.313  0.00  0.00    +0.003 A 
ENDBRANCH  21  22
ENDBRANCH   3  21
TORSDOF 6
