REMARK  Name = ZINC21741535
REMARK  5 active torsions:
REMARK  status: ('A' for Active; 'I' for Inactive)
REMARK    1  A    between atoms: C_3  and  N_8
REMARK    2  A    between atoms: C_12  and  S_14
REMARK    3  A    between atoms: S_14  and  C_15
REMARK    4  A    between atoms: C_15  and  C_16
REMARK    5  A    between atoms: C_18  and  C_21
REMARK                            x       y       z     vdW  Elec       q    Type
REMARK                         _______ _______ _______ _____ _____    ______ ____
ROOT
ATOM      1  N   UNL     1      -0.349  13.188   2.125  0.00  0.00    -0.292 N 
ATOM      2  C   UNL     1      -0.173  11.851   1.786  0.00  0.00    +0.187 A 
ATOM      3  N   UNL     1      -0.026  11.303   0.596  0.00  0.00    -0.125 NA
ATOM      4  N   UNL     1       0.137   9.941   0.485  0.00  0.00    -0.133 NA
ATOM      5  C   UNL     1       0.146   9.191   1.570  0.00  0.00    +0.160 A 
ATOM      6  S   UNL     1      -0.091  10.416   2.847  0.00  0.00    -0.024 S 
ATOM      7  H   UNL     1      -0.358  13.491   3.182  0.00  0.00    +0.154 HD
ENDROOT
BRANCH   1  10
ATOM      8  C   UNL     1      -1.202  14.729  -1.101  0.00  0.00    +0.003 A 
ATOM      9  C   UNL     1      -1.038  13.780  -0.112  0.00  0.00    +0.023 A 
ATOM     10  C   UNL     1      -0.515  14.146   1.122  0.00  0.00    +0.034 A 
ATOM     11  C   UNL     1      -0.163  15.470   1.358  0.00  0.00    +0.038 A 
ATOM     12  C   UNL     1      -0.325  16.414   0.363  0.00  0.00    +0.020 A 
ATOM     13  C   UNL     1      -0.846  16.044  -0.865  0.00  0.00    +0.015 A 
ATOM     14 BR   UNL     1       0.159  18.214   0.680  0.00  0.00    -0.050 Br
ENDBRANCH   1  10
BRANCH   5  15
ATOM     15  S   UNL     1       0.335   7.445   1.718  0.00  0.00    -0.087 S 
BRANCH  15  16
ATOM     16  C   UNL     1       0.521   6.876   0.006  0.00  0.00    +0.175 C 
BRANCH  16  17
ATOM     17  C   UNL     1       0.693   5.379  -0.011  0.00  0.00    +0.238 A 
ATOM     18  N   UNL     1      -0.262   4.488  -0.098  0.00  0.00    -0.191 NA
ATOM     19  C   UNL     1       0.359   3.286  -0.073  0.00  0.00    +0.203 A 
ATOM     20  N   UNL     1       1.643   3.518   0.020  0.00  0.00    -0.056 NA
ATOM     21  O   UNL     1       1.850   4.712   0.056  0.00  0.00    -0.337 OA
BRANCH  19  22
ATOM     22  C   UNL     1      -0.293   1.957  -0.143  0.00  0.00    +0.029 A 
ATOM     23  C   UNL     1       0.464   0.788  -0.113  0.00  0.00    +0.019 A 
ATOM     24  C   UNL     1      -0.196  -0.390  -0.182  0.00  0.00    +0.046 A 
ATOM     25  S   UNL     1      -1.897   0.133  -0.289  0.00  0.00    -0.104 S 
ATOM     26  C   UNL     1      -1.651   1.848  -0.239  0.00  0.00    +0.057 A 
ENDBRANCH  19  22
ENDBRANCH  16  17
ENDBRANCH  15  16
ENDBRANCH   5  15
TORSDOF 5
