REMARK  Name = ZINC62024232
REMARK  7 active torsions:
REMARK  status: ('A' for Active; 'I' for Inactive)
REMARK    1  A    between atoms: C_7  and  C_11
REMARK    2  A    between atoms: C_11  and  C_12
REMARK    3  A    between atoms: N_14  and  C_15
REMARK    4  A    between atoms: C_15  and  C_16
REMARK    5  A    between atoms: C_16  and  C_17
REMARK    6  A    between atoms: C_19  and  C_22
REMARK    7  A    between atoms: C_25  and  O_28
REMARK                            x       y       z     vdW  Elec       q    Type
REMARK                         _______ _______ _______ _____ _____    ______ ____
ROOT
ATOM      1  C   UNL     1       0.242  -3.584  -1.434  0.00  0.00    +0.217 C 
ATOM      2  O   UNL     1       0.660  -2.913  -2.353  0.00  0.00    -0.275 OA
ATOM      3  N   UNL     1      -0.601  -4.607  -1.676  0.00  0.00    -0.315 N 
ATOM      4  H   UNL     1      -0.935  -5.145  -0.941  0.00  0.00    +0.149 HD
ENDROOT
BRANCH   1   5
ATOM      5  C   UNL     1       0.666  -3.275  -0.021  0.00  0.00    +0.133 C 
BRANCH   5  12
ATOM      6  C   UNL     1      -0.017   1.362   0.009  0.00  0.00    +0.001 A 
ATOM      7  C   UNL     1       1.170   2.083   0.002  0.00  0.00    +0.002 A 
ATOM      8  C   UNL     1       2.386   1.436  -0.013  0.00  0.00    +0.026 A 
ATOM      9  C   UNL     1       2.428   0.046  -0.021  0.00  0.00    +0.047 A 
ATOM     10  C   UNL     1       1.223  -0.681  -0.013  0.00  0.00    +0.003 A 
ATOM     11  C   UNL     1       0.002  -0.004   0.002  0.00  0.00    +0.010 A 
ATOM     12  C   UNL     1       1.604  -2.095  -0.025  0.00  0.00    -0.014 A 
ATOM     13  C   UNL     1       2.945  -2.141  -0.038  0.00  0.00    +0.087 A 
ATOM     14  N   UNL     1       3.455  -0.871  -0.036  0.00  0.00    -0.360 N 
ATOM     15  H   UNL     1       4.399  -0.650  -0.044  0.00  0.00    +0.165 HD
ENDBRANCH   5  12
ENDBRANCH   1   5
BRANCH   3  16
ATOM     16  C   UNL     1      -1.013  -4.908  -3.049  0.00  0.00    +0.111 C 
BRANCH  16  17
ATOM     17  C   UNL     1      -1.964  -6.106  -3.046  0.00  0.00    +0.081 C 
BRANCH  17  18
ATOM     18  C   UNL     1      -2.388  -6.415  -4.459  0.00  0.00    +0.080 A 
ATOM     19  N   UNL     1      -1.819  -7.221  -5.317  0.00  0.00    -0.244 NA
ATOM     20  C   UNL     1      -2.313  -7.391  -6.535  0.00  0.00    +0.078 A 
ATOM     21  C   UNL     1      -3.443  -6.682  -6.840  0.00  0.00    +0.075 A 
ATOM     22  S   UNL     1      -3.711  -5.811  -5.305  0.00  0.00    -0.080 S 
BRANCH  20  23
ATOM     23  C   UNL     1      -1.674  -8.303  -7.516  0.00  0.00    +0.001 A 
ATOM     24  C   UNL     1      -0.589  -9.090  -7.134  0.00  0.00    +0.013 A 
ATOM     25  C   UNL     1       0.003  -9.937  -8.048  0.00  0.00    +0.046 A 
ATOM     26  C   UNL     1      -0.481 -10.005  -9.347  0.00  0.00    +0.117 A 
ATOM     27  C   UNL     1      -1.562  -9.223  -9.730  0.00  0.00    +0.046 A 
ATOM     28  C   UNL     1      -2.161  -8.378  -8.819  0.00  0.00    +0.013 A 
BRANCH  26  29
ATOM     29  O   UNL     1       0.104 -10.840 -10.245  0.00  0.00    -0.507 OA
ATOM     30  H   UNL     1      -0.279 -11.728 -10.265  0.00  0.00    +0.292 HD
ENDBRANCH  26  29
ENDBRANCH  20  23
ENDBRANCH  17  18
ENDBRANCH  16  17
ENDBRANCH   3  16
TORSDOF 7
