REMARK  Name = ZINC14917336
REMARK  6 active torsions:
REMARK  status: ('A' for Active; 'I' for Inactive)
REMARK    1  A    between atoms: C_1  and  C_2
REMARK    2  A    between atoms: C_2  and  C_4
REMARK    3  A    between atoms: C_2  and  N_19
REMARK    4  A    between atoms: N_6  and  C_7
REMARK    5  A    between atoms: N_22  and  S_25
REMARK    6  A    between atoms: S_25  and  C_28
REMARK                            x       y       z     vdW  Elec       q    Type
REMARK                         _______ _______ _______ _____ _____    ______ ____
ROOT
ATOM      1  C   UNL     1       0.826  -0.153   1.194  0.00  0.00    +0.034 C 
ATOM      2  C   UNL     1       0.008   0.118  -0.070  0.00  0.00    +0.140 C 
ENDROOT
BRANCH   2   3
ATOM      3  N   UNL     1       0.638  -0.553  -1.215  0.00  0.00    -0.289 NA
ATOM      4  C   UNL     1       0.388  -2.000  -1.180  0.00  0.00    +0.102 C 
ATOM      5  C   UNL     1       0.902  -2.635  -2.476  0.00  0.00    +0.125 C 
ATOM      6  N   UNL     1       2.310  -2.252  -2.658  0.00  0.00    -0.174 NA
ATOM      7  C   UNL     1       2.660  -0.827  -2.569  0.00  0.00    +0.125 C 
ATOM      8  C   UNL     1       2.077  -0.262  -1.269  0.00  0.00    +0.102 C 
BRANCH   6   9
ATOM      9  S   UNL     1       3.470  -3.396  -2.956  0.00  0.00    +0.061 S 
ATOM     10  O   UNL     1       4.707  -2.839  -2.532  0.00  0.00    -0.153 OA
ATOM     11  O   UNL     1       2.972  -4.623  -2.442  0.00  0.00    -0.153 OA
BRANCH   9  12
ATOM     12  C   UNL     1       3.577  -3.587  -4.704  0.00  0.00    +0.108 A 
ATOM     13  C   UNL     1       2.780  -4.517  -5.346  0.00  0.00    +0.031 A 
ATOM     14  C   UNL     1       2.861  -4.669  -6.718  0.00  0.00    +0.043 A 
ATOM     15  C   UNL     1       3.741  -3.890  -7.449  0.00  0.00    +0.159 A 
ATOM     16  C   UNL     1       4.540  -2.958  -6.805  0.00  0.00    +0.160 A 
ATOM     17  C   UNL     1       4.452  -2.805  -5.432  0.00  0.00    +0.069 A 
ATOM     18  F   UNL     1       5.399  -2.197  -7.517  0.00  0.00    -0.202 F 
ATOM     19  F   UNL     1       3.821  -4.039  -8.790  0.00  0.00    -0.202 F 
ENDBRANCH   9  12
ENDBRANCH   6   9
ENDBRANCH   2   3
BRANCH   2  20
ATOM     20  C   UNL     1      -0.045   1.602  -0.325  0.00  0.00    +0.234 C 
ATOM     21  O   UNL     1       0.504   2.071  -1.300  0.00  0.00    -0.274 OA
ATOM     22  N   UNL     1      -0.704   2.410   0.530  0.00  0.00    -0.284 N 
ATOM     23  H   UNL     1      -1.085   2.046   1.345  0.00  0.00    +0.155 HD
BRANCH  22  24
ATOM     24  C   UNL     1      -0.839   3.774   0.242  0.00  0.00    +0.036 A 
ATOM     25  C   UNL     1      -1.999   4.448   0.605  0.00  0.00    +0.025 A 
ATOM     26  C   UNL     1      -2.138   5.792   0.324  0.00  0.00    +0.029 A 
ATOM     27  C   UNL     1      -1.117   6.474  -0.322  0.00  0.00    +0.067 A 
ATOM     28  C   UNL     1       0.050   5.799  -0.687  0.00  0.00    +0.069 A 
ATOM     29  C   UNL     1       0.188   4.451  -0.399  0.00  0.00    +0.051 A 
ATOM     30  N   UNL     1       0.877   6.733  -1.308  0.00  0.00    -0.306 N 
ATOM     31  H   UNL     1       1.759   6.557  -1.670  0.00  0.00    +0.170 HD
ATOM     32  C   UNL     1       0.243   7.920  -1.320  0.00  0.00    +0.325 A 
ATOM     33  O   UNL     1       0.691   8.949  -1.790  0.00  0.00    -0.247 OA
ATOM     34  N   UNL     1      -0.962   7.797  -0.732  0.00  0.00    -0.306 N 
ATOM     35  H   UNL     1      -1.612   8.508  -0.615  0.00  0.00    +0.170 HD
ENDBRANCH  22  24
ENDBRANCH   2  20
TORSDOF 5
