REMARK  Name = ZINC43221244
REMARK  10 active torsions:
REMARK  status: ('A' for Active; 'I' for Inactive)
REMARK    1  A    between atoms: C_1  and  C_2
REMARK    2  A    between atoms: C_2  and  C_4
REMARK    3  A    between atoms: C_7  and  N_10
REMARK    4  A    between atoms: C_15  and  C_33
REMARK    5  A    between atoms: C_18  and  C_23
REMARK    6  A    between atoms: C_18  and  C_30
REMARK    7  A    between atoms: C_23  and  C_24
REMARK    8  A    between atoms: C_36  and  O_41
REMARK    9  A    between atoms: C_37  and  O_39
REMARK   10  A    between atoms: O_39  and  C_40
REMARK                            x       y       z     vdW  Elec       q    Type
REMARK                         _______ _______ _______ _____ _____    ______ ____
ROOT
ATOM      1  N   UNL     1      -4.732  -3.450   0.407  0.00  0.00    -0.210 N 
ATOM      2  C   UNL     1      -5.870  -2.739   0.117  0.00  0.00    +0.229 C 
ATOM      3  O   UNL     1      -5.958  -1.559  -0.146  0.00  0.00    -0.275 OA
ATOM      4  C   UNL     1      -6.938  -3.705   0.196  0.00  0.00    +0.077 C 
ATOM      5  C   UNL     1      -8.321  -3.911  -0.267  0.00  0.00    -0.027 C 
ATOM      6  N   UNL     1      -8.563  -5.350   0.098  0.00  0.00    +0.396 N 
ATOM      7  C   UNL     1      -7.236  -6.026   0.198  0.00  0.00    +0.052 C 
ATOM      8  C   UNL     1      -6.230  -5.006  -0.357  0.00  0.00    +0.086 C 
ATOM      9  C   UNL     1      -4.931  -4.801   0.372  0.00  0.00    +0.229 C 
ATOM     10  O   UNL     1      -4.210  -5.660   0.834  0.00  0.00    -0.275 OA
ATOM     11  H   UNL     1      -9.041  -5.402   0.985  0.00  0.00    -0.083 HD
ATOM     12  H   UNL     1      -9.120  -5.794  -0.617  0.00  0.00    -0.083 HD
ENDROOT
BRANCH   1  16
ATOM     13  C   UNL     1      -1.062  -1.679   1.284  0.00  0.00    +0.017 A 
ATOM     14  C   UNL     1      -2.178  -0.881   1.004  0.00  0.00    +0.013 A 
ATOM     15  C   UNL     1      -3.387  -1.470   0.715  0.00  0.00    +0.024 A 
ATOM     16  C   UNL     1      -3.502  -2.857   0.700  0.00  0.00    +0.044 A 
ATOM     17  C   UNL     1      -2.396  -3.654   0.977  0.00  0.00    +0.024 A 
ATOM     18  C   UNL     1      -1.181  -3.074   1.262  0.00  0.00    +0.013 A 
BRANCH  13  20
ATOM     19  C   UNL     1       0.357   0.448   1.616  0.00  0.00    +0.091 C 
ATOM     20  C   UNL     1       0.232  -1.054   1.593  0.00  0.00    +0.160 C 
ATOM     21  O   UNL     1       1.198  -1.747   1.830  0.00  0.00    -0.292 OA
ENDBRANCH  13  20
ENDBRANCH   1  16
BRANCH   5  22
ATOM     22  C   UNL     1      -9.274  -3.002   0.464  0.00  0.00    -0.057 A 
ATOM     23  C   UNL     1      -9.581  -3.247   1.790  0.00  0.00    +0.006 A 
ATOM     24  C   UNL     1     -10.455  -2.416   2.465  0.00  0.00    +0.049 A 
ATOM     25  C   UNL     1     -11.026  -1.334   1.814  0.00  0.00    +0.158 A 
ATOM     26  C   UNL     1     -10.716  -1.087   0.480  0.00  0.00    +0.161 A 
ATOM     27  C   UNL     1      -9.835  -1.921  -0.190  0.00  0.00    +0.051 A 
BRANCH  26  28
ATOM     28  O   UNL     1     -11.273  -0.027  -0.164  0.00  0.00    -0.491 OA
ATOM     29  C   UNL     1     -10.910   0.166  -1.532  0.00  0.00    +0.277 C 
ENDBRANCH  26  28
BRANCH  25  30
ATOM     30  O   UNL     1     -11.886  -0.516   2.477  0.00  0.00    -0.503 OA
ATOM     31  H   UNL     1     -11.458   0.229   2.920  0.00  0.00    +0.292 HD
ENDBRANCH  25  30
ENDBRANCH   5  22
BRANCH   7  32
ATOM     32  C   UNL     1      -7.219  -7.271  -0.650  0.00  0.00    +0.347 C 
ATOM     33  O   UNL     1      -8.217  -7.602  -1.268  0.00  0.00    -0.248 OA
ATOM     34  O   UNL     1      -6.207  -7.948  -0.719  0.00  0.00    -0.248 OA
ENDBRANCH   7  32
BRANCH   7  35
ATOM     35  C   UNL     1      -6.926  -6.373   1.656  0.00  0.00    +0.035 C 
BRANCH  35  36
ATOM     36  C   UNL     1      -7.930  -7.380   2.156  0.00  0.00    -0.048 A 
ATOM     37  C   UNL     1      -9.053  -6.955   2.841  0.00  0.00    +0.003 A 
ATOM     38  C   UNL     1      -9.973  -7.878   3.300  0.00  0.00    +0.000 A 
ATOM     39  C   UNL     1      -9.771  -9.227   3.074  0.00  0.00    +0.000 A 
ATOM     40  C   UNL     1      -8.648  -9.652   2.389  0.00  0.00    +0.000 A 
ATOM     41  C   UNL     1      -7.729  -8.728   1.926  0.00  0.00    +0.003 A 
ENDBRANCH  35  36
ENDBRANCH   7  35
TORSDOF 8
