REMARK  Name = ZINC09427904
REMARK  4 active torsions:
REMARK  status: ('A' for Active; 'I' for Inactive)
REMARK    1  A    between atoms: C_1  and  C_2
REMARK    2  A    between atoms: C_5  and  C_8
REMARK    3  A    between atoms: C_19  and  C_20
REMARK    4  A    between atoms: C_27  and  C_30
REMARK                            x       y       z     vdW  Elec       q    Type
REMARK                         _______ _______ _______ _____ _____    ______ ____
ROOT
ATOM      1  C   UNL     1      -1.114   0.638   5.455  0.00  0.00    +0.050 C 
ATOM      2  C   UNL     1      -1.712   1.163   6.539  0.00  0.00    +0.072 C 
ATOM      3  S   UNL     1      -2.495   2.618   5.864  0.00  0.00    -0.060 S 
ATOM      4  C   UNL     1      -1.965   2.417   4.176  0.00  0.00    +0.166 C 
ATOM      5  N   UNL     1      -2.160   3.113   3.097  0.00  0.00    -0.225 NA
ATOM      6  C   UNL     1      -1.657   2.787   1.872  0.00  0.00    +0.071 C 
ATOM      7  C   UNL     1      -0.897   1.686   1.717  0.00  0.00    -0.019 C 
ATOM      8  C   UNL     1      -0.305   1.292   0.394  0.00  0.00    +0.035 C 
ATOM      9  C   UNL     1      -1.082   1.904  -0.768  0.00  0.00    +0.009 C 
ATOM     10  C   UNL     1      -1.175   3.423  -0.565  0.00  0.00    +0.037 C 
ATOM     11  C   UNL     1      -1.954   3.656   0.713  0.00  0.00    -0.021 C 
ATOM     12  C   UNL     1      -2.885   4.621   0.790  0.00  0.00    +0.013 C 
ATOM     13  C   UNL     1      -0.632   0.822   2.933  0.00  0.00    +0.139 C 
ATOM     14  N   UNL     1      -1.224   1.258   4.224  0.00  0.00    -0.267 N 
ENDROOT
BRANCH   1  19
ATOM     15  C   UNL     1       1.923  -4.226   5.943  0.00  0.00    +0.044 C 
ATOM     16  C   UNL     1       1.127  -2.952   5.815  0.00  0.00    -0.050 A 
ATOM     17  C   UNL     1       1.677  -1.859   5.170  0.00  0.00    +0.004 A 
ATOM     18  C   UNL     1       0.955  -0.690   5.050  0.00  0.00    +0.010 A 
ATOM     19  C   UNL     1      -0.334  -0.612   5.580  0.00  0.00    -0.003 A 
ATOM     20  C   UNL     1      -0.881  -1.717   6.233  0.00  0.00    +0.010 A 
ATOM     21  C   UNL     1      -0.150  -2.882   6.343  0.00  0.00    +0.004 A 
ENDBRANCH   1  19
BRANCH  12  22
ATOM     22  C   UNL     1      -3.042   5.583  -0.315  0.00  0.00    -0.025 A 
ATOM     23  C   UNL     1      -1.931   5.980  -1.063  0.00  0.00    +0.009 A 
ATOM     24  C   UNL     1      -2.087   6.876  -2.100  0.00  0.00    +0.020 A 
ATOM     25  C   UNL     1      -3.339   7.391  -2.392  0.00  0.00    +0.041 A 
ATOM     26  C   UNL     1      -4.444   7.006  -1.650  0.00  0.00    +0.020 A 
ATOM     27  C   UNL     1      -4.303   6.106  -0.615  0.00  0.00    +0.009 A 
ATOM     28 CL   UNL     1      -3.525   8.524  -3.695  0.00  0.00    -0.084 Cl
ENDBRANCH  12  22
BRANCH  13  29
ATOM     29  C   UNL     1      -1.145  -0.563   2.634  0.00  0.00    -0.022 A 
ATOM     30  C   UNL     1      -2.487  -0.853   2.793  0.00  0.00    +0.007 A 
ATOM     31  C   UNL     1      -2.958  -2.122   2.514  0.00  0.00    +0.020 A 
ATOM     32  C   UNL     1      -2.084  -3.105   2.086  0.00  0.00    +0.041 A 
ATOM     33  C   UNL     1      -0.740  -2.816   1.932  0.00  0.00    +0.020 A 
ATOM     34  C   UNL     1      -0.271  -1.546   2.206  0.00  0.00    +0.007 A 
ATOM     35 CL   UNL     1      -2.675  -4.701   1.741  0.00  0.00    -0.084 Cl
ENDBRANCH  13  29
TORSDOF 3
