REMARK  Name = ZINC07236057
REMARK  7 active torsions:
REMARK  status: ('A' for Active; 'I' for Inactive)
REMARK    1  A    between atoms: C_1  and  C_2
REMARK    2  A    between atoms: C_5  and  C_8
REMARK    3  A    between atoms: C_10  and  C_18
REMARK    4  A    between atoms: C_21  and  S_24
REMARK    5  A    between atoms: N_22  and  C_23
REMARK    6  A    between atoms: S_24  and  C_25
REMARK    7  A    between atoms: C_25  and  C_26
REMARK                            x       y       z     vdW  Elec       q    Type
REMARK                         _______ _______ _______ _____ _____    ______ ____
ROOT
ATOM      1  C   UNL     1      -1.858   8.362   4.326  0.00  0.00    +0.072 A 
ATOM      2  C   UNL     1      -1.660   7.146   3.663  0.00  0.00    +0.040 A 
ATOM      3  C   UNL     1      -1.077   7.145   2.400  0.00  0.00    +0.030 A 
ATOM      4  C   UNL     1      -0.709   8.442   1.828  0.00  0.00    +0.011 A 
ATOM      5  C   UNL     1      -0.123   8.543   0.562  0.00  0.00    +0.011 A 
ATOM      6  C   UNL     1       0.204   9.771   0.067  0.00  0.00    +0.001 A 
ATOM      7  C   UNL     1      -0.039  10.926   0.807  0.00  0.00    +0.002 A 
ATOM      8  C   UNL     1      -0.608  10.862   2.042  0.00  0.00    +0.028 A 
ATOM      9  C   UNL     1      -0.959   9.613   2.585  0.00  0.00    +0.072 A 
ATOM     10  N   UNL     1      -1.519   9.519   3.794  0.00  0.00    -0.247 NA
ENDROOT
BRANCH   1  15
ATOM     11  C   UNL     1      -4.255   8.309   9.562  0.00  0.00    +0.044 C 
ATOM     12  C   UNL     1      -3.628   8.323   8.192  0.00  0.00    -0.050 A 
ATOM     13  C   UNL     1      -3.265   9.525   7.613  0.00  0.00    +0.004 A 
ATOM     14  C   UNL     1      -2.690   9.544   6.358  0.00  0.00    +0.010 A 
ATOM     15  C   UNL     1      -2.476   8.348   5.675  0.00  0.00    +0.000 A 
ATOM     16  C   UNL     1      -2.850   7.140   6.261  0.00  0.00    +0.010 A 
ATOM     17  C   UNL     1      -3.419   7.133   7.518  0.00  0.00    +0.004 A 
ENDBRANCH   1  15
BRANCH   3  18
ATOM     18  C   UNL     1      -0.845   5.889   1.664  0.00  0.00    +0.165 A 
ATOM     19  N   UNL     1       0.263   5.537   1.050  0.00  0.00    -0.128 NA
ATOM     20  N   UNL     1       0.117   4.376   0.516  0.00  0.00    -0.122 NA
ATOM     21  C   UNL     1      -1.095   3.920   0.750  0.00  0.00    +0.193 A 
ATOM     22  N   UNL     1      -1.747   4.863   1.490  0.00  0.00    -0.305 N 
ATOM     23  C   UNL     1      -3.121   4.798   1.995  0.00  0.00    +0.153 C 
BRANCH  21  24
ATOM     24  S   UNL     1      -1.751   2.375   0.215  0.00  0.00    -0.071 S 
BRANCH  24  25
ATOM     25  C   UNL     1      -0.322   1.720  -0.682  0.00  0.00    +0.195 C 
BRANCH  25  26
ATOM     26  C   UNL     1      -0.652   0.396  -1.232  0.00  0.00    +0.074 C 
ATOM     27  N   UNL     1      -0.907  -0.627  -1.657  0.00  0.00    -0.196 NA
ENDBRANCH  25  26
ENDBRANCH  24  25
ENDBRANCH  21  24
ENDBRANCH   3  18
TORSDOF 5
