REMARK  Name = ZINC25039592
REMARK  5 active torsions:
REMARK  status: ('A' for Active; 'I' for Inactive)
REMARK    1  A    between atoms: C_1  and  C_2
REMARK    2  A    between atoms: C_4  and  C_16
REMARK    3  A    between atoms: N_18  and  O_19
REMARK    4  A    between atoms: O_19  and  C_20
REMARK    5  A    between atoms: C_20  and  C_21
REMARK                            x       y       z     vdW  Elec       q    Type
REMARK                         _______ _______ _______ _____ _____    ______ ____
ROOT
ATOM      1  C   UNL     1      -5.012   1.334   0.030  0.00  0.00    +0.065 C 
ATOM      2  C   UNL     1      -3.705   2.084   0.030  0.00  0.00    +0.041 A 
ATOM      3  C   UNL     1      -2.518   1.373   0.021  0.00  0.00    +0.038 A 
ATOM      4  C   UNL     1      -1.306   2.065   0.019  0.00  0.00    +0.069 A 
ATOM      5  C   UNL     1      -1.351   3.474   0.033  0.00  0.00    +0.120 A 
ATOM      6  C   UNL     1      -2.606   4.112   0.041  0.00  0.00    +0.161 A 
ATOM      7  N   UNL     1      -3.720   3.401   0.039  0.00  0.00    -0.233 NA
ATOM      8  N   UNL     1      -2.336   5.464   0.061  0.00  0.00    -0.312 N 
ATOM      9  C   UNL     1      -0.984   5.612   0.056  0.00  0.00    +0.112 A 
ATOM     10  N   UNL     1      -0.412   4.439   0.035  0.00  0.00    -0.230 NA
ATOM     11  C   UNL     1      -0.257   6.936   0.056  0.00  0.00    +0.074 C 
ATOM     12  C   UNL     1      -0.865   7.847   1.125  0.00  0.00    +0.008 C 
ATOM     13  C   UNL     1      -2.025   8.636   0.526  0.00  0.00    +0.002 C 
ATOM     14  C   UNL     1      -2.749   7.801  -0.529  0.00  0.00    +0.022 C 
ATOM     15  C   UNL     1      -3.328   6.542   0.122  0.00  0.00    +0.125 C 
ENDROOT
BRANCH   4  16
ATOM     16  C   UNL     1      -0.016   1.344   0.009  0.00  0.00    +0.269 C 
ATOM     17  O   UNL     1       1.028   1.966   0.003  0.00  0.00    -0.268 OA
ATOM     18  N   UNL     1       0.002  -0.004   0.002  0.00  0.00    -0.190 N 
ATOM     19  H   UNL     1      -0.943  -0.567   0.008  0.00  0.00    +0.183 HD
BRANCH  18  20
ATOM     20  O   UNL     1       1.238  -0.695  -0.013  0.00  0.00    -0.275 OA
BRANCH  20  21
ATOM     21  C   UNL     1       1.108  -2.118  -0.020  0.00  0.00    +0.225 C 
BRANCH  21  22
ATOM     22  C   UNL     1       2.477  -2.748  -0.036  0.00  0.00    -0.020 A 
ATOM     23  C   UNL     1       3.091  -3.035  -1.241  0.00  0.00    +0.006 A 
ATOM     24  C   UNL     1       4.349  -3.608  -1.256  0.00  0.00    +0.000 A 
ATOM     25  C   UNL     1       4.988  -3.903  -0.067  0.00  0.00    +0.000 A 
ATOM     26  C   UNL     1       4.372  -3.621   1.138  0.00  0.00    +0.000 A 
ATOM     27  C   UNL     1       3.116  -3.043   1.153  0.00  0.00    +0.006 A 
ENDBRANCH  21  22
ENDBRANCH  20  21
ENDBRANCH  18  20
ENDBRANCH   4  16
TORSDOF 4
