REMARK  Name = ZINC26540641
REMARK  8 active torsions:
REMARK  status: ('A' for Active; 'I' for Inactive)
REMARK    1  A    between atoms: C_3  and  N_22
REMARK    2  A    between atoms: C_4  and  N_10
REMARK    3  A    between atoms: C_6  and  N_7
REMARK    4  A    between atoms: N_10  and  S_11
REMARK    5  A    between atoms: S_11  and  C_14
REMARK    6  A    between atoms: N_22  and  C_23
REMARK    7  A    between atoms: C_23  and  C_24
REMARK    8  A    between atoms: C_24  and  O_25
REMARK                            x       y       z     vdW  Elec       q    Type
REMARK                         _______ _______ _______ _____ _____    ______ ____
ROOT
ATOM      1  C   UNL     1       4.756  -0.312   1.872  0.00  0.00    +0.034 A 
ATOM      2  C   UNL     1       4.146   0.332   2.933  0.00  0.00    +0.027 A 
ATOM      3  C   UNL     1       3.699   1.636   2.787  0.00  0.00    +0.052 A 
ATOM      4  C   UNL     1       3.857   2.291   1.566  0.00  0.00    +0.097 A 
ATOM      5  C   UNL     1       4.470   1.637   0.508  0.00  0.00    +0.061 A 
ATOM      6  C   UNL     1       4.918   0.338   0.664  0.00  0.00    +0.128 A 
ENDROOT
BRANCH   6   7
ATOM      7  N   UNL     1       5.572  -0.357  -0.467  0.00  0.00    +0.056 N 
ATOM      8  O   UNL     1       5.716   0.214  -1.533  0.00  0.00    -0.126 OA
ATOM      9  O   UNL     1       5.967  -1.502  -0.332  0.00  0.00    -0.126 OA
ENDBRANCH   6   7
BRANCH   3  10
ATOM     10  N   UNL     1       3.086   2.292   3.861  0.00  0.00    -0.340 N 
ATOM     11  H   UNL     1       2.728   3.325   3.743  0.00  0.00    +0.146 HD
BRANCH  10  12
ATOM     12  C   UNL     1       2.921   1.602   5.143  0.00  0.00    +0.129 C 
BRANCH  12  13
ATOM     13  C   UNL     1       2.227   2.535   6.139  0.00  0.00    +0.174 C 
BRANCH  13  14
ATOM     14  O   UNL     1       0.901   2.814   5.686  0.00  0.00    -0.393 OA
ATOM     15  H   UNL     1       0.245   3.471   6.276  0.00  0.00    +0.209 HD
ENDBRANCH  13  14
ENDBRANCH  12  13
ENDBRANCH  10  12
ENDBRANCH   3  10
BRANCH   4  16
ATOM     16  N   UNL     1       3.404   3.606   1.410  0.00  0.00    -0.096 NA
BRANCH  16  17
ATOM     17  S   UNL     1       2.774   4.099  -0.040  0.00  0.00    +0.093 S 
ATOM     18  O   UNL     1       2.371   5.451   0.131  0.00  0.00    -0.148 OA
ATOM     19  O   UNL     1       1.874   3.083  -0.458  0.00  0.00    -0.148 OA
BRANCH  17  20
ATOM     20  C   UNL     1       4.097   4.112  -1.204  0.00  0.00    +0.125 A 
ATOM     21  C   UNL     1       4.062   3.267  -2.298  0.00  0.00    +0.045 A 
ATOM     22  C   UNL     1       5.100   3.277  -3.212  0.00  0.00    +0.020 A 
ATOM     23  C   UNL     1       6.170   4.135  -3.035  0.00  0.00    +0.016 A 
ATOM     24  C   UNL     1       6.208   4.976  -1.938  0.00  0.00    +0.018 A 
ATOM     25  C   UNL     1       5.169   4.966  -1.024  0.00  0.00    +0.045 A 
ATOM     26 BR   UNL     1       5.217   6.121   0.473  0.00  0.00    -0.048 Br
ATOM     27 BR   UNL     1       5.053   2.121  -4.708  0.00  0.00    -0.050 Br
ENDBRANCH  17  20
ENDBRANCH  16  17
ENDBRANCH   4  16
TORSDOF 8
