REMARK  Name = ZINC41353713
REMARK  5 active torsions:
REMARK  status: ('A' for Active; 'I' for Inactive)
REMARK    1  A    between atoms: C_1  and  C_2
REMARK    2  A    between atoms: C_6  and  C_7
REMARK    3  A    between atoms: C_14  and  O_18
REMARK    4  A    between atoms: O_18  and  C_19
REMARK    5  A    between atoms: C_19  and  C_21
REMARK                            x       y       z     vdW  Elec       q    Type
REMARK                         _______ _______ _______ _____ _____    ______ ____
ROOT
ATOM      1  C   UNL     1      -0.138  -0.263   2.587  0.00  0.00    +0.065 C 
ATOM      2  C   UNL     1      -0.061  -1.179   3.595  0.00  0.00    +0.177 C 
ATOM      3  C   UNL     1       0.057  -0.882   4.979  0.00  0.00    +0.231 C 
ATOM      4  O   UNL     1       0.108   0.220   5.498  0.00  0.00    -0.283 OA
ATOM      5  C   UNL     1       0.103  -2.192   5.652  0.00  0.00    +0.068 A 
ATOM      6  C   UNL     1       0.212  -2.583   6.987  0.00  0.00    +0.019 A 
ATOM      7  C   UNL     1       0.229  -3.911   7.308  0.00  0.00    +0.047 A 
ATOM      8  C   UNL     1       0.139  -4.875   6.307  0.00  0.00    +0.136 A 
ATOM      9  C   UNL     1       0.030  -4.502   4.977  0.00  0.00    +0.093 A 
ATOM     10  C   UNL     1       0.011  -3.156   4.635  0.00  0.00    +0.143 A 
ATOM     11  O   UNL     1      -0.089  -2.525   3.446  0.00  0.00    -0.451 OA
ENDROOT
BRANCH   1  17
ATOM     12  C   UNL     1      -0.334   1.571   0.107  0.00  0.00    +0.045 C 
ATOM     13  C   UNL     1      -0.352   0.065   0.085  0.00  0.00    -0.036 A 
ATOM     14  C   UNL     1      -0.456  -0.649  -1.084  0.00  0.00    +0.011 A 
ATOM     15  C   UNL     1      -0.466  -2.005  -1.032  0.00  0.00    +0.046 A 
ATOM     16  S   UNL     1      -0.336  -2.357   0.606  0.00  0.00    -0.097 S 
ATOM     17  C   UNL     1      -0.259  -0.696   1.248  0.00  0.00    +0.019 A 
ENDBRANCH   1  17
BRANCH   8  18
ATOM     18  O   UNL     1       0.157  -6.192   6.637  0.00  0.00    -0.420 OA
BRANCH  18  19
ATOM     19  C   UNL     1      -0.909  -6.696   7.291  0.00  0.00    +0.380 C 
ATOM     20  O   UNL     1      -1.892  -6.004   7.476  0.00  0.00    -0.241 OA
BRANCH  19  21
ATOM     21  C   UNL     1      -0.884  -8.079   7.780  0.00  0.00    +0.213 A 
ATOM     22  C   UNL     1      -1.898  -8.693   8.445  0.00  0.00    +0.065 A 
ATOM     23  C   UNL     1      -1.432 -10.049   8.732  0.00  0.00    +0.022 A 
ATOM     24  C   UNL     1      -1.992 -11.155   9.377  0.00  0.00    +0.027 A 
ATOM     25  C   UNL     1      -1.274 -12.313   9.482  0.00  0.00    +0.019 A 
ATOM     26  C   UNL     1       0.008 -12.396   8.953  0.00  0.00    +0.019 A 
ATOM     27  C   UNL     1       0.578 -11.317   8.314  0.00  0.00    +0.048 A 
ATOM     28  C   UNL     1      -0.134 -10.129   8.194  0.00  0.00    +0.136 A 
ATOM     29  O   UNL     1       0.148  -8.936   7.633  0.00  0.00    -0.448 OA
ATOM     30 BR   UNL     1      -2.029 -13.811  10.355  0.00  0.00    -0.050 Br
ENDBRANCH  19  21
ENDBRANCH  18  19
ENDBRANCH   8  18
TORSDOF 4
