REMARK  Name = ZINC00909585
REMARK  9 active torsions:
REMARK  status: ('A' for Active; 'I' for Inactive)
REMARK    1  A    between atoms: C_1  and  C_2
REMARK    2  A    between atoms: C_2  and  C_3
REMARK    3  A    between atoms: C_3  and  C_4
REMARK    4  A    between atoms: C_3  and  C_5
REMARK    5  A    between atoms: C_3  and  N_6
REMARK    6  A    between atoms: C_7  and  C_11
REMARK    7  A    between atoms: C_11  and  C_13
REMARK    8  A    between atoms: C_11  and  N_26
REMARK    9  A    between atoms: C_19  and  C_25
REMARK                            x       y       z     vdW  Elec       q    Type
REMARK                         _______ _______ _______ _____ _____    ______ ____
ROOT
ATOM      1  C   UNL     1       2.936   0.449  -0.945  0.00  0.00    +0.179 C 
ENDROOT
BRANCH   1   2
ATOM      2  C   UNL     1       4.090  -0.425  -0.526  0.00  0.00    +0.045 A 
ATOM      3  C   UNL     1       4.420  -0.526   0.785  0.00  0.00    +0.021 A 
ATOM      4  C   UNL     1       5.544  -1.387   1.159  0.00  0.00    -0.001 A 
ATOM      5  C   UNL     1       5.927  -1.537   2.496  0.00  0.00    +0.010 A 
ATOM      6  C   UNL     1       6.983  -2.344   2.811  0.00  0.00    +0.001 A 
ATOM      7  C   UNL     1       7.678  -3.019   1.817  0.00  0.00    +0.005 A 
ATOM      8  C   UNL     1       7.318  -2.887   0.493  0.00  0.00    -0.026 A 
ATOM      9  C   UNL     1       6.246  -2.070   0.148  0.00  0.00    +0.052 A 
ATOM     10  N   UNL     1       5.863  -1.921  -1.168  0.00  0.00    -0.322 N 
ATOM     11  H   UNL     1       6.364  -2.406  -1.885  0.00  0.00    +0.169 HD
ATOM     12  C   UNL     1       4.827  -1.131  -1.501  0.00  0.00    +0.255 A 
ATOM     13  O   UNL     1       4.516  -1.023  -2.675  0.00  0.00    -0.268 OA
ATOM     14  C   UNL     1       8.082  -3.625  -0.576  0.00  0.00    +0.046 C 
ENDBRANCH   1   2
BRANCH   1  15
ATOM     15  N   UNL     1       3.357   1.319  -2.051  0.00  0.00    -0.316 N 
ATOM     16  C   UNL     1       2.227   1.643  -2.924  0.00  0.00    +0.106 C 
ATOM     17  C   UNL     1       2.719   2.572  -4.040  0.00  0.00    +0.024 C 
ATOM     18  C   UNL     1       3.083   3.917  -3.408  0.00  0.00    +0.038 C 
ATOM     19  C   UNL     1       3.929   3.689  -2.181  0.00  0.00    -0.026 A 
ATOM     20  C   UNL     1       4.020   2.449  -1.573  0.00  0.00    +0.034 A 
ATOM     21  C   UNL     1       4.807   2.302  -0.429  0.00  0.00    +0.023 A 
ATOM     22  C   UNL     1       5.493   3.380   0.088  0.00  0.00    +0.002 A 
ATOM     23  C   UNL     1       5.403   4.616  -0.526  0.00  0.00    +0.000 A 
ATOM     24  C   UNL     1       4.624   4.767  -1.656  0.00  0.00    +0.005 A 
ENDBRANCH   1  15
BRANCH   1  26
ATOM     25  N   UNL     1       0.570  -0.496  -0.830  0.00  0.00    -0.222 N 
ATOM     26  C   UNL     1       1.788  -0.417  -1.397  0.00  0.00    +0.177 A 
ATOM     27  N   UNL     1       1.784  -1.242  -2.415  0.00  0.00    -0.111 NA
ATOM     28  N   UNL     1       0.620  -1.792  -2.476  0.00  0.00    -0.023 NA
ATOM     29  N   UNL     1      -0.116  -1.344  -1.520  0.00  0.00    -0.043 NA
BRANCH  25  30
ATOM     30  C   UNL     1       0.107   0.246   0.345  0.00  0.00    +0.062 C 
ATOM     31  C   UNL     1       0.167   1.747   0.057  0.00  0.00    +0.036 C 
ATOM     32  C   UNL     1       1.005  -0.080   1.540  0.00  0.00    +0.036 C 
BRANCH  30  34
ATOM     33  C   UNL     1      -1.818   0.621   1.894  0.00  0.00    +0.006 C 
ATOM     34  C   UNL     1      -1.335  -0.154   0.666  0.00  0.00    +0.026 C 
ENDBRANCH  30  34
ENDBRANCH  25  30
ENDBRANCH   1  26
TORSDOF 5
