REMARK  Name = ZINC40635650
REMARK  5 active torsions:
REMARK  status: ('A' for Active; 'I' for Inactive)
REMARK    1  A    between atoms: C_4  and  C_7
REMARK    2  A    between atoms: C_10  and  C_12
REMARK    3  A    between atoms: C_12  and  N_13
REMARK    4  A    between atoms: N_13  and  S_14
REMARK    5  A    between atoms: S_14  and  C_17
REMARK                            x       y       z     vdW  Elec       q    Type
REMARK                         _______ _______ _______ _____ _____    ______ ____
ROOT
ATOM      1  N   UNL     1       8.204  -1.863  -1.469  0.00  0.00    -0.185 NA
ATOM      2  H   UNL     1       7.569  -1.977  -2.192  0.00  0.00    +0.148 HD
ENDROOT
BRANCH   1   3
ATOM      3  S   UNL     1       9.822  -1.739  -1.800  0.00  0.00    +0.059 S 
ATOM      4  O   UNL     1       9.959  -1.862  -3.209  0.00  0.00    -0.153 OA
ATOM      5  O   UNL     1      10.298  -0.608  -1.083  0.00  0.00    -0.153 OA
BRANCH   3   6
ATOM      6  C   UNL     1      10.608  -3.150  -1.093  0.00  0.00    +0.106 A 
ATOM      7  C   UNL     1      11.074  -3.104   0.208  0.00  0.00    +0.030 A 
ATOM      8  C   UNL     1      11.690  -4.204   0.767  0.00  0.00    +0.025 A 
ATOM      9  C   UNL     1      11.846  -5.372   0.023  0.00  0.00    +0.037 A 
ATOM     10  C   UNL     1      11.373  -5.406  -1.282  0.00  0.00    -0.016 A 
ATOM     11  C   UNL     1      10.754  -4.308  -1.836  0.00  0.00    +0.034 A 
ATOM     12  C   UNL     1      11.686  -6.786  -1.813  0.00  0.00    +0.133 C 
ATOM     13  C   UNL     1      12.373  -7.478  -0.655  0.00  0.00    +0.222 C 
ATOM     14  O   UNL     1      12.798  -8.614  -0.644  0.00  0.00    -0.275 OA
ATOM     15  N   UNL     1      12.424  -6.597   0.358  0.00  0.00    -0.285 N 
ATOM     16  H   UNL     1      12.818  -6.790   1.224  0.00  0.00    +0.155 HD
ENDBRANCH   3   6
ENDBRANCH   1   3
BRANCH   1  17
ATOM     17  C   UNL     1       7.733  -1.800  -0.083  0.00  0.00    +0.148 C 
BRANCH  17  21
ATOM     18  C   UNL     1       3.695  -0.685  -0.038  0.00  0.00    +0.020 A 
ATOM     19  C   UNL     1       3.933  -2.033  -0.054  0.00  0.00    +0.016 A 
ATOM     20  C   UNL     1       5.237  -2.476  -0.069  0.00  0.00    +0.013 A 
ATOM     21  C   UNL     1       6.245  -1.566  -0.069  0.00  0.00    +0.006 A 
ATOM     22  S   UNL     1       5.352  -0.020  -0.052  0.00  0.00    -0.092 S 
BRANCH  18  26
ATOM     23  C   UNL     1      -0.017   1.379   0.010  0.00  0.00    +0.000 A 
ATOM     24  C   UNL     1       1.168   2.093   0.002  0.00  0.00    +0.001 A 
ATOM     25  C   UNL     1       2.377   1.429  -0.013  0.00  0.00    +0.009 A 
ATOM     26  C   UNL     1       2.403   0.034  -0.021  0.00  0.00    -0.011 A 
ATOM     27  C   UNL     1       1.204  -0.681  -0.013  0.00  0.00    +0.009 A 
ATOM     28  C   UNL     1       0.002  -0.004   0.002  0.00  0.00    +0.001 A 
ENDBRANCH  18  26
ENDBRANCH  17  21
ENDBRANCH   1  17
TORSDOF 5
