REMARK  Name = ZINC41078726
REMARK  7 active torsions:
REMARK  status: ('A' for Active; 'I' for Inactive)
REMARK    1  A    between atoms: C_1  and  C_2
REMARK    2  A    between atoms: C_5  and  O_11
REMARK    3  A    between atoms: C_6  and  N_8
REMARK    4  A    between atoms: O_11  and  C_12
REMARK    5  A    between atoms: C_17  and  C_18
REMARK    6  A    between atoms: C_18  and  C_20
REMARK    7  A    between atoms: C_18  and  N_21
REMARK                            x       y       z     vdW  Elec       q    Type
REMARK                         _______ _______ _______ _____ _____    ______ ____
ROOT
ATOM      1  C   UNL     1       0.083  -4.849  -1.173  0.00  0.00    +0.130 A 
ATOM      2  C   UNL     1       0.140  -4.199  -2.397  0.00  0.00    +0.049 A 
ATOM      3  C   UNL     1       0.164  -4.932  -3.568  0.00  0.00    +0.042 A 
ATOM      4  C   UNL     1       0.132  -6.316  -3.519  0.00  0.00    +0.124 A 
ATOM      5  C   UNL     1       0.075  -6.966  -2.299  0.00  0.00    +0.044 A 
ATOM      6  C   UNL     1       0.056  -6.235  -1.126  0.00  0.00    -0.017 A 
ATOM      7  F   UNL     1       0.155  -7.032  -4.665  0.00  0.00    -0.205 F 
ENDROOT
BRANCH   6   8
ATOM      8  C   UNL     1      -0.000  -6.944   0.203  0.00  0.00    -0.044 C 
ATOM      9  C   UNL     1       1.401  -6.989   0.816  0.00  0.00    -0.009 C 
BRANCH   8  10
ATOM     10  N   UNL     1      -0.493  -8.314   0.007  0.00  0.00    +0.383 N 
ATOM     11  H   UNL     1      -1.417  -8.284  -0.397  0.00  0.00    -0.089 HD
ATOM     12  H   UNL     1       0.130  -8.810  -0.612  0.00  0.00    -0.089 HD
ATOM     13  H   UNL     1      -0.530  -8.788   0.897  0.00  0.00    -0.089 HD
ENDBRANCH   8  10
ENDBRANCH   6   8
BRANCH   1  14
ATOM     14  O   UNL     1       0.059  -4.129  -0.021  0.00  0.00    -0.454 OA
BRANCH  14  19
ATOM     15  C   UNL     1      -4.957  -2.911   2.233  0.00  0.00    +0.044 C 
ATOM     16  C   UNL     1      -3.615  -3.237   1.630  0.00  0.00    -0.048 A 
ATOM     17  C   UNL     1      -3.545  -3.902   0.420  0.00  0.00    +0.007 A 
ATOM     18  C   UNL     1      -2.317  -4.202  -0.135  0.00  0.00    +0.049 A 
ATOM     19  C   UNL     1      -1.151  -3.835   0.523  0.00  0.00    +0.159 A 
ATOM     20  C   UNL     1      -1.224  -3.168   1.737  0.00  0.00    +0.168 A 
ATOM     21  C   UNL     1      -2.455  -2.866   2.286  0.00  0.00    +0.039 A 
BRANCH  20  22
ATOM     22  N   UNL     1       0.017  -2.775   2.442  0.00  0.00    +0.060 N 
ATOM     23  O   UNL     1      -0.047  -2.194   3.500  0.00  0.00    -0.126 OA
ATOM     24  O   UNL     1       1.095  -3.036   1.960  0.00  0.00    -0.126 OA
ENDBRANCH  20  22
ENDBRANCH  14  19
ENDBRANCH   1  14
TORSDOF 5
