REMARK  Name = ZINC12600340
REMARK  4 active torsions:
REMARK  status: ('A' for Active; 'I' for Inactive)
REMARK    1  A    between atoms: C_3  and  N_24
REMARK    2  A    between atoms: C_4  and  C_20
REMARK    3  A    between atoms: C_6  and  N_7
REMARK    4  A    between atoms: C_8  and  C_9
REMARK                            x       y       z     vdW  Elec       q    Type
REMARK                         _______ _______ _______ _____ _____    ______ ____
ROOT
ATOM      1  C   UNL     1      -0.017   1.392   0.010  0.00  0.00    +0.030 A 
ATOM      2  C   UNL     1       1.170   2.095   0.002  0.00  0.00    +0.035 A 
ATOM      3  C   UNL     1       2.378   1.420  -0.013  0.00  0.00    +0.138 A 
ATOM      4  C   UNL     1       2.404   0.036  -0.022  0.00  0.00    +0.087 A 
ATOM      5  C   UNL     1       1.225  -0.679  -0.014  0.00  0.00    +0.042 A 
ATOM      6  C   UNL     1       0.002  -0.004   0.002  0.00  0.00    +0.065 A 
ENDROOT
BRANCH   4   7
ATOM      7  C   UNL     1       3.724  -0.691  -0.040  0.00  0.00    +0.420 C 
ATOM      8  F   UNL     1       3.496  -2.071  -0.045  0.00  0.00    -0.166 F 
ATOM      9  F   UNL     1       4.438  -0.332  -1.188  0.00  0.00    -0.166 F 
ATOM     10  F   UNL     1       4.463  -0.344   1.097  0.00  0.00    -0.166 F 
ENDBRANCH   4   7
BRANCH   3  11
ATOM     11  N   UNL     1       3.647   2.180  -0.022  0.00  0.00    +0.057 N 
ATOM     12  O   UNL     1       3.628   3.389  -0.015  0.00  0.00    -0.126 OA
ATOM     13  O   UNL     1       4.704   1.593  -0.036  0.00  0.00    -0.126 OA
ENDBRANCH   3  11
BRANCH   6  14
ATOM     14  N   UNL     1      -1.172  -0.708   0.009  0.00  0.00    -0.255 NA
ATOM     15  C   UNL     1      -2.136  -0.361   0.821  0.00  0.00    +0.121 C 
BRANCH  15  16
ATOM     16  C   UNL     1      -3.393  -1.115   0.829  0.00  0.00    +0.018 A 
ATOM     17  C   UNL     1      -4.486  -0.872   1.609  0.00  0.00    +0.093 A 
ATOM     18  N   UNL     1      -5.456  -1.780   1.333  0.00  0.00    -0.360 N 
ATOM     19  H   UNL     1      -6.325  -1.809   1.763  0.00  0.00    +0.165 HD
ATOM     20  C   UNL     1      -5.031  -2.656   0.356  0.00  0.00    +0.047 A 
ATOM     21  C   UNL     1      -3.728  -2.281  -0.010  0.00  0.00    +0.009 A 
ATOM     22  C   UNL     1      -3.046  -2.994  -0.992  0.00  0.00    +0.026 A 
ATOM     23  C   UNL     1      -3.656  -4.067  -1.605  0.00  0.00    +0.019 A 
ATOM     24  C   UNL     1      -4.945  -4.437  -1.246  0.00  0.00    +0.017 A 
ATOM     25  C   UNL     1      -5.629  -3.744  -0.271  0.00  0.00    +0.027 A 
ATOM     26 BR   UNL     1      -2.735  -5.039  -2.939  0.00  0.00    -0.050 Br
ENDBRANCH  15  16
ENDBRANCH   6  14
TORSDOF 4
