REMARK  Name = ZINC00630319
REMARK  10 active torsions:
REMARK  status: ('A' for Active; 'I' for Inactive)
REMARK    1  A    between atoms: C_1  and  C_2
REMARK    2  A    between atoms: C_2  and  C_3
REMARK    3  A    between atoms: C_3  and  C_5
REMARK    4  A    between atoms: C_3  and  N_21
REMARK    5  A    between atoms: C_5  and  O_7
REMARK    6  A    between atoms: O_7  and  C_8
REMARK    7  A    between atoms: C_15  and  C_20
REMARK    8  A    between atoms: N_21  and  S_22
REMARK    9  A    between atoms: S_22  and  C_25
REMARK   10  A    between atoms: C_28  and  C_31
REMARK                            x       y       z     vdW  Elec       q    Type
REMARK                         _______ _______ _______ _____ _____    ______ ____
ROOT
ATOM      1  C   UNL     1       2.340   1.094  -0.994  0.00  0.00    +0.331 C 
ATOM      2  O   UNL     1       2.194   0.004  -1.496  0.00  0.00    -0.249 OA
ENDROOT
BRANCH   1   3
ATOM      3  C   UNL     1       1.226   1.705  -0.183  0.00  0.00    +0.185 C 
BRANCH   3   5
ATOM      4  C   UNL     1       2.077   0.625   1.903  0.00  0.00    +0.006 C 
ATOM      5  C   UNL     1       1.713   1.957   1.245  0.00  0.00    +0.028 C 
ENDBRANCH   3   5
BRANCH   3   6
ATOM      6  N   UNL     1       0.083   0.788  -0.154  0.00  0.00    -0.176 NA
ATOM      7  H   UNL     1       0.231  -0.170  -0.136  0.00  0.00    +0.149 HD
BRANCH   6   8
ATOM      8  S   UNL     1      -1.460   1.389  -0.160  0.00  0.00    +0.059 S 
ATOM      9  O   UNL     1      -2.332   0.267  -0.148  0.00  0.00    -0.153 OA
ATOM     10  O   UNL     1      -1.506   2.400   0.837  0.00  0.00    -0.153 OA
BRANCH   8  11
ATOM     11  C   UNL     1      -1.699   2.196  -1.708  0.00  0.00    +0.105 A 
ATOM     12  C   UNL     1      -1.401   3.539  -1.840  0.00  0.00    +0.029 A 
ATOM     13  C   UNL     1      -1.585   4.172  -3.056  0.00  0.00    +0.005 A 
ATOM     14  C   UNL     1      -2.076   3.463  -4.136  0.00  0.00    -0.050 A 
ATOM     15  C   UNL     1      -2.378   2.120  -4.003  0.00  0.00    +0.005 A 
ATOM     16  C   UNL     1      -2.190   1.487  -2.788  0.00  0.00    +0.029 A 
ATOM     17  C   UNL     1      -2.280   4.153  -5.460  0.00  0.00    +0.044 C 
ENDBRANCH   8  11
ENDBRANCH   6   8
ENDBRANCH   3   6
ENDBRANCH   1   3
BRANCH   1  18
ATOM     18  O   UNL     1       3.494   1.760  -1.158  0.00  0.00    -0.423 OA
BRANCH  18  19
ATOM     19  C   UNL     1       4.415   1.203  -1.987  0.00  0.00    +0.153 A 
ATOM     20  C   UNL     1       5.413   0.398  -1.463  0.00  0.00    +0.094 A 
ATOM     21  C   UNL     1       6.351  -0.175  -2.309  0.00  0.00    +0.143 A 
ATOM     22  C   UNL     1       6.282   0.079  -3.691  0.00  0.00    +0.022 A 
ATOM     23  C   UNL     1       5.270   0.899  -4.203  0.00  0.00    +0.035 A 
ATOM     24  C   UNL     1       4.351   1.451  -3.357  0.00  0.00    +0.084 A 
ATOM     25 CL   UNL     1       3.096   2.469  -3.992  0.00  0.00    -0.080 Cl
ATOM     26  C   UNL     1       7.280  -0.527  -4.575  0.00  0.00    -0.033 A 
ATOM     27  C   UNL     1       8.237  -1.314  -4.017  0.00  0.00    +0.096 A 
ATOM     28  C   UNL     1       8.246  -1.526  -2.623  0.00  0.00    +0.337 A 
ATOM     29  O   UNL     1       9.109  -2.234  -2.136  0.00  0.00    -0.245 OA
ATOM     30  O   UNL     1       7.328  -0.968  -1.819  0.00  0.00    -0.422 OA
ATOM     31  C   UNL     1       7.247  -0.285  -6.062  0.00  0.00    +0.045 C 
ENDBRANCH  18  19
ENDBRANCH   1  18
TORSDOF 7
