REMARK  Name = ZINC20348514
REMARK  12 active torsions:
REMARK  status: ('A' for Active; 'I' for Inactive)
REMARK    1  A    between atoms: C_1  and  C_2
REMARK    2  A    between atoms: C_3  and  N_9
REMARK    3  A    between atoms: C_10  and  C_12
REMARK    4  A    between atoms: C_12  and  S_13
REMARK    5  A    between atoms: S_13  and  C_14
REMARK    6  A    between atoms: C_15  and  C_34
REMARK    7  A    between atoms: C_16  and  C_28
REMARK    8  A    between atoms: C_18  and  C_22
REMARK    9  A    between atoms: C_19  and  C_21
REMARK   10  A    between atoms: C_22  and  O_24
REMARK   11  A    between atoms: O_24  and  C_25
REMARK   12  A    between atoms: C_25  and  C_26
REMARK                            x       y       z     vdW  Elec       q    Type
REMARK                         _______ _______ _______ _____ _____    ______ ____
ROOT
ATOM      1  C   UNL     1       3.236  -3.134   1.117  0.00  0.00    +0.080 C 
ATOM      2  C   UNL     1       1.970  -2.644   1.201  0.00  0.00    +0.069 C 
ATOM      3  C   UNL     1       1.247  -2.142  -0.016  0.00  0.00    +0.100 C 
ATOM      4  C   UNL     1       1.922  -2.614  -1.272  0.00  0.00    +0.066 C 
ATOM      5  C   UNL     1       3.176  -3.097  -1.261  0.00  0.00    +0.016 C 
ATOM      6  N   UNL     1       3.886  -3.188  -0.096  0.00  0.00    -0.312 N 
ATOM      7  C   UNL     1       3.809  -3.547  -2.552  0.00  0.00    +0.061 C 
ATOM      8  H   UNL     1       4.979  -3.304  -0.129  0.00  0.00    +0.152 HD
ENDROOT
BRANCH   3   9
ATOM      9  C   UNL     1       1.232  -0.635   0.002  0.00  0.00    -0.035 A 
ATOM     10  C   UNL     1       0.029   0.044   0.020  0.00  0.00    +0.004 A 
ATOM     11  C   UNL     1       0.015   1.427   0.036  0.00  0.00    +0.000 A 
ATOM     12  C   UNL     1       1.206   2.129   0.036  0.00  0.00    +0.000 A 
ATOM     13  C   UNL     1       2.410   1.450   0.019  0.00  0.00    +0.000 A 
ATOM     14  C   UNL     1       2.423   0.068   0.002  0.00  0.00    +0.004 A 
ENDBRANCH   3   9
BRANCH   4  15
ATOM     15  C   UNL     1       1.221  -2.548  -2.497  0.00  0.00    +0.338 C 
ATOM     16  O   UNL     1       1.753  -2.927  -3.524  0.00  0.00    -0.245 OA
BRANCH  15  17
ATOM     17  O   UNL     1      -0.039  -2.066  -2.528  0.00  0.00    -0.457 OA
BRANCH  17  18
ATOM     18  C   UNL     1      -0.688  -2.028  -3.801  0.00  0.00    +0.259 C 
BRANCH  18  19
ATOM     19  C   UNL     1      -2.076  -1.463  -3.640  0.00  0.00    +0.006 C 
ATOM     20  C   UNL     1      -2.519  -0.563  -4.482  0.00  0.00    +0.007 C 
ENDBRANCH  18  19
ENDBRANCH  17  18
ENDBRANCH  15  17
ENDBRANCH   4  15
BRANCH   2  21
ATOM     21  C   UNL     1       1.315  -2.607   2.473  0.00  0.00    +0.098 C 
ATOM     22  N   UNL     1       0.794  -2.577   3.483  0.00  0.00    -0.191 NA
ENDBRANCH   2  21
BRANCH   1  23
ATOM     23  S   UNL     1       4.052  -3.703   2.572  0.00  0.00    -0.100 S 
BRANCH  23  24
ATOM     24  C   UNL     1       5.637  -4.215   1.864  0.00  0.00    +0.171 C 
BRANCH  24  26
ATOM     25  N   UNL     1       7.763  -5.195   2.662  0.00  0.00    -0.285 N 
ATOM     26  C   UNL     1       6.525  -4.752   2.957  0.00  0.00    +0.227 C 
ATOM     27  O   UNL     1       6.125  -4.785   4.101  0.00  0.00    -0.275 OA
ATOM     28  H   UNL     1       8.093  -5.250   1.614  0.00  0.00    +0.155 HD
BRANCH  25  31
ATOM     29  C   UNL     1       9.835  -7.044   2.041  0.00  0.00    +0.047 C 
ATOM     30  C   UNL     1       9.655  -6.486   3.429  0.00  0.00    -0.011 A 
ATOM     31  C   UNL     1       8.630  -5.586   3.689  0.00  0.00    +0.038 A 
ATOM     32  C   UNL     1       8.469  -5.069   4.968  0.00  0.00    +0.023 A 
ATOM     33  C   UNL     1       9.322  -5.461   5.981  0.00  0.00    +0.003 A 
ATOM     34  C   UNL     1      10.342  -6.358   5.721  0.00  0.00    +0.020 A 
ATOM     35  C   UNL     1      10.508  -6.870   4.446  0.00  0.00    +0.046 A 
ATOM     36 CL   UNL     1      11.790  -7.995   4.124  0.00  0.00    -0.083 Cl
ENDBRANCH  25  31
ENDBRANCH  24  26
ENDBRANCH  23  24
ENDBRANCH   1  23
TORSDOF 10
