REMARK  Name = ZINC36580894
REMARK  22 active torsions:
REMARK  status: ('A' for Active; 'I' for Inactive)
REMARK    1  A    between atoms: C_1  and  C_2
REMARK    2  A    between atoms: C_2  and  C_3
REMARK    3  A    between atoms: C_2  and  C_4
REMARK    4  A    between atoms: C_2  and  C_5
REMARK    5  A    between atoms: C_5  and  C_6
REMARK    6  A    between atoms: C_6  and  C_7
REMARK    7  A    between atoms: C_6  and  C_8
REMARK    8  A    between atoms: C_6  and  N_9
REMARK    9  A    between atoms: C_10  and  C_12
REMARK   10  A    between atoms: C_12  and  C_14
REMARK   11  A    between atoms: C_12  and  N_23
REMARK   12  A    between atoms: C_15  and  O_22
REMARK   13  A    between atoms: C_17  and  O_21
REMARK   14  A    between atoms: C_19  and  O_20
REMARK   15  A    between atoms: N_23  and  C_36
REMARK   16  A    between atoms: C_24  and  C_26
REMARK   17  A    between atoms: C_26  and  C_28
REMARK   18  A    between atoms: C_26  and  O_34
REMARK   19  A    between atoms: O_34  and  C_35
REMARK   20  A    between atoms: C_36  and  C_37
REMARK   21  A    between atoms: C_36  and  C_38
REMARK   22  A    between atoms: C_36  and  C_39
REMARK                            x       y       z     vdW  Elec       q    Type
REMARK                         _______ _______ _______ _____ _____    ______ ____
ROOT
ATOM      1  C   UNL     1       4.622   1.286  -4.008  0.00  0.00    +0.200 C 
ENDROOT
BRANCH   1   2
ATOM      2  C   UNL     1       4.204   0.023  -4.715  0.00  0.00    +0.065 A 
ATOM      3  C   UNL     1       4.660  -1.207  -4.266  0.00  0.00    +0.129 A 
ATOM      4  C   UNL     1       4.275  -2.369  -4.917  0.00  0.00    +0.091 A 
ATOM      5  C   UNL     1       3.434  -2.302  -6.017  0.00  0.00    +0.124 A 
ATOM      6  C   UNL     1       2.978  -1.072  -6.467  0.00  0.00    +0.091 A 
ATOM      7  C   UNL     1       3.359   0.090  -5.813  0.00  0.00    +0.129 A 
BRANCH   7   8
ATOM      8  O   UNL     1       2.908   1.295  -6.250  0.00  0.00    -0.506 OA
ATOM      9  H   UNL     1       3.477   1.712  -6.912  0.00  0.00    +0.292 HD
ENDBRANCH   7   8
BRANCH   5  10
ATOM     10  O   UNL     1       3.058  -3.441  -6.656  0.00  0.00    -0.507 OA
ATOM     11  H   UNL     1       2.247  -3.837  -6.308  0.00  0.00    +0.292 HD
ENDBRANCH   5  10
BRANCH   3  12
ATOM     12  O   UNL     1       5.484  -1.273  -3.187  0.00  0.00    -0.506 OA
ATOM     13  H   UNL     1       5.025  -1.434  -2.351  0.00  0.00    +0.292 HD
ENDBRANCH   3  12
ENDBRANCH   1   2
BRANCH   1  15
ATOM     14  N   UNL     1       3.484   0.931  -1.841  0.00  0.00    -0.308 N 
ATOM     15  C   UNL     1       4.642   1.046  -2.521  0.00  0.00    +0.239 C 
ATOM     16  O   UNL     1       5.700   0.956  -1.935  0.00  0.00    -0.273 OA
ATOM     17  H   UNL     1       2.638   1.002  -2.309  0.00  0.00    +0.149 HD
BRANCH  14  18
ATOM     18  C   UNL     1       3.504   0.697  -0.395  0.00  0.00    +0.030 C 
ATOM     19  C   UNL     1       4.138   1.899   0.308  0.00  0.00    +0.031 C 
ATOM     20  C   UNL     1       4.321  -0.560  -0.092  0.00  0.00    +0.031 C 
BRANCH  18  21
ATOM     21  C   UNL     1       2.072   0.508   0.111  0.00  0.00    +0.031 C 
BRANCH  21  23
ATOM     22  C   UNL     1       0.560   1.005  -1.815  0.00  0.00    +0.010 C 
ATOM     23  C   UNL     1       1.163   1.562  -0.524  0.00  0.00    -0.036 C 
ATOM     24  C   UNL     1       1.982   2.815  -0.843  0.00  0.00    +0.010 C 
ATOM     25  C   UNL     1       0.040   1.921   0.451  0.00  0.00    +0.010 C 
ENDBRANCH  21  23
ENDBRANCH  18  21
ENDBRANCH  14  18
ENDBRANCH   1  15
BRANCH   1  26
ATOM     26  N   UNL     1       5.960   1.678  -4.458  0.00  0.00    -0.278 N 
ATOM     27  C   UNL     1       6.686   0.840  -5.224  0.00  0.00    +0.250 C 
ATOM     28  O   UNL     1       6.301  -0.295  -5.414  0.00  0.00    -0.272 OA
BRANCH  26  29
ATOM     29  C   UNL     1       6.510   2.981  -4.074  0.00  0.00    +0.030 C 
ATOM     30  C   UNL     1       5.940   3.394  -2.716  0.00  0.00    +0.031 C 
ATOM     31  C   UNL     1       8.034   2.884  -3.980  0.00  0.00    +0.031 C 
ATOM     32  C   UNL     1       6.129   4.025  -5.126  0.00  0.00    +0.031 C 
ENDBRANCH  26  29
BRANCH  27  33
ATOM     33  C   UNL     1       7.975   1.312  -5.846  0.00  0.00    +0.233 C 
BRANCH  33  34
ATOM     34  C   UNL     1       7.669   2.248  -6.987  0.00  0.00    -0.010 A 
ATOM     35  C   UNL     1       7.322   1.739  -8.224  0.00  0.00    +0.006 A 
ATOM     36  C   UNL     1       7.042   2.597  -9.271  0.00  0.00    +0.000 A 
ATOM     37  C   UNL     1       7.107   3.965  -9.080  0.00  0.00    +0.000 A 
ATOM     38  C   UNL     1       7.453   4.474  -7.842  0.00  0.00    +0.000 A 
ATOM     39  C   UNL     1       7.729   3.615  -6.794  0.00  0.00    +0.006 A 
ENDBRANCH  33  34
BRANCH  33  40
ATOM     40  O   UNL     1       8.708   0.187  -6.335  0.00  0.00    -0.366 OA
ATOM     41  C   UNL     1       9.604  -0.383  -5.380  0.00  0.00    +0.195 C 
ENDBRANCH  33  40
ENDBRANCH  27  33
ENDBRANCH   1  26
TORSDOF 13
