REMARK  Name = ZINC00649401
REMARK  10 active torsions:
REMARK  status: ('A' for Active; 'I' for Inactive)
REMARK    1  A    between atoms: C_1  and  C_2
REMARK    2  A    between atoms: C_3  and  C_31
REMARK    3  A    between atoms: C_4  and  C_14
REMARK    4  A    between atoms: C_17  and  O_29
REMARK    5  A    between atoms: C_18  and  C_20
REMARK    6  A    between atoms: C_20  and  O_21
REMARK    7  A    between atoms: O_21  and  C_22
REMARK    8  A    between atoms: O_29  and  C_30
REMARK    9  A    between atoms: C_31  and  O_33
REMARK   10  A    between atoms: O_33  and  C_34
REMARK                            x       y       z     vdW  Elec       q    Type
REMARK                         _______ _______ _______ _____ _____    ______ ____
ROOT
ATOM      1  C   UNL     1      -6.556  -3.776   0.995  0.00  0.00    +0.061 C 
ATOM      2  C   UNL     1      -6.512  -2.274   0.888  0.00  0.00    +0.016 C 
ATOM      3  C   UNL     1      -6.106  -1.542   1.938  0.00  0.00    +0.065 C 
ATOM      4  C   UNL     1      -6.042  -0.044   1.866  0.00  0.00    +0.092 C 
ATOM      5  C   UNL     1      -6.863   0.477   0.714  0.00  0.00    +0.024 C 
ATOM      6  C   UNL     1      -7.237  -0.342  -0.292  0.00  0.00    +0.015 C 
ATOM      7  N   UNL     1      -6.886  -1.665  -0.277  0.00  0.00    -0.321 N 
ATOM      8  C   UNL     1      -8.048   0.175  -1.454  0.00  0.00    +0.051 C 
ATOM      9  C   UNL     1      -8.947   1.321  -0.984  0.00  0.00    +0.014 C 
ATOM     10  C   UNL     1      -8.060   2.421  -0.390  0.00  0.00    +0.080 C 
ATOM     11  C   UNL     1      -7.230   1.834   0.719  0.00  0.00    +0.162 C 
ATOM     12  O   UNL     1      -6.868   2.546   1.634  0.00  0.00    -0.292 OA
ATOM     13  H   UNL     1      -6.909  -2.240  -1.215  0.00  0.00    +0.152 HD
ENDROOT
BRANCH   4  14
ATOM     14  C   UNL     1      -4.607   0.382   1.683  0.00  0.00    -0.035 A 
ATOM     15  C   UNL     1      -3.902  -0.029   0.567  0.00  0.00    +0.008 A 
ATOM     16  C   UNL     1      -2.588   0.359   0.398  0.00  0.00    +0.046 A 
ATOM     17  C   UNL     1      -1.975   1.163   1.348  0.00  0.00    +0.126 A 
ATOM     18  C   UNL     1      -2.683   1.569   2.470  0.00  0.00    +0.032 A 
ATOM     19  C   UNL     1      -3.999   1.183   2.632  0.00  0.00    +0.015 A 
BRANCH  17  20
ATOM     20  O   UNL     1      -0.682   1.547   1.184  0.00  0.00    -0.495 OA
ATOM     21  C   UNL     1      -0.013   1.086   0.008  0.00  0.00    +0.277 C 
ENDBRANCH  17  20
BRANCH  18  22
ATOM     22  C   UNL     1      -2.018   2.437   3.507  0.00  0.00    +0.268 C 
BRANCH  22  23
ATOM     23  O   UNL     1      -2.946   2.719   4.557  0.00  0.00    -0.487 OA
BRANCH  23  24
ATOM     24  C   UNL     1      -2.502   3.496   5.580  0.00  0.00    +0.122 A 
ATOM     25  C   UNL     1      -3.350   3.809   6.633  0.00  0.00    +0.046 A 
ATOM     26  C   UNL     1      -2.897   4.598   7.672  0.00  0.00    +0.005 A 
ATOM     27  C   UNL     1      -1.600   5.076   7.665  0.00  0.00    +0.015 A 
ATOM     28  C   UNL     1      -0.752   4.765   6.617  0.00  0.00    +0.021 A 
ATOM     29  C   UNL     1      -1.200   3.972   5.577  0.00  0.00    +0.061 A 
ATOM     30 BR   UNL     1       1.022   5.421   6.610  0.00  0.00    -0.050 Br
ENDBRANCH  23  24
ENDBRANCH  22  23
ENDBRANCH  18  22
ENDBRANCH   4  14
BRANCH   3  31
ATOM     31  C   UNL     1      -5.730  -2.196   3.134  0.00  0.00    +0.337 C 
ATOM     32  O   UNL     1      -5.777  -3.409   3.205  0.00  0.00    -0.245 OA
BRANCH  31  33
ATOM     33  O   UNL     1      -5.319  -1.473   4.197  0.00  0.00    -0.465 OA
ATOM     34  C   UNL     1      -4.955  -2.200   5.373  0.00  0.00    +0.280 C 
ENDBRANCH  31  33
ENDBRANCH   3  31
TORSDOF 7
