REMARK  Name = ZINC59293489
REMARK  9 active torsions:
REMARK  status: ('A' for Active; 'I' for Inactive)
REMARK    1  A    between atoms: C_1  and  C_2
REMARK    2  A    between atoms: C_5  and  C_8
REMARK    3  A    between atoms: C_14  and  C_29
REMARK    4  A    between atoms: C_15  and  C_22
REMARK    5  A    between atoms: C_17  and  C_20
REMARK    6  A    between atoms: C_18  and  N_19
REMARK    7  A    between atoms: C_25  and  C_28
REMARK    8  A    between atoms: N_31  and  C_32
REMARK    9  A    between atoms: C_32  and  C_33
REMARK                            x       y       z     vdW  Elec       q    Type
REMARK                         _______ _______ _______ _____ _____    ______ ____
ROOT
ATOM      1  C   UNL     1       0.790  -4.216  -0.019  0.00  0.00    +0.028 C 
ATOM      2  C   UNL     1       0.716  -4.907   1.147  0.00  0.00    +0.079 A 
ATOM      3  C   UNL     1       0.680  -6.357   1.370  0.00  0.00    +0.271 A 
ATOM      4  O   UNL     1       0.717  -7.133   0.434  0.00  0.00    -0.266 OA
ATOM      5  N   UNL     1       0.605  -6.809   2.638  0.00  0.00    -0.257 N 
ATOM      6  C   UNL     1       0.567  -5.872   3.651  0.00  0.00    +0.099 A 
ATOM      7  C   UNL     1       0.492  -6.176   4.973  0.00  0.00    +0.057 C 
ATOM      8  C   UNL     1       0.445  -7.638   5.374  0.00  0.00    +0.100 C 
ATOM      9  C   UNL     1       0.489  -8.634   4.233  0.00  0.00    +0.079 C 
ATOM     10  C   UNL     1       0.564  -8.170   2.966  0.00  0.00    +0.118 C 
ATOM     11  S   UNL     1       0.644  -4.297   2.823  0.00  0.00    -0.065 S 
ENDROOT
BRANCH   1  16
ATOM     12  C   UNL     1       1.551   1.480   0.059  0.00  0.00    +0.044 C 
ATOM     13  C   UNL     1       1.351  -0.014   0.038  0.00  0.00    -0.050 A 
ATOM     14  C   UNL     1       1.457  -0.738   1.213  0.00  0.00    +0.004 A 
ATOM     15  C   UNL     1       1.276  -2.105   1.203  0.00  0.00    +0.008 A 
ATOM     16  C   UNL     1       0.984  -2.759   0.001  0.00  0.00    -0.024 A 
ATOM     17  C   UNL     1       0.880  -2.019  -1.182  0.00  0.00    +0.008 A 
ATOM     18  C   UNL     1       1.058  -0.652  -1.154  0.00  0.00    +0.004 A 
ENDBRANCH   1  16
BRANCH   8  19
ATOM     19  C   UNL     1       1.616  -7.915   6.282  0.00  0.00    -0.035 A 
ATOM     20  C   UNL     1       2.906  -7.710   5.829  0.00  0.00    +0.005 A 
ATOM     21  C   UNL     1       3.979  -7.964   6.662  0.00  0.00    +0.003 A 
ATOM     22  C   UNL     1       3.763  -8.423   7.948  0.00  0.00    -0.050 A 
ATOM     23  C   UNL     1       2.473  -8.628   8.401  0.00  0.00    +0.003 A 
ATOM     24  C   UNL     1       1.399  -8.369   7.569  0.00  0.00    +0.005 A 
ATOM     25  C   UNL     1       4.933  -8.702   8.855  0.00  0.00    +0.044 C 
ENDBRANCH   8  19
BRANCH   7  26
ATOM     26  C   UNL     1       0.458  -5.162   5.944  0.00  0.00    +0.244 C 
ATOM     27  O   UNL     1       0.496  -3.992   5.605  0.00  0.00    -0.270 OA
ATOM     28  N   UNL     1       0.383  -5.483   7.251  0.00  0.00    -0.307 N 
ATOM     29  H   UNL     1       0.352  -6.414   7.521  0.00  0.00    +0.149 HD
BRANCH  28  30
ATOM     30  C   UNL     1       0.348  -4.425   8.264  0.00  0.00    +0.139 C 
BRANCH  30  31
ATOM     31  C   UNL     1       0.264  -5.045   9.635  0.00  0.00    -0.030 A 
ATOM     32  C   UNL     1      -0.970  -5.314  10.198  0.00  0.00    +0.005 A 
ATOM     33  C   UNL     1      -1.046  -5.882  11.456  0.00  0.00    +0.000 A 
ATOM     34  C   UNL     1       0.111  -6.183  12.150  0.00  0.00    +0.000 A 
ATOM     35  C   UNL     1       1.344  -5.915  11.587  0.00  0.00    +0.000 A 
ATOM     36  C   UNL     1       1.421  -5.350  10.327  0.00  0.00    +0.005 A 
ENDBRANCH  30  31
ENDBRANCH  28  30
ENDBRANCH   7  26
BRANCH  10  37
ATOM     37  N   UNL     1       0.603  -9.084   1.942  0.00  0.00    -0.343 N 
ATOM     38  H   UNL     1       1.026  -8.853   1.101  0.00  0.00    +0.144 HD
ATOM     39  H   UNL     1       0.206  -9.962   2.060  0.00  0.00    +0.144 HD
ENDBRANCH  10  37
BRANCH   9  40
ATOM     40  C   UNL     1       0.451 -10.041   4.492  0.00  0.00    +0.099 C 
ATOM     41  N   UNL     1       0.421 -11.158   4.698  0.00  0.00    -0.191 NA
ENDBRANCH   9  40
TORSDOF 7
