REMARK  Name = ZINC16951553
REMARK  6 active torsions:
REMARK  status: ('A' for Active; 'I' for Inactive)
REMARK    1  A    between atoms: C_8  and  N_15
REMARK    2  A    between atoms: C_9  and  O_14
REMARK    3  A    between atoms: C_10  and  C_11
REMARK    4  A    between atoms: N_16  and  C_17
REMARK    5  A    between atoms: C_20  and  S_23
REMARK    6  A    between atoms: S_23  and  N_26
REMARK                            x       y       z     vdW  Elec       q    Type
REMARK                         _______ _______ _______ _____ _____    ______ ____
ROOT
ATOM      1  N   UNL     1       2.521  -4.104   0.173  0.00  0.00    -0.146 NA
ATOM      2  N   UNL     1       1.414  -4.766   0.181  0.00  0.00    -0.149 NA
ENDROOT
BRANCH   1  10
ATOM      3  C   UNL     1      -0.012   1.347  -0.317  0.00  0.00    +0.001 A 
ATOM      4  C   UNL     1       1.172   2.079  -0.326  0.00  0.00    +0.001 A 
ATOM      5  C   UNL     1       2.382   1.455  -0.237  0.00  0.00    +0.009 A 
ATOM      6  C   UNL     1       2.438   0.061  -0.134  0.00  0.00    -0.000 A 
ATOM      7  C   UNL     1       1.235  -0.687  -0.124  0.00  0.00    -0.015 A 
ATOM      8  C   UNL     1       0.005  -0.012  -0.218  0.00  0.00    +0.008 A 
ATOM      9  C   UNL     1       1.286  -2.086  -0.021  0.00  0.00    +0.041 A 
ATOM     10  C   UNL     1       2.501  -2.743   0.072  0.00  0.00    +0.129 A 
ATOM     11  C   UNL     1       3.719  -2.032   0.065  0.00  0.00    +0.159 A 
ATOM     12  C   UNL     1       3.719  -0.641  -0.036  0.00  0.00    +0.114 A 
BRANCH  12  13
ATOM     13  C   UNL     1       4.980   0.106  -0.045  0.00  0.00    +0.391 C 
ATOM     14  O   UNL     1       5.470   0.492   1.008  0.00  0.00    -0.240 OA
ATOM     15  O   UNL     1       5.544   0.343  -1.106  0.00  0.00    -0.240 OA
ENDBRANCH  12  13
BRANCH  11  16
ATOM     16  O   UNL     1       4.891  -2.702   0.158  0.00  0.00    -0.504 OA
ATOM     17  H   UNL     1       5.265  -2.961  -0.696  0.00  0.00    +0.292 HD
ENDBRANCH  11  16
ENDBRANCH   1  10
BRANCH   2  18
ATOM     18  C   UNL     1       1.433  -6.129   0.281  0.00  0.00    +0.086 A 
ATOM     19  C   UNL     1       2.651  -6.809   0.382  0.00  0.00    +0.031 A 
ATOM     20  C   UNL     1       2.663  -8.184   0.483  0.00  0.00    +0.031 A 
ATOM     21  C   UNL     1       1.473  -8.891   0.486  0.00  0.00    +0.113 A 
ATOM     22  C   UNL     1       0.264  -8.226   0.387  0.00  0.00    +0.031 A 
ATOM     23  C   UNL     1       0.236  -6.850   0.290  0.00  0.00    +0.031 A 
BRANCH  21  24
ATOM     24  S   UNL     1       1.499 -10.648   0.616  0.00  0.00    +0.101 S 
ATOM     25  O   UNL     1       0.283 -11.115   0.047  0.00  0.00    -0.146 OA
ATOM     26  O   UNL     1       2.771 -11.072   0.146  0.00  0.00    -0.146 OA
BRANCH  24  27
ATOM     27  N   UNL     1       1.441 -11.021   2.228  0.00  0.00    -0.111 NA
ATOM     28  C   UNL     1       1.448 -12.280   2.614  0.00  0.00    +0.153 A 
ATOM     29  C   UNL     1       1.393 -12.604   3.990  0.00  0.00    +0.048 A 
ATOM     30  C   UNL     1       1.400 -13.909   4.367  0.00  0.00    +0.005 A 
ATOM     31  C   UNL     1       1.463 -14.915   3.387  0.00  0.00    +0.018 A 
ATOM     32  C   UNL     1       1.515 -14.592   2.078  0.00  0.00    +0.084 A 
ATOM     33  N   UNL     1       1.502 -13.288   1.681  0.00  0.00    -0.345 N 
ATOM     34  H   UNL     1       1.536 -13.071   0.737  0.00  0.00    +0.167 HD
ENDBRANCH  24  27
ENDBRANCH  21  24
ENDBRANCH   2  18
TORSDOF 6
