REMARK  Name = ZINC01211159
REMARK  5 active torsions:
REMARK  status: ('A' for Active; 'I' for Inactive)
REMARK    1  A    between atoms: C_4  and  N_7
REMARK    2  A    between atoms: C_8  and  C_10
REMARK    3  A    between atoms: C_10  and  N_11
REMARK    4  A    between atoms: C_13  and  C_20
REMARK    5  A    between atoms: N_27  and  C_30
REMARK                            x       y       z     vdW  Elec       q    Type
REMARK                         _______ _______ _______ _____ _____    ______ ____
ROOT
ATOM      1  N   UNL     1      -4.966   2.691   1.057  0.00  0.00    -0.337 N 
ATOM      2  C   UNL     1      -5.738   3.060   2.095  0.00  0.00    +0.095 A 
ATOM      3  C   UNL     1      -6.955   3.525   1.625  0.00  0.00    +0.001 A 
ATOM      4  C   UNL     1      -6.893   3.418   0.153  0.00  0.00    +0.007 A 
ATOM      5  C   UNL     1      -5.623   2.896  -0.141  0.00  0.00    +0.050 A 
ATOM      6  C   UNL     1      -5.264   2.685  -1.467  0.00  0.00    +0.026 A 
ATOM      7  C   UNL     1      -6.150   2.992  -2.478  0.00  0.00    +0.002 A 
ATOM      8  C   UNL     1      -7.402   3.512  -2.186  0.00  0.00    +0.001 A 
ATOM      9  C   UNL     1      -7.779   3.720  -0.876  0.00  0.00    +0.010 A 
ENDROOT
BRANCH   3  10
ATOM     10  C   UNL     1      -8.034   4.005   2.395  0.00  0.00    +0.028 C 
ATOM     11  C   UNL     1      -8.410   3.338   3.553  0.00  0.00    +0.100 C 
ATOM     12  C   UNL     1      -9.382   3.921   4.494  0.00  0.00    +0.257 C 
ATOM     13  O   UNL     1      -9.885   5.008   4.280  0.00  0.00    -0.270 OA
ATOM     14  N   UNL     1      -9.705   3.214   5.597  0.00  0.00    -0.235 N 
ATOM     15  C   UNL     1      -9.155   2.018   5.848  0.00  0.00    +0.320 C 
ATOM     16  O   UNL     1      -9.485   1.434   6.862  0.00  0.00    -0.251 OA
ATOM     17  N   UNL     1      -8.261   1.431   5.040  0.00  0.00    -0.190 N 
ATOM     18  C   UNL     1      -7.849   2.020   3.898  0.00  0.00    +0.263 C 
ATOM     19  O   UNL     1      -7.037   1.477   3.173  0.00  0.00    -0.269 OA
ATOM     20  H   UNL     1     -10.347   3.582   6.225  0.00  0.00    +0.159 HD
BRANCH  17  21
ATOM     21  C   UNL     1      -7.741   0.177   5.389  0.00  0.00    +0.048 A 
ATOM     22  C   UNL     1      -6.926   0.049   6.506  0.00  0.00    +0.024 A 
ATOM     23  C   UNL     1      -6.415  -1.187   6.849  0.00  0.00    +0.005 A 
ATOM     24  C   UNL     1      -6.714  -2.298   6.082  0.00  0.00    +0.038 A 
ATOM     25  C   UNL     1      -7.526  -2.175   4.968  0.00  0.00    +0.125 A 
ATOM     26  C   UNL     1      -8.045  -0.939   4.623  0.00  0.00    +0.062 A 
ATOM     27  F   UNL     1      -7.817  -3.262   4.220  0.00  0.00    -0.205 F 
ENDBRANCH  17  21
ENDBRANCH   3  10
BRANCH   1  28
ATOM     28  C   UNL     1      -3.610   2.150   1.180  0.00  0.00    +0.217 C 
BRANCH  28  30
ATOM     29  N   UNL     1      -1.289   3.001   1.103  0.00  0.00    -0.284 N 
ATOM     30  C   UNL     1      -2.609   3.265   1.026  0.00  0.00    +0.237 C 
ATOM     31  O   UNL     1      -2.990   4.400   0.833  0.00  0.00    -0.274 OA
ATOM     32  H   UNL     1      -0.982   2.084   1.178  0.00  0.00    +0.155 HD
BRANCH  29  36
ATOM     33  C   UNL     1       1.470   6.121   1.025  0.00  0.00    +0.000 A 
ATOM     34  C   UNL     1       0.244   6.300   1.639  0.00  0.00    +0.002 A 
ATOM     35  C   UNL     1      -0.674   5.269   1.664  0.00  0.00    +0.023 A 
ATOM     36  C   UNL     1      -0.363   4.050   1.075  0.00  0.00    +0.033 A 
ATOM     37  C   UNL     1       0.867   3.875   0.455  0.00  0.00    +0.023 A 
ATOM     38  C   UNL     1       1.781   4.911   0.433  0.00  0.00    +0.002 A 
ENDBRANCH  29  36
ENDBRANCH  28  30
ENDBRANCH   1  28
TORSDOF 5
