REMARK  Name = ZINC33703304
REMARK  13 active torsions:
REMARK  status: ('A' for Active; 'I' for Inactive)
REMARK    1  A    between atoms: C_1  and  C_2
REMARK    2  A    between atoms: C_2  and  C_3
REMARK    3  A    between atoms: C_4  and  C_21
REMARK    4  A    between atoms: C_5  and  C_18
REMARK    5  A    between atoms: C_6  and  C_17
REMARK    6  A    between atoms: N_7  and  C_8
REMARK    7  A    between atoms: C_8  and  C_9
REMARK    8  A    between atoms: C_9  and  C_10
REMARK    9  A    between atoms: C_13  and  O_16
REMARK   10  A    between atoms: C_24  and  C_27
REMARK   11  A    between atoms: C_27  and  C_28
REMARK   12  A    between atoms: C_27  and  C_29
REMARK   13  A    between atoms: C_27  and  C_30
REMARK                            x       y       z     vdW  Elec       q    Type
REMARK                         _______ _______ _______ _____ _____    ______ ____
ROOT
ATOM      1  C   UNL     1      -3.182   2.986  -0.659  0.00  0.00    +0.027 A 
ATOM      2  C   UNL     1      -2.075   2.375  -1.153  0.00  0.00    +0.015 A 
ATOM      3  C   UNL     1      -1.298   1.931   0.019  0.00  0.00    +0.065 A 
ATOM      4  C   UNL     1      -2.010   2.326   1.116  0.00  0.00    +0.029 A 
ATOM      5  N   UNL     1      -3.128   2.953   0.702  0.00  0.00    -0.346 N 
ATOM      6  C   UNL     1      -1.611   2.098   2.551  0.00  0.00    +0.064 C 
ENDROOT
BRANCH   2   7
ATOM      7  C   UNL     1      -1.720   2.189  -2.580  0.00  0.00    -0.015 A 
ATOM      8  C   UNL     1      -1.452   3.296  -3.385  0.00  0.00    +0.009 A 
ATOM      9  C   UNL     1      -1.118   3.116  -4.711  0.00  0.00    +0.005 A 
ATOM     10  C   UNL     1      -1.058   1.842  -5.246  0.00  0.00    -0.042 A 
ATOM     11  C   UNL     1      -1.328   0.741  -4.455  0.00  0.00    +0.005 A 
ATOM     12  C   UNL     1      -1.659   0.907  -3.125  0.00  0.00    +0.009 A 
BRANCH  10  13
ATOM     13  C   UNL     1      -0.698   1.653  -6.697  0.00  0.00    -0.013 C 
ATOM     14  C   UNL     1      -1.847   0.949  -7.421  0.00  0.00    +0.015 C 
ATOM     15  C   UNL     1      -0.449   3.018  -7.343  0.00  0.00    +0.015 C 
ATOM     16  C   UNL     1       0.569   0.801  -6.801  0.00  0.00    +0.015 C 
ENDBRANCH  10  13
ENDBRANCH   2   7
BRANCH   3  17
ATOM     17  C   UNL     1      -0.014   1.212   0.009  0.00  0.00    +0.244 C 
ATOM     18  O   UNL     1       0.002  -0.004   0.002  0.00  0.00    -0.270 OA
ATOM     19  N   UNL     1       1.143   1.902   0.001  0.00  0.00    -0.325 N 
ATOM     20  H   UNL     1       2.103   1.365  -0.006  0.00  0.00    +0.145 HD
ATOM     21  H   UNL     1       1.129   3.002   0.003  0.00  0.00    +0.145 HD
ENDBRANCH   3  17
BRANCH   1  23
ATOM     22  C   UNL     1      -3.953   5.073  -1.755  0.00  0.00    +0.010 C 
ATOM     23  C   UNL     1      -4.284   3.605  -1.480  0.00  0.00    +0.050 C 
ENDBRANCH   1  23
BRANCH   5  24
ATOM     24  C   UNL     1      -4.146   3.519   1.591  0.00  0.00    +0.126 C 
BRANCH  24  25
ATOM     25  C   UNL     1      -3.796   4.976   1.904  0.00  0.00    +0.056 C 
BRANCH  25  26
ATOM     26  C   UNL     1      -4.842   5.558   2.819  0.00  0.00    -0.045 A 
ATOM     27  C   UNL     1      -5.952   6.187   2.286  0.00  0.00    +0.007 A 
ATOM     28  C   UNL     1      -6.915   6.717   3.122  0.00  0.00    +0.045 A 
ATOM     29  C   UNL     1      -6.763   6.627   4.498  0.00  0.00    +0.117 A 
ATOM     30  C   UNL     1      -5.645   6.001   5.030  0.00  0.00    +0.045 A 
ATOM     31  C   UNL     1      -4.688   5.468   4.190  0.00  0.00    +0.007 A 
BRANCH  29  32
ATOM     32  O   UNL     1      -7.707   7.152   5.323  0.00  0.00    -0.507 OA
ATOM     33  H   UNL     1      -7.585   7.081   6.414  0.00  0.00    +0.292 HD
ENDBRANCH  29  32
ENDBRANCH  25  26
ENDBRANCH  24  25
ENDBRANCH   5  24
TORSDOF 8
