REMARK  Name = ZINC32985200
REMARK  7 active torsions:
REMARK  status: ('A' for Active; 'I' for Inactive)
REMARK    1  A    between atoms: C_1  and  C_2
REMARK    2  A    between atoms: C_5  and  C_37
REMARK    3  A    between atoms: C_6  and  S_8
REMARK    4  A    between atoms: S_8  and  N_11
REMARK    5  A    between atoms: N_11  and  C_12
REMARK    6  A    between atoms: C_18  and  C_34
REMARK    7  A    between atoms: C_20  and  N_22
REMARK                            x       y       z     vdW  Elec       q    Type
REMARK                         _______ _______ _______ _____ _____    ______ ____
ROOT
ATOM      1  C   UNL     1       1.485  13.890  -0.118  0.00  0.00    +0.049 A 
ATOM      2  C   UNL     1       2.165  12.944   0.658  0.00  0.00    +0.026 A 
ATOM      3  C   UNL     1       1.982  11.612   0.457  0.00  0.00    +0.028 A 
ATOM      4  C   UNL     1       1.097  11.167  -0.542  0.00  0.00    +0.049 A 
ATOM      5  C   UNL     1       0.407  12.122  -1.329  0.00  0.00    +0.014 A 
ATOM      6  C   UNL     1       0.610  13.487  -1.107  0.00  0.00    +0.035 A 
ATOM      7  C   UNL     1      -0.511  11.646  -2.365  0.00  0.00    +0.075 A 
ATOM      8  C   UNL     1      -0.645  10.272  -2.516  0.00  0.00    +0.057 A 
ATOM      9  C   UNL     1       0.082   9.415  -1.679  0.00  0.00    +0.100 A 
ATOM     10  N   UNL     1       0.902   9.863  -0.755  0.00  0.00    -0.343 N 
ATOM     11  H   UNL     1       1.437   9.120  -0.145  0.00  0.00    +0.167 HD
ENDROOT
BRANCH   9  12
ATOM     12  N   UNL     1      -0.065   8.043  -1.837  0.00  0.00    -0.314 N 
ATOM     13  C   UNL     1       0.776   7.311  -0.880  0.00  0.00    +0.125 C 
ATOM     14  C   UNL     1       0.647   5.808  -1.138  0.00  0.00    +0.125 C 
ATOM     15  N   UNL     1      -0.762   5.410  -1.008  0.00  0.00    -0.314 N 
ATOM     16  C   UNL     1      -1.603   6.143  -1.965  0.00  0.00    +0.125 C 
ATOM     17  C   UNL     1      -1.474   7.646  -1.707  0.00  0.00    +0.125 C 
ATOM     18  C   UNL     1      -0.909   4.037  -1.166  0.00  0.00    +0.099 A 
ATOM     19  C   UNL     1      -2.174   3.464  -1.076  0.00  0.00    +0.042 A 
ATOM     20  C   UNL     1      -2.306   2.098  -1.240  0.00  0.00    +0.005 A 
ATOM     21  C   UNL     1      -1.163   1.345  -1.478  0.00  0.00    +0.018 A 
ATOM     22  C   UNL     1       0.060   1.979  -1.554  0.00  0.00    +0.084 A 
ATOM     23  N   UNL     1       0.156   3.286  -1.399  0.00  0.00    -0.350 N 
ATOM     24  H   UNL     1       1.151   3.749  -1.468  0.00  0.00    +0.166 HD
ENDBRANCH   9  12
BRANCH   7  25
ATOM     25  C   UNL     1      -1.261  12.589  -3.220  0.00  0.00    +0.387 C 
ATOM     26  O   UNL     1      -1.204  13.783  -3.002  0.00  0.00    -0.241 OA
ATOM     27  O   UNL     1      -2.007  12.125  -4.242  0.00  0.00    -0.241 OA
ENDBRANCH   7  25
BRANCH   1  28
ATOM     28  N   UNL     1       1.692  15.251   0.110  0.00  0.00    -0.216 N 
ATOM     29  H   UNL     1       1.862  15.932  -0.738  0.00  0.00    +0.174 HD
BRANCH  28  30
ATOM     30  S   UNL     1       1.683  15.842   1.657  0.00  0.00    +0.073 S 
ATOM     31  O   UNL     1       2.604  15.055   2.398  0.00  0.00    -0.150 OA
ATOM     32  O   UNL     1       1.800  17.255   1.553  0.00  0.00    -0.150 OA
BRANCH  30  38
ATOM     33  C   UNL     1      -1.440  13.527   5.150  0.00  0.00    +0.044 C 
ATOM     34  C   UNL     1      -1.297  14.432   3.954  0.00  0.00    -0.049 A 
ATOM     35  C   UNL     1      -2.417  15.008   3.384  0.00  0.00    +0.004 A 
ATOM     36  C   UNL     1      -2.285  15.838   2.287  0.00  0.00    +0.005 A 
ATOM     37  C   UNL     1      -1.033  16.097   1.763  0.00  0.00    -0.024 A 
ATOM     38  C   UNL     1       0.087  15.517   2.329  0.00  0.00    +0.112 A 
ATOM     39  C   UNL     1      -0.045  14.687   3.426  0.00  0.00    +0.032 A 
ATOM     40  C   UNL     1      -0.888  17.008   0.571  0.00  0.00    +0.046 C 
ENDBRANCH  30  38
ENDBRANCH  28  30
ENDBRANCH   1  28
TORSDOF 5
