REMARK  Name = ZINC01429635
REMARK  9 active torsions:
REMARK  status: ('A' for Active; 'I' for Inactive)
REMARK    1  A    between atoms: C_1  and  C_2
REMARK    2  A    between atoms: C_2  and  O_3
REMARK    3  A    between atoms: O_3  and  C_4
REMARK    4  A    between atoms: C_4  and  C_6
REMARK    5  A    between atoms: C_7  and  C_25
REMARK    6  A    between atoms: C_12  and  N_24
REMARK    7  A    between atoms: C_13  and  C_22
REMARK    8  A    between atoms: C_14  and  C_16
REMARK    9  A    between atoms: C_17  and  C_21
REMARK                            x       y       z     vdW  Elec       q    Type
REMARK                         _______ _______ _______ _____ _____    ______ ____
ROOT
ATOM      1  C   UNL     1      -1.296   1.929   0.019  0.00  0.00    +0.111 A 
ATOM      2  C   UNL     1      -1.923   2.289  -1.158  0.00  0.00    +0.005 A 
ATOM      3  S   UNL     1      -3.364   3.087  -0.616  0.00  0.00    -0.093 S 
ATOM      4  C   UNL     1      -3.125   2.949   1.129  0.00  0.00    +0.046 A 
ATOM      5  C   UNL     1      -1.946   2.288   1.264  0.00  0.00    +0.155 A 
ATOM      6  O   UNL     1      -1.461   2.014   2.522  0.00  0.00    -0.440 OA
ATOM      7  C   UNL     1      -2.292   2.151   3.568  0.00  0.00    +0.199 C 
ATOM      8  C   UNL     1      -3.482   2.794   3.527  0.00  0.00    +0.099 C 
ATOM      9  C   UNL     1      -3.987   3.429   2.252  0.00  0.00    +0.112 C 
ATOM     10  C   UNL     1      -1.466   2.046  -2.573  0.00  0.00    +0.052 C 
ENDROOT
BRANCH   9  11
ATOM     11  C   UNL     1      -3.898   4.929   2.359  0.00  0.00    +0.006 A 
ATOM     12  C   UNL     1      -4.888   5.851   2.276  0.00  0.00    -0.039 A 
ATOM     13  C   UNL     1      -4.571   7.190   2.409  0.00  0.00    +0.011 A 
ATOM     14  C   UNL     1      -3.277   7.542   2.608  0.00  0.00    +0.046 A 
ATOM     15  S   UNL     1      -2.460   5.954   2.620  0.00  0.00    -0.100 S 
ATOM     16  C   UNL     1      -6.315   5.423   2.045  0.00  0.00    +0.044 C 
ENDBRANCH   9  11
BRANCH   7  17
ATOM     17  N   UNL     1      -1.905   1.601   4.765  0.00  0.00    -0.328 N 
ATOM     18  H   UNL     1      -1.058   1.133   4.833  0.00  0.00    +0.145 HD
ATOM     19  H   UNL     1      -2.479   1.680   5.543  0.00  0.00    +0.145 HD
ENDBRANCH   7  17
BRANCH   1  20
ATOM     20  C   UNL     1      -0.014   1.212   0.009  0.00  0.00    +0.344 C 
ATOM     21  O   UNL     1       0.002  -0.004   0.002  0.00  0.00    -0.245 OA
BRANCH  20  22
ATOM     22  O   UNL     1       1.144   1.901   0.001  0.00  0.00    -0.461 OA
BRANCH  22  24
ATOM     23  C   UNL     1       3.573   2.076  -0.021  0.00  0.00    +0.048 C 
ATOM     24  C   UNL     1       2.372   1.127  -0.015  0.00  0.00    +0.229 C 
ENDBRANCH  22  24
ENDBRANCH  20  22
ENDBRANCH   1  20
BRANCH   8  25
ATOM     25  C   UNL     1      -4.277   2.874   4.715  0.00  0.00    +0.101 C 
ATOM     26  N   UNL     1      -4.908   2.938   5.658  0.00  0.00    -0.191 NA
ENDBRANCH   8  25
TORSDOF 6
