REMARK  Name = ZINC08137840
REMARK  6 active torsions:
REMARK  status: ('A' for Active; 'I' for Inactive)
REMARK    1  A    between atoms: C_9  and  C_10
REMARK    2  A    between atoms: C_9  and  C_12
REMARK    3  A    between atoms: C_12  and  C_14
REMARK    4  A    between atoms: C_14  and  O_15
REMARK    5  A    between atoms: O_15  and  C_16
REMARK    6  A    between atoms: C_16  and  C_18
REMARK                            x       y       z     vdW  Elec       q    Type
REMARK                         _______ _______ _______ _____ _____    ______ ____
ROOT
ATOM      1  C   UNL     1      -0.467   1.391  -6.100  0.00  0.00    +0.214 C 
ATOM      2  O   UNL     1      -1.468   2.078  -6.038  0.00  0.00    -0.288 OA
ENDROOT
BRANCH   1  11
ATOM      3  C   UNL     1      -2.113   2.511 -12.695  0.00  0.00    +0.002 A 
ATOM      4  C   UNL     1      -3.072   3.170 -11.943  0.00  0.00    +0.002 A 
ATOM      5  C   UNL     1      -3.019   3.136 -10.565  0.00  0.00    +0.025 A 
ATOM      6  C   UNL     1      -2.002   2.438  -9.928  0.00  0.00    +0.054 A 
ATOM      7  C   UNL     1      -1.035   1.774 -10.687  0.00  0.00    +0.054 A 
ATOM      8  C   UNL     1      -1.097   1.815 -12.073  0.00  0.00    +0.025 A 
ATOM      9  N   UNL     1      -0.156   1.173  -9.793  0.00  0.00    -0.300 N 
ATOM     10  C   UNL     1      -0.570   1.458  -8.531  0.00  0.00    +0.114 C 
ATOM     11  C   UNL     1       0.060   1.027  -7.350  0.00  0.00    +0.133 C 
ATOM     12  N   UNL     1      -1.692   2.222  -8.590  0.00  0.00    -0.300 N 
ATOM     13  H   UNL     1       0.619   0.640 -10.030  0.00  0.00    +0.153 HD
ATOM     14  H   UNL     1      -2.190   2.559  -7.830  0.00  0.00    +0.153 HD
BRANCH  11  15
ATOM     15  C   UNL     1       1.239   0.217  -7.422  0.00  0.00    +0.106 C 
ATOM     16  N   UNL     1       2.174  -0.425  -7.480  0.00  0.00    -0.191 NA
ENDBRANCH  11  15
ENDBRANCH   1  11
BRANCH   1  17
ATOM     17  C   UNL     1       0.208   0.928  -4.834  0.00  0.00    +0.312 C 
BRANCH  17  18
ATOM     18  O   UNL     1      -0.522   1.431  -3.684  0.00  0.00    -0.456 OA
BRANCH  18  19
ATOM     19  C   UNL     1      -0.047   1.107  -2.471  0.00  0.00    +0.314 C 
ATOM     20  O   UNL     1       0.945   0.425  -2.374  0.00  0.00    -0.250 OA
BRANCH  19  21
ATOM     21  C   UNL     1      -0.753   1.593  -1.232  0.00  0.00    +0.070 C 
ATOM     22  C   UNL     1      -0.773   3.123  -1.223  0.00  0.00    +0.021 C 
ATOM     23  C   UNL     1      -1.490   3.616   0.036  0.00  0.00    -0.008 C 
ATOM     24  C   UNL     1      -2.925   3.086   0.047  0.00  0.00    +0.007 C 
ATOM     25  C   UNL     1      -2.904   1.556   0.038  0.00  0.00    -0.008 C 
ATOM     26  C   UNL     1      -2.188   1.063  -1.221  0.00  0.00    +0.021 C 
ATOM     27  C   UNL     1      -2.164   1.050   1.278  0.00  0.00    +0.026 C 
ATOM     28  C   UNL     1      -0.729   1.579   1.267  0.00  0.00    +0.047 C 
ATOM     29  C   UNL     1      -0.750   3.109   1.275  0.00  0.00    +0.026 C 
ATOM     30  C   UNL     1      -0.013   1.086   0.008  0.00  0.00    +0.041 C 
ATOM     31 CL   UNL     1       0.143   0.982   2.728  0.00  0.00    -0.118 Cl
ENDBRANCH  19  21
ENDBRANCH  18  19
ENDBRANCH  17  18
ENDBRANCH   1  17
TORSDOF 6
