REMARK  Name = ZINC02925630
REMARK  9 active torsions:
REMARK  status: ('A' for Active; 'I' for Inactive)
REMARK    1  A    between atoms: C_1  and  O_2
REMARK    2  A    between atoms: O_2  and  C_3
REMARK    3  A    between atoms: C_3  and  C_5
REMARK    4  A    between atoms: C_10  and  N_11
REMARK    5  A    between atoms: C_12  and  C_14
REMARK    6  A    between atoms: C_14  and  S_15
REMARK    7  A    between atoms: S_15  and  C_16
REMARK    8  A    between atoms: N_25  and  N_26
REMARK    9  A    between atoms: C_27  and  C_29
REMARK                            x       y       z     vdW  Elec       q    Type
REMARK                         _______ _______ _______ _____ _____    ______ ____
ROOT
ATOM      1  C   UNL     1       0.225   0.996   2.727  0.00  0.00    +0.190 A 
ATOM      2  N   UNL     1       1.261   0.298   2.346  0.00  0.00    -0.221 NA
ATOM      3  C   UNL     1       2.121  -0.268   3.244  0.00  0.00    +0.086 A 
ATOM      4  C   UNL     1       3.265  -1.038   2.987  0.00  0.00    +0.036 A 
ATOM      5  C   UNL     1       4.002  -1.521   4.010  0.00  0.00    +0.048 A 
ATOM      6  S   UNL     1       3.127  -0.919   5.445  0.00  0.00    -0.090 S 
ATOM      7  C   UNL     1       1.826  -0.057   4.602  0.00  0.00    +0.104 A 
ATOM      8  C   UNL     1       0.719   0.689   5.001  0.00  0.00    +0.286 A 
ATOM      9  O   UNL     1       0.476   0.864   6.183  0.00  0.00    -0.265 OA
ATOM     10  N   UNL     1      -0.077   1.218   4.041  0.00  0.00    -0.199 N 
ENDROOT
BRANCH  10  11
ATOM     11  N   UNL     1      -1.199   1.980   4.391  0.00  0.00    -0.214 N 
ATOM     12  C   UNL     1      -2.305   1.372   4.865  0.00  0.00    +0.262 C 
ATOM     13  O   UNL     1      -2.328   0.163   4.989  0.00  0.00    -0.268 OA
ATOM     14  H   UNL     1      -1.178   3.074   4.279  0.00  0.00    +0.176 HD
BRANCH  12  15
ATOM     15  C   UNL     1      -3.489   2.176   5.235  0.00  0.00    +0.038 A 
ATOM     16  C   UNL     1      -3.463   3.565   5.100  0.00  0.00    +0.013 A 
ATOM     17  C   UNL     1      -4.573   4.309   5.442  0.00  0.00    +0.001 A 
ATOM     18  C   UNL     1      -5.707   3.682   5.929  0.00  0.00    +0.000 A 
ATOM     19  C   UNL     1      -5.737   2.306   6.070  0.00  0.00    +0.001 A 
ATOM     20  C   UNL     1      -4.636   1.550   5.726  0.00  0.00    +0.013 A 
ENDBRANCH  12  15
ENDBRANCH  10  11
BRANCH   1  21
ATOM     21  S   UNL     1      -0.826   1.687   1.493  0.00  0.00    -0.077 S 
BRANCH  21  22
ATOM     22  C   UNL     1       0.018   1.107   0.001  0.00  0.00    +0.173 C 
BRANCH  22  24
ATOM     23  N   UNL     1      -0.276   1.280  -2.449  0.00  0.00    -0.284 N 
ATOM     24  C   UNL     1      -0.724   1.592  -1.217  0.00  0.00    +0.228 C 
ATOM     25  O   UNL     1      -1.726   2.264  -1.089  0.00  0.00    -0.275 OA
ATOM     26  H   UNL     1       0.672   0.733  -2.567  0.00  0.00    +0.155 HD
BRANCH  23  32
ATOM     27  C   UNL     1      -1.053   0.808  -4.695  0.00  0.00    +0.080 A 
ATOM     28  C   UNL     1      -1.795   1.190  -5.816  0.00  0.00    +0.017 A 
ATOM     29  C   UNL     1      -2.480   2.385  -5.812  0.00  0.00    +0.001 A 
ATOM     30  C   UNL     1      -2.438   3.212  -4.701  0.00  0.00    +0.002 A 
ATOM     31  C   UNL     1      -1.713   2.846  -3.584  0.00  0.00    +0.024 A 
ATOM     32  C   UNL     1      -1.012   1.648  -3.572  0.00  0.00    +0.047 A 
BRANCH  27  33
ATOM     33  C   UNL     1      -0.318  -0.469  -4.693  0.00  0.00    +0.341 C 
ATOM     34  O   UNL     1       0.245  -0.844  -3.684  0.00  0.00    -0.245 OA
BRANCH  33  36
ATOM     35  C   UNL     1       0.471  -2.468  -5.735  0.00  0.00    +0.280 C 
ATOM     36  O   UNL     1      -0.270  -1.222  -5.810  0.00  0.00    -0.464 OA
ENDBRANCH  33  36
ENDBRANCH  27  33
ENDBRANCH  23  32
ENDBRANCH  22  24
ENDBRANCH  21  22
ENDBRANCH   1  21
TORSDOF 8
