REMARK  Name = ZINC17295432
REMARK  10 active torsions:
REMARK  status: ('A' for Active; 'I' for Inactive)
REMARK    1  A    between atoms: C_1  and  C_2
REMARK    2  A    between atoms: C_2  and  C_3
REMARK    3  A    between atoms: C_2  and  C_4
REMARK    4  A    between atoms: C_4  and  C_5
REMARK    5  A    between atoms: C_5  and  C_7
REMARK    6  A    between atoms: C_5  and  N_22
REMARK    7  A    between atoms: N_9  and  C_10
REMARK    8  A    between atoms: C_10  and  C_11
REMARK    9  A    between atoms: C_11  and  C_12
REMARK   10  A    between atoms: C_23  and  C_25
REMARK                            x       y       z     vdW  Elec       q    Type
REMARK                         _______ _______ _______ _____ _____    ______ ____
ROOT
ATOM      1  C   UNL     1      -3.605  -0.848   0.198  0.00  0.00    +0.159 C 
ENDROOT
BRANCH   1   2
ATOM      2  C   UNL     1      -3.400  -2.001   1.145  0.00  0.00    +0.233 C 
ATOM      3  O   UNL     1      -2.285  -2.270   1.541  0.00  0.00    -0.274 OA
ATOM      4  N   UNL     1      -4.455  -2.734   1.553  0.00  0.00    -0.313 N 
ATOM      5  H   UNL     1      -5.335  -2.565   1.183  0.00  0.00    +0.149 HD
BRANCH   4   6
ATOM      6  C   UNL     1      -4.272  -3.787   2.555  0.00  0.00    +0.109 C 
BRANCH   6   7
ATOM      7  C   UNL     1      -5.616  -4.461   2.838  0.00  0.00    +0.056 C 
BRANCH   7   8
ATOM      8  C   UNL     1      -5.428  -5.544   3.869  0.00  0.00    -0.021 A 
ATOM      9  C   UNL     1      -5.233  -6.850   3.629  0.00  0.00    +0.087 A 
ATOM     10  N   UNL     1      -5.101  -7.527   4.811  0.00  0.00    -0.360 N 
ATOM     11  H   UNL     1      -4.951  -8.482   4.892  0.00  0.00    +0.165 HD
ATOM     12  C   UNL     1      -5.219  -6.652   5.867  0.00  0.00    +0.047 A 
ATOM     13  C   UNL     1      -5.429  -5.371   5.324  0.00  0.00    +0.003 A 
ATOM     14  C   UNL     1      -5.584  -4.273   6.170  0.00  0.00    +0.010 A 
ATOM     15  C   UNL     1      -5.532  -4.447   7.525  0.00  0.00    +0.001 A 
ATOM     16  C   UNL     1      -5.326  -5.708   8.066  0.00  0.00    +0.002 A 
ATOM     17  C   UNL     1      -5.170  -6.807   7.248  0.00  0.00    +0.026 A 
ENDBRANCH   7   8
ENDBRANCH   6   7
ENDBRANCH   4   6
ENDBRANCH   1   2
BRANCH   1  18
ATOM     18  N   UNL     1      -2.447   0.048   0.260  0.00  0.00    -0.300 N 
ATOM     19  C   UNL     1      -2.596   1.362   0.000  0.00  0.00    +0.246 C 
ATOM     20  O   UNL     1      -3.670   1.789  -0.375  0.00  0.00    -0.270 OA
ATOM     21  H   UNL     1      -1.573  -0.305   0.489  0.00  0.00    +0.150 HD
BRANCH  19  22
ATOM     22  C   UNL     1      -1.454   2.283   0.171  0.00  0.00    +0.055 A 
ATOM     23  C   UNL     1      -0.218   1.795   0.602  0.00  0.00    +0.016 A 
ATOM     24  C   UNL     1       0.846   2.658   0.754  0.00  0.00    +0.021 A 
ATOM     25  C   UNL     1       0.690   4.009   0.486  0.00  0.00    +0.042 A 
ATOM     26  C   UNL     1      -0.533   4.501   0.064  0.00  0.00    +0.040 A 
ATOM     27  C   UNL     1      -1.606   3.646  -0.093  0.00  0.00    +0.054 A 
ATOM     28 CL   UNL     1      -3.140   4.264  -0.623  0.00  0.00    -0.083 Cl
ATOM     29 CL   UNL     1       2.035   5.089   0.682  0.00  0.00    -0.083 Cl
ENDBRANCH  19  22
ENDBRANCH   1  18
BRANCH   1  30
ATOM     30  C   UNL     1      -3.761  -1.380  -1.228  0.00  0.00    +0.034 C 
BRANCH  30  32
ATOM     31  C   UNL     1      -6.257  -1.295  -1.139  0.00  0.00    +0.007 C 
ATOM     32  C   UNL     1      -5.044  -2.209  -1.325  0.00  0.00    -0.015 C 
ATOM     33  C   UNL     1      -5.115  -2.879  -2.698  0.00  0.00    +0.007 C 
ENDBRANCH  30  32
ENDBRANCH   1  30
TORSDOF 8
