REMARK  Name = ZINC39006638
REMARK  5 active torsions:
REMARK  status: ('A' for Active; 'I' for Inactive)
REMARK    1  A    between atoms: C_16  and  C_18
REMARK    2  A    between atoms: C_18  and  S_19
REMARK    3  A    between atoms: S_19  and  C_20
REMARK    4  A    between atoms: C_23  and  C_27
REMARK    5  A    between atoms: N_25  and  N_26
REMARK                            x       y       z     vdW  Elec       q    Type
REMARK                         _______ _______ _______ _____ _____    ______ ____
ROOT
ATOM      1  C   UNL     1       0.058  -4.187  -0.670  0.00  0.00    +0.173 C 
ENDROOT
BRANCH   1  17
ATOM      2  C   UNL     1       0.037   1.390  -0.096  0.00  0.00    +0.002 A 
ATOM      3  C   UNL     1       1.047   2.141  -0.669  0.00  0.00    +0.001 A 
ATOM      4  C   UNL     1       2.144   1.511  -1.225  0.00  0.00    +0.017 A 
ATOM      5  C   UNL     1       2.234   0.125  -1.211  0.00  0.00    +0.035 A 
ATOM      6  C   UNL     1       1.217  -0.634  -0.638  0.00  0.00    +0.055 A 
ATOM      7  C   UNL     1       0.119   0.012  -0.079  0.00  0.00    +0.025 A 
ATOM      8  N   UNL     1       1.262  -2.027  -0.615  0.00  0.00    -0.237 N 
ATOM      9  C   UNL     1       2.429  -2.787  -0.682  0.00  0.00    +0.056 A 
ATOM     10  C   UNL     1       2.422  -4.076  -0.158  0.00  0.00    +0.045 A 
ATOM     11  C   UNL     1       3.559  -4.858  -0.213  0.00  0.00    +0.043 A 
ATOM     12  C   UNL     1       4.716  -4.365  -0.791  0.00  0.00    +0.021 A 
ATOM     13  C   UNL     1       4.735  -3.086  -1.313  0.00  0.00    +0.018 A 
ATOM     14  C   UNL     1       3.596  -2.293  -1.258  0.00  0.00    +0.035 A 
ATOM     15  S   UNL     1       3.642  -0.661  -1.919  0.00  0.00    -0.086 S 
ATOM     16 CL   UNL     1       3.538  -6.465   0.445  0.00  0.00    -0.083 Cl
ATOM     17  C   UNL     1       0.092  -2.688  -0.519  0.00  0.00    +0.234 C 
ATOM     18  O   UNL     1      -0.935  -2.076  -0.310  0.00  0.00    -0.274 OA
ENDBRANCH   1  17
BRANCH   1  19
ATOM     19  S   UNL     1      -1.490  -4.678  -1.479  0.00  0.00    -0.078 S 
BRANCH  19  20
ATOM     20  C   UNL     1      -1.378  -6.434  -1.582  0.00  0.00    +0.189 C 
ATOM     21  N   UNL     1      -0.378  -7.121  -1.143  0.00  0.00    -0.161 NA
ATOM     22  N   UNL     1      -0.564  -8.492  -1.359  0.00  0.00    -0.243 N 
ATOM     23  C   UNL     1      -1.871  -8.629  -2.026  0.00  0.00    +0.222 C 
ATOM     24  N   UNL     1      -2.357  -7.243  -2.138  0.00  0.00    -0.223 N 
ATOM     25  H   UNL     1       0.045  -9.208  -1.119  0.00  0.00    +0.170 HD
BRANCH  23  26
ATOM     26  C   UNL     1      -1.705  -9.262  -3.409  0.00  0.00    +0.197 C 
ATOM     27  C   UNL     1      -1.172 -10.675  -3.292  0.00  0.00    -0.017 C 
ATOM     28  C   UNL     1      -0.003 -10.651  -3.928  0.00  0.00    +0.065 C 
ATOM     29  C   UNL     1       0.637 -12.026  -3.881  0.00  0.00    +0.057 C 
ATOM     30  C   UNL     1      -0.109 -12.780  -2.758  0.00  0.00    +0.011 C 
ATOM     31  C   UNL     1      -1.468 -12.045  -2.739  0.00  0.00    +0.035 C 
ATOM     32  N   UNL     1       0.235  -9.401  -4.412  0.00  0.00    -0.158 NA
ATOM     33  N   UNL     1      -0.651  -8.574  -4.174  0.00  0.00    -0.176 NA
ENDBRANCH  23  26
BRANCH  24  34
ATOM     34  N   UNL     1      -3.540  -6.835  -2.686  0.00  0.00    -0.250 NA
ATOM     35  H   UNL     1      -3.632  -5.831  -2.642  0.00  0.00    +0.141 HD
ATOM     36  H   UNL     1      -3.632  -7.165  -3.635  0.00  0.00    +0.141 HD
ENDBRANCH  24  34
ENDBRANCH  19  20
ENDBRANCH   1  19
TORSDOF 5
