REMARK  Name = ZINC57641209
REMARK  13 active torsions:
REMARK  status: ('A' for Active; 'I' for Inactive)
REMARK    1  A    between atoms: C_1  and  C_2
REMARK    2  A    between atoms: C_2  and  C_3
REMARK    3  A    between atoms: C_3  and  C_5
REMARK    4  A    between atoms: C_3  and  N_17
REMARK    5  A    between atoms: N_9  and  C_10
REMARK    6  A    between atoms: C_10  and  C_11
REMARK    7  A    between atoms: N_17  and  C_18
REMARK    8  A    between atoms: N_17  and  C_26
REMARK    9  A    between atoms: C_18  and  C_19
REMARK   10  A    between atoms: C_22  and  C_25
REMARK   11  A    between atoms: C_26  and  C_27
REMARK   12  A    between atoms: C_32  and  O_39
REMARK   13  A    between atoms: O_39  and  C_40
REMARK                            x       y       z     vdW  Elec       q    Type
REMARK                         _______ _______ _______ _____ _____    ______ ____
ROOT
ATOM      1  N   UNL     1      -2.060  -0.312   1.385  0.00  0.00    -0.284 NA
ENDROOT
BRANCH   1   2
ATOM      2  C   UNL     1      -1.721  -0.631  -0.008  0.00  0.00    +0.127 C 
BRANCH   2   3
ATOM      3  C   UNL     1      -2.922  -0.391  -0.885  0.00  0.00    +0.168 A 
ATOM      4  N   UNL     1      -4.158  -0.750  -0.636  0.00  0.00    -0.112 NA
ATOM      5  N   UNL     1      -4.891  -0.366  -1.623  0.00  0.00    -0.023 NA
ATOM      6  N   UNL     1      -4.155   0.230  -2.495  0.00  0.00    -0.044 NA
ATOM      7  N   UNL     1      -2.936   0.240  -2.074  0.00  0.00    -0.225 N 
BRANCH   7   8
ATOM      8  C   UNL     1      -1.782   0.824  -2.763  0.00  0.00    +0.179 C 
BRANCH   8   9
ATOM      9  C   UNL     1      -1.144  -0.229  -3.671  0.00  0.00    +0.140 C 
ATOM     10  C   UNL     1       0.142   0.340  -4.308  0.00  0.00    +0.035 C 
ATOM     11  C   UNL     1       0.074  -0.227  -5.752  0.00  0.00    +0.031 C 
ATOM     12  C   UNL     1      -1.456  -0.217  -6.000  0.00  0.00    +0.160 C 
ATOM     13  O   UNL     1      -2.044  -0.563  -4.734  0.00  0.00    -0.375 OA
ENDBRANCH   8   9
ENDBRANCH   7   8
ENDBRANCH   2   3
BRANCH   2  15
ATOM     14  C   UNL     1      -0.017  -2.318   0.694  0.00  0.00    +0.006 C 
ATOM     15  C   UNL     1      -1.302  -2.099  -0.108  0.00  0.00    +0.023 C 
ENDBRANCH   2  15
ENDBRANCH   1   2
BRANCH   1  16
ATOM     16  C   UNL     1      -3.271  -1.028   1.809  0.00  0.00    +0.120 C 
BRANCH  16  17
ATOM     17  C   UNL     1      -3.366  -1.009   3.313  0.00  0.00    -0.033 A 
ATOM     18  C   UNL     1      -2.686  -1.953   4.060  0.00  0.00    +0.005 A 
ATOM     19  C   UNL     1      -2.773  -1.935   5.440  0.00  0.00    +0.003 A 
ATOM     20  C   UNL     1      -3.538  -0.974   6.072  0.00  0.00    -0.050 A 
ATOM     21  C   UNL     1      -4.217  -0.029   5.325  0.00  0.00    +0.003 A 
ATOM     22  C   UNL     1      -4.127  -0.044   3.946  0.00  0.00    +0.005 A 
ATOM     23  C   UNL     1      -3.634  -0.955   7.576  0.00  0.00    +0.044 C 
ENDBRANCH  16  17
ENDBRANCH   1  16
BRANCH   1  24
ATOM     24  C   UNL     1      -2.213   1.137   1.572  0.00  0.00    +0.126 C 
BRANCH  24  25
ATOM     25  C   UNL     1      -0.853   1.784   1.614  0.00  0.00    +0.031 A 
ATOM     26  C   UNL     1      -0.342   2.357   0.495  0.00  0.00    +0.020 A 
ATOM     27  C   UNL     1       0.981   2.977   0.569  0.00  0.00    -0.001 A 
ATOM     28  C   UNL     1       1.559   3.584  -0.553  0.00  0.00    +0.013 A 
ATOM     29  C   UNL     1       2.794   4.155  -0.454  0.00  0.00    +0.046 A 
ATOM     30  C   UNL     1       3.486   4.139   0.756  0.00  0.00    +0.122 A 
ATOM     31  C   UNL     1       2.932   3.544   1.877  0.00  0.00    +0.072 A 
ATOM     32  C   UNL     1       1.676   2.958   1.795  0.00  0.00    +0.053 A 
ATOM     33  N   UNL     1       1.100   2.360   2.895  0.00  0.00    -0.322 N 
ATOM     34  H   UNL     1       1.579   2.348   3.739  0.00  0.00    +0.169 HD
ATOM     35  C   UNL     1      -0.119   1.797   2.818  0.00  0.00    +0.254 A 
ATOM     36  O   UNL     1      -0.599   1.281   3.812  0.00  0.00    -0.268 OA
BRANCH  30  37
ATOM     37  O   UNL     1       4.715   4.711   0.836  0.00  0.00    -0.495 OA
ATOM     38  C   UNL     1       5.231   5.308  -0.355  0.00  0.00    +0.277 C 
ENDBRANCH  30  37
ENDBRANCH  24  25
ENDBRANCH   1  24
TORSDOF 10
