REMARK  Name = ZINC24886652
REMARK  8 active torsions:
REMARK  status: ('A' for Active; 'I' for Inactive)
REMARK    1  A    between atoms: C_1  and  C_2
REMARK    2  A    between atoms: N_7  and  C_9
REMARK    3  A    between atoms: C_9  and  C_10
REMARK    4  A    between atoms: C_16  and  C_18
REMARK    5  A    between atoms: C_18  and  C_20
REMARK    6  A    between atoms: C_18  and  N_21
REMARK    7  A    between atoms: C_22  and  C_24
REMARK    8  A    between atoms: C_24  and  C_25
REMARK                            x       y       z     vdW  Elec       q    Type
REMARK                         _______ _______ _______ _____ _____    ______ ____
ROOT
ATOM      1  C   UNL     1       2.679   5.558   0.344  0.00  0.00    +0.034 A 
ATOM      2  C   UNL     1       2.703   6.068   1.600  0.00  0.00    +0.070 A 
ATOM      3  S   UNL     1       2.589   7.817   1.249  0.00  0.00    -0.060 S 
ATOM      4  C   UNL     1       2.514   7.696  -0.481  0.00  0.00    +0.165 A 
ATOM      5  N   UNL     1       2.582   6.393  -0.672  0.00  0.00    -0.231 NA
ATOM      6  N   UNL     1       2.410   8.712  -1.424  0.00  0.00    -0.263 N 
ATOM      7  C   UNL     1       2.353   9.998  -1.025  0.00  0.00    +0.239 C 
ATOM      8  O   UNL     1       2.393  10.269   0.157  0.00  0.00    -0.273 OA
ATOM      9  H   UNL     1       2.374   8.466  -2.496  0.00  0.00    +0.157 HD
ENDROOT
BRANCH   7  10
ATOM     10  C   UNL     1       2.240  11.100  -2.047  0.00  0.00    +0.156 C 
ATOM     11  C   UNL     1       3.451  11.056  -2.981  0.00  0.00    +0.038 C 
BRANCH  10  12
ATOM     12  N   UNL     1       2.196  12.396  -1.365  0.00  0.00    -0.304 N 
ATOM     13  C   UNL     1       1.611  13.452  -1.964  0.00  0.00    +0.218 C 
ATOM     14  O   UNL     1       1.121  13.330  -3.066  0.00  0.00    -0.275 OA
ATOM     15  H   UNL     1       2.640  12.507  -0.365  0.00  0.00    +0.149 HD
BRANCH  13  16
ATOM     16  C   UNL     1       1.566  14.786  -1.262  0.00  0.00    +0.131 C 
BRANCH  16  17
ATOM     17  C   UNL     1       0.863  15.790  -2.138  0.00  0.00    -0.031 A 
ATOM     18  C   UNL     1       1.583  16.610  -2.952  0.00  0.00    +0.005 A 
ATOM     19  C   UNL     1       0.951  17.545  -3.769  0.00  0.00    +0.001 A 
ATOM     20  C   UNL     1      -0.405  17.666  -3.778  0.00  0.00    +0.008 A 
ATOM     21  C   UNL     1      -1.182  16.837  -2.951  0.00  0.00    -0.018 A 
ATOM     22  C   UNL     1      -0.539  15.882  -2.124  0.00  0.00    -0.014 A 
ATOM     23  C   UNL     1      -1.316  15.055  -1.294  0.00  0.00    +0.009 A 
ATOM     24  C   UNL     1      -2.671  15.177  -1.302  0.00  0.00    +0.001 A 
ATOM     25  C   UNL     1      -3.304  16.113  -2.118  0.00  0.00    +0.001 A 
ATOM     26  C   UNL     1      -2.584  16.932  -2.932  0.00  0.00    +0.008 A 
ENDBRANCH  16  17
ENDBRANCH  13  16
ENDBRANCH  10  12
ENDBRANCH   7  10
BRANCH   1  27
ATOM     27  C   UNL     1       2.755   4.070   0.115  0.00  0.00    -0.022 C 
BRANCH  27  33
ATOM     28  C   UNL     1       0.002  -0.004   0.002  0.00  0.00    +0.005 C 
ATOM     29  C   UNL     1      -0.019   1.526   0.010  0.00  0.00    -0.031 C 
ATOM     30  C   UNL     1      -0.755   2.034  -1.232  0.00  0.00    -0.001 C 
ATOM     31  C   UNL     1      -0.719   3.565  -1.247  0.00  0.00    -0.018 C 
ATOM     32  C   UNL     1       0.737   4.036  -1.221  0.00  0.00    -0.078 C 
ATOM     33  N   UNL     1       1.397   3.525  -0.014  0.00  0.00    +0.384 N 
ATOM     34  C   UNL     1       1.417   2.056  -0.000  0.00  0.00    -0.075 C 
ATOM     35  H   UNL     1       0.812   3.860   0.856  0.00  0.00    -0.081 HD
ENDBRANCH  27  33
ENDBRANCH   1  27
TORSDOF 6
