REMARK  Name = ZINC54742659
REMARK  4 active torsions:
REMARK  status: ('A' for Active; 'I' for Inactive)
REMARK    1  A    between atoms: C_1  and  C_2
REMARK    2  A    between atoms: C_2  and  C_3
REMARK    3  A    between atoms: C_3  and  N_4
REMARK    4  A    between atoms: N_4  and  C_5
REMARK                            x       y       z     vdW  Elec       q    Type
REMARK                         _______ _______ _______ _____ _____    ______ ____
ROOT
ATOM      1  C   UNL     1       1.472  -2.466   2.424  0.00  0.00    -0.013 C 
ATOM      2  C   UNL     1       0.764  -1.948   3.674  0.00  0.00    +0.149 C 
ATOM      3  O   UNL     1      -0.627  -1.809   3.373  0.00  0.00    -0.381 OA
ATOM      4  C   UNL     1      -1.265  -3.026   2.998  0.00  0.00    +0.164 C 
ATOM      5  C   UNL     1      -0.589  -4.157   3.777  0.00  0.00    +0.064 C 
ATOM      6  C   UNL     1       0.540  -4.757   2.982  0.00  0.00    -0.029 A 
ATOM      7  C   UNL     1       1.509  -3.973   2.394  0.00  0.00    -0.041 A 
ATOM      8  C   UNL     1       2.566  -4.582   1.729  0.00  0.00    +0.020 A 
ATOM      9  C   UNL     1       2.633  -5.957   1.626  0.00  0.00    +0.016 A 
ATOM     10  C   UNL     1       1.638  -6.737   2.183  0.00  0.00    +0.016 A 
ATOM     11  C   UNL     1       0.599  -6.138   2.859  0.00  0.00    +0.021 A 
ATOM     12 BR   UNL     1      -0.760  -7.207   3.625  0.00  0.00    -0.050 Br
ATOM     13 BR   UNL     1       3.927  -3.517   0.961  0.00  0.00    -0.050 Br
ENDROOT
BRANCH   1  14
ATOM     14  N   UNL     1       0.762  -1.980   1.234  0.00  0.00    +0.385 N 
ATOM     15  H   UNL     1      -0.208  -2.252   1.286  0.00  0.00    -0.085 HD
ATOM     16  H   UNL     1       1.179  -2.379   0.406  0.00  0.00    -0.085 HD
BRANCH  14  17
ATOM     17  C   UNL     1       0.856  -0.515   1.172  0.00  0.00    -0.082 C 
BRANCH  17  19
ATOM     18  C   UNL     1       0.215   1.517  -0.132  0.00  0.00    +0.002 C 
ATOM     19  C   UNL     1       0.116  -0.008  -0.068  0.00  0.00    -0.022 C 
ENDBRANCH  17  19
ENDBRANCH  14  17
ENDBRANCH   1  14
TORSDOF 3
