REMARK  Name = ZINC27695684
REMARK  13 active torsions:
REMARK  status: ('A' for Active; 'I' for Inactive)
REMARK    1  A    between atoms: C_1  and  C_2
REMARK    2  A    between atoms: C_2  and  C_3
REMARK    3  A    between atoms: C_2  and  N_4
REMARK    4  A    between atoms: N_4  and  C_5
REMARK    5  A    between atoms: N_4  and  C_12
REMARK    6  A    between atoms: C_5  and  C_6
REMARK    7  A    between atoms: C_12  and  C_13
REMARK    8  A    between atoms: C_13  and  C_15
REMARK    9  A    between atoms: C_13  and  O_38
REMARK   10  A    between atoms: C_15  and  N_16
REMARK   11  A    between atoms: C_24  and  C_25
REMARK   12  A    between atoms: C_25  and  C_26
REMARK   13  A    between atoms: C_25  and  C_32
REMARK                            x       y       z     vdW  Elec       q    Type
REMARK                         _______ _______ _______ _____ _____    ______ ____
ROOT
ATOM      1  N   UNL     1       2.154   4.346  -0.034  0.00  0.00    -0.324 N 
ATOM      2  C   UNL     1       1.640   3.088  -0.276  0.00  0.00    +0.069 A 
ATOM      3  C   UNL     1       2.204   1.845  -0.526  0.00  0.00    +0.028 A 
ATOM      4  C   UNL     1       1.388   0.753  -0.733  0.00  0.00    +0.002 A 
ATOM      5  C   UNL     1       0.007   0.891  -0.698  0.00  0.00    +0.002 A 
ATOM      6  C   UNL     1      -0.566   2.106  -0.448  0.00  0.00    +0.030 A 
ATOM      7  C   UNL     1       0.242   3.226  -0.236  0.00  0.00    +0.089 A 
ATOM      8  N   UNL     1      -0.019   4.533   0.023  0.00  0.00    -0.231 NA
ATOM      9  C   UNL     1       1.099   5.188   0.141  0.00  0.00    +0.123 A 
ENDROOT
BRANCH   1  10
ATOM     10  C   UNL     1       3.572   4.709   0.024  0.00  0.00    +0.153 C 
BRANCH  10  11
ATOM     11  C   UNL     1       4.052   5.112  -1.372  0.00  0.00    +0.118 C 
BRANCH  11  12
ATOM     12  O   UNL     1       3.375   6.301  -1.783  0.00  0.00    -0.392 OA
ATOM     13  H   UNL     1       2.278   6.309  -1.867  0.00  0.00    +0.210 HD
ENDBRANCH  11  12
BRANCH  11  14
ATOM     14  C   UNL     1       5.560   5.370  -1.338  0.00  0.00    -0.045 C 
BRANCH  14  15
ATOM     15  N   UNL     1       6.048   5.604  -2.704  0.00  0.00    +0.386 N 
ATOM     16  H   UNL     1       5.528   4.902  -3.373  0.00  0.00    -0.081 HD
BRANCH  15  18
ATOM     17  C   UNL     1       8.220   6.062  -1.669  0.00  0.00    -0.014 C 
ATOM     18  C   UNL     1       7.489   5.337  -2.801  0.00  0.00    -0.074 C 
ATOM     19  C   UNL     1       7.737   3.831  -2.686  0.00  0.00    -0.014 C 
ENDBRANCH  15  18
BRANCH  15  20
ATOM     20  C   UNL     1       5.735   6.968  -3.148  0.00  0.00    -0.043 C 
BRANCH  20  21
ATOM     21  C   UNL     1       5.887   7.056  -4.645  0.00  0.00    -0.064 A 
ATOM     22  C   UNL     1       7.104   7.410  -5.196  0.00  0.00    +0.002 A 
ATOM     23  C   UNL     1       7.245   7.486  -6.569  0.00  0.00    +0.000 A 
ATOM     24  C   UNL     1       6.166   7.218  -7.391  0.00  0.00    +0.000 A 
ATOM     25  C   UNL     1       4.947   6.870  -6.839  0.00  0.00    +0.000 A 
ATOM     26  C   UNL     1       4.808   6.789  -5.466  0.00  0.00    +0.002 A 
ENDBRANCH  20  21
ENDBRANCH  15  20
ENDBRANCH  14  15
ENDBRANCH  11  14
ENDBRANCH  10  11
ENDBRANCH   1  10
BRANCH   9  27
ATOM     27  C   UNL     1       1.210   6.663   0.430  0.00  0.00    +0.115 C 
BRANCH  27  28
ATOM     28  C   UNL     1       0.527   7.442  -0.665  0.00  0.00    -0.033 A 
ATOM     29  C   UNL     1      -0.773   7.137  -1.022  0.00  0.00    +0.004 A 
ATOM     30  C   UNL     1      -1.401   7.855  -2.023  0.00  0.00    +0.000 A 
ATOM     31  C   UNL     1      -0.725   8.870  -2.673  0.00  0.00    +0.000 A 
ATOM     32  C   UNL     1       0.577   9.171  -2.320  0.00  0.00    +0.000 A 
ATOM     33  C   UNL     1       1.203   8.457  -1.315  0.00  0.00    +0.004 A 
ENDBRANCH  27  28
BRANCH  27  34
ATOM     34  C   UNL     1       0.550   6.967   1.750  0.00  0.00    -0.033 A 
ATOM     35  C   UNL     1      -0.768   6.609   1.962  0.00  0.00    +0.004 A 
ATOM     36  C   UNL     1      -1.373   6.884   3.175  0.00  0.00    +0.000 A 
ATOM     37  C   UNL     1      -0.662   7.526   4.171  0.00  0.00    +0.000 A 
ATOM     38  C   UNL     1       0.655   7.889   3.957  0.00  0.00    +0.000 A 
ATOM     39  C   UNL     1       1.261   7.609   2.747  0.00  0.00    +0.004 A 
ENDBRANCH  27  34
ENDBRANCH   9  27
TORSDOF 11
