REMARK  Name = ZINC41171715
REMARK  3 active torsions:
REMARK  status: ('A' for Active; 'I' for Inactive)
REMARK    1  A    between atoms: C_5  and  C_7
REMARK    2  A    between atoms: C_14  and  C_16
REMARK    3  A    between atoms: C_16  and  C_17
REMARK                            x       y       z     vdW  Elec       q    Type
REMARK                         _______ _______ _______ _____ _____    ______ ____
ROOT
ATOM      1  C   UNL     1       1.228  -2.186  -0.022  0.00  0.00    +0.168 C 
ATOM      2  C   UNL     1       1.344  -2.688  -1.466  0.00  0.00    +0.144 C 
ATOM      3  N   UNL     1       1.173  -4.150  -1.464  0.00  0.00    -0.296 N 
ATOM      4  C   UNL     1       0.007  -4.709  -0.763  0.00  0.00    +0.136 C 
ATOM      5  C   UNL     1      -0.044  -4.109   0.646  0.00  0.00    +0.179 C 
ATOM      6  O   UNL     1       0.018  -2.683   0.554  0.00  0.00    -0.369 OA
ATOM      7  C   UNL     1       2.059  -4.953  -2.086  0.00  0.00    +0.221 C 
ATOM      8  O   UNL     1       3.015  -4.473  -2.659  0.00  0.00    -0.275 OA
ENDROOT
BRANCH   1  13
ATOM      9  C   UNL     1      -0.017   1.378   0.010  0.00  0.00    +0.001 A 
ATOM     10  C   UNL     1       1.171   2.087   0.002  0.00  0.00    +0.003 A 
ATOM     11  C   UNL     1       2.377   1.414  -0.013  0.00  0.00    +0.039 A 
ATOM     12  C   UNL     1       2.397   0.029  -0.021  0.00  0.00    +0.129 A 
ATOM     13  C   UNL     1       1.208  -0.679  -0.013  0.00  0.00    +0.018 A 
ATOM     14  C   UNL     1       0.002  -0.004   0.002  0.00  0.00    +0.009 A 
ATOM     15  F   UNL     1       3.577  -0.630  -0.036  0.00  0.00    -0.205 F 
ENDBRANCH   1  13
BRANCH   7  16
ATOM     16  C   UNL     1       1.863  -6.447  -2.070  0.00  0.00    +0.138 C 
BRANCH  16  17
ATOM     17  C   UNL     1       2.983  -7.109  -2.831  0.00  0.00    -0.001 A 
ATOM     18  C   UNL     1       4.179  -7.553  -2.374  0.00  0.00    +0.011 A 
ATOM     19  C   UNL     1       5.062  -8.136  -3.264  0.00  0.00    +0.008 A 
ATOM     20  C   UNL     1       4.705  -8.245  -4.567  0.00  0.00    +0.045 A 
ATOM     21  S   UNL     1       3.075  -7.518  -4.566  0.00  0.00    -0.101 S 
ENDBRANCH  16  17
ENDBRANCH   7  16
TORSDOF 3
