REMARK  Name = ZINC07154883
REMARK  2 active torsions:
REMARK  status: ('A' for Active; 'I' for Inactive)
REMARK    1  A    between atoms: C_3  and  N_15
REMARK    2  A    between atoms: C_6  and  C_7
REMARK                            x       y       z     vdW  Elec       q    Type
REMARK                         _______ _______ _______ _____ _____    ______ ____
ROOT
ATOM      1  C   UNL     1      -1.544   3.021   0.234  0.00  0.00    +0.010 A 
ATOM      2  C   UNL     1      -2.785   3.539   0.500  0.00  0.00    +0.024 A 
ATOM      3  C   UNL     1      -3.838   2.693   0.839  0.00  0.00    +0.030 A 
ATOM      4  C   UNL     1      -3.637   1.317   0.906  0.00  0.00    +0.024 A 
ATOM      5  C   UNL     1      -2.400   0.789   0.638  0.00  0.00    +0.010 A 
ATOM      6  C   UNL     1      -1.338   1.636   0.296  0.00  0.00    -0.024 A 
ENDROOT
BRANCH   6   7
ATOM      7  C   UNL     1      -0.013   1.076   0.008  0.00  0.00    +0.028 C 
ATOM      8  C   UNL     1       0.098  -0.081  -0.694  0.00  0.00    +0.080 C 
ATOM      9  C   UNL     1      -0.942  -0.857  -1.398  0.00  0.00    +0.258 C 
ATOM     10  O   UNL     1      -2.105  -0.499  -1.415  0.00  0.00    -0.269 OA
ATOM     11  N   UNL     1      -0.546  -1.962  -2.008  0.00  0.00    -0.243 N 
ATOM     12  C   UNL     1       0.744  -2.355  -1.985  0.00  0.00    +0.283 C 
ATOM     13  O   UNL     1       1.242  -3.339  -2.498  0.00  0.00    -0.262 OA
ATOM     14  S   UNL     1       1.543  -1.078  -1.028  0.00  0.00    -0.026 S 
ATOM     15  H   UNL     1      -1.198  -2.501  -2.482  0.00  0.00    +0.159 HD
ENDBRANCH   6   7
BRANCH   3  16
ATOM     16  N   UNL     1      -5.095   3.224   1.113  0.00  0.00    -0.330 N 
ATOM     17  C   UNL     1      -6.120   2.622   0.250  0.00  0.00    +0.105 C 
ATOM     18  C   UNL     1      -7.503   3.120   0.675  0.00  0.00    +0.019 C 
ATOM     19  C   UNL     1      -7.547   4.647   0.563  0.00  0.00    +0.003 C 
ATOM     20  C   UNL     1      -6.439   5.247   1.432  0.00  0.00    +0.019 C 
ATOM     21  C   UNL     1      -5.087   4.687   0.985  0.00  0.00    +0.105 C 
ENDBRANCH   3  16
TORSDOF 2
