REMARK  Name = ZINC35926879
REMARK  5 active torsions:
REMARK  status: ('A' for Active; 'I' for Inactive)
REMARK    1  A    between atoms: C_3  and  C_8
REMARK    2  A    between atoms: C_8  and  N_9
REMARK    3  A    between atoms: C_22  and  C_24
REMARK    4  A    between atoms: C_24  and  N_25
REMARK    5  A    between atoms: N_28  and  C_31
REMARK                            x       y       z     vdW  Elec       q    Type
REMARK                         _______ _______ _______ _____ _____    ______ ____
ROOT
ATOM      1  N   UNL     1       4.938   4.120   5.411  0.00  0.00    +0.383 N 
ATOM      2  C   UNL     1       4.470   2.776   5.741  0.00  0.00    -0.077 C 
ATOM      3  C   UNL     1       3.728   2.201   4.555  0.00  0.00    +0.000 C 
ATOM      4  C   UNL     1       4.701   1.377   3.692  0.00  0.00    +0.106 C 
ATOM      5  N   UNL     1       6.017   2.040   3.594  0.00  0.00    -0.303 N 
ATOM      6  C   UNL     1       6.152   3.471   3.410  0.00  0.00    +0.089 C 
ATOM      7  C   UNL     1       6.204   4.174   4.787  0.00  0.00    -0.059 C 
ATOM      8  C   UNL     1       7.149   1.276   3.681  0.00  0.00    +0.198 A 
ATOM      9  N   UNL     1       8.366   1.885   3.712  0.00  0.00    -0.295 N 
ATOM     10  H   UNL     1       8.427   2.852   3.672  0.00  0.00    +0.172 HD
ATOM     11  C   UNL     1       9.487   1.138   3.797  0.00  0.00    +0.253 A 
ATOM     12  O   UNL     1      10.586   1.668   3.826  0.00  0.00    -0.268 OA
ATOM     13  C   UNL     1       9.365  -0.261   3.853  0.00  0.00    +0.094 A 
ATOM     14  C   UNL     1       8.118  -0.816   3.819  0.00  0.00    +0.064 A 
ATOM     15  N   UNL     1       7.043  -0.036   3.739  0.00  0.00    -0.219 NA
ATOM     16  H   UNL     1       4.262   4.548   4.797  0.00  0.00    -0.081 HD
ENDROOT
BRANCH   1  17
ATOM     17  C   UNL     1       4.999   4.907   6.650  0.00  0.00    -0.043 C 
BRANCH  17  20
ATOM     18  C   UNL     1       4.365   8.530   5.797  0.00  0.00    +0.002 A 
ATOM     19  C   UNL     1       4.154   7.199   6.106  0.00  0.00    +0.002 A 
ATOM     20  C   UNL     1       5.230   6.357   6.314  0.00  0.00    -0.063 A 
ATOM     21  C   UNL     1       6.519   6.846   6.214  0.00  0.00    +0.021 A 
ATOM     22  C   UNL     1       6.732   8.178   5.905  0.00  0.00    +0.041 A 
ATOM     23  C   UNL     1       5.654   9.020   5.696  0.00  0.00    +0.020 A 
ATOM     24 CL   UNL     1       8.350   8.793   5.780  0.00  0.00    -0.084 Cl
ENDBRANCH  17  20
ENDBRANCH   1  17
BRANCH  14  25
ATOM     25  C   UNL     1       7.959  -2.313   3.877  0.00  0.00    +0.140 C 
BRANCH  25  26
ATOM     26  N   UNL     1       7.267  -2.684   5.118  0.00  0.00    -0.300 NA
ATOM     27  C   UNL     1       8.095  -2.380   6.294  0.00  0.00    +0.066 C 
ATOM     28  C   UNL     1       7.316  -2.725   7.566  0.00  0.00    -0.063 C 
ATOM     29  N   UNL     1       6.962  -4.150   7.551  0.00  0.00    +0.383 N 
ATOM     30  C   UNL     1       6.115  -4.434   6.385  0.00  0.00    -0.063 C 
ATOM     31  C   UNL     1       6.883  -4.103   5.104  0.00  0.00    +0.066 C 
ATOM     32  H   UNL     1       7.802  -4.705   7.499  0.00  0.00    -0.081 HD
BRANCH  29  33
ATOM     33  C   UNL     1       6.230  -4.485   8.780  0.00  0.00    -0.068 C 
ATOM     34  C   UNL     1       7.112  -4.191   9.995  0.00  0.00    -0.015 C 
ATOM     35  C   UNL     1       6.350  -4.539  11.275  0.00  0.00    -0.002 C 
ATOM     36  C   UNL     1       5.980  -6.024  11.260  0.00  0.00    -0.000 C 
ATOM     37  C   UNL     1       5.098  -6.318  10.046  0.00  0.00    -0.002 C 
ATOM     38  C   UNL     1       5.860  -5.969   8.765  0.00  0.00    -0.015 C 
ENDBRANCH  29  33
ENDBRANCH  25  26
ENDBRANCH  14  25
TORSDOF 5
