REMARK  Name = ZINC39674529
REMARK  12 active torsions:
REMARK  status: ('A' for Active; 'I' for Inactive)
REMARK    1  A    between atoms: C_1  and  C_2
REMARK    2  A    between atoms: C_4  and  C_9
REMARK    3  A    between atoms: C_5  and  C_8
REMARK    4  A    between atoms: C_9  and  C_11
REMARK    5  A    between atoms: C_9  and  N_12
REMARK    6  A    between atoms: C_13  and  C_15
REMARK    7  A    between atoms: C_26  and  C_28
REMARK    8  A    between atoms: C_28  and  C_30
REMARK    9  A    between atoms: C_28  and  O_33
REMARK   10  A    between atoms: C_30  and  C_31
REMARK   11  A    between atoms: C_30  and  C_32
REMARK   12  A    between atoms: O_33  and  C_34
REMARK                            x       y       z     vdW  Elec       q    Type
REMARK                         _______ _______ _______ _____ _____    ______ ____
ROOT
ATOM      1  C   UNL     1       0.627   3.546  -4.896  0.00  0.00    +0.100 C 
ATOM      2  C   UNL     1      -0.733   3.846  -4.228  0.00  0.00    +0.121 C 
ATOM      3  N   UNL     1      -1.514   4.554  -5.269  0.00  0.00    -0.297 N 
ATOM      4  C   UNL     1      -1.172   3.851  -6.529  0.00  0.00    +0.115 C 
ATOM      5  C   UNL     1       0.335   3.549  -6.406  0.00  0.00    -0.004 C 
ATOM      6  C   UNL     1       0.650   2.183  -7.009  0.00  0.00    -0.010 C 
ATOM      7  C   UNL     1       0.407   2.229  -8.520  0.00  0.00    -0.082 C 
ATOM      8  N   UNL     1       1.259   3.260  -9.124  0.00  0.00    +0.379 N 
ATOM      9  C   UNL     1       0.887   4.583  -8.607  0.00  0.00    -0.082 C 
ATOM     10  C   UNL     1       1.150   4.637  -7.100  0.00  0.00    -0.010 C 
ATOM     11  C   UNL     1      -2.346   5.602  -5.108  0.00  0.00    +0.257 C 
ATOM     12  O   UNL     1      -2.999   6.007  -6.046  0.00  0.00    -0.272 OA
ATOM     13  H   UNL     1       2.224   3.072  -8.897  0.00  0.00    -0.086 HD
ATOM     14  H   UNL     1       1.143   3.247 -10.126  0.00  0.00    -0.086 HD
ENDROOT
BRANCH   1  16
ATOM     15  N   UNL     1       2.459   1.929  -4.506  0.00  0.00    -0.309 N 
ATOM     16  C   UNL     1       1.138   2.195  -4.464  0.00  0.00    +0.219 C 
ATOM     17  O   UNL     1       0.361   1.348  -4.078  0.00  0.00    -0.275 OA
ATOM     18  H   UNL     1       3.080   2.607  -4.814  0.00  0.00    +0.149 HD
BRANCH  15  19
ATOM     19  C   UNL     1       2.955   0.617  -4.086  0.00  0.00    +0.100 C 
ATOM     20  C   UNL     1       3.044   0.570  -2.559  0.00  0.00    +0.033 C 
BRANCH  19  23
ATOM     21  C   UNL     1       5.305   2.640  -5.162  0.00  0.00    +0.039 C 
ATOM     22  C   UNL     1       5.556   1.260  -4.551  0.00  0.00    +0.154 C 
ATOM     23  C   UNL     1       4.322   0.384  -4.676  0.00  0.00    -0.001 C 
ATOM     24  C   UNL     1       4.730  -0.640  -5.429  0.00  0.00    +0.063 C 
ATOM     25  N   UNL     1       6.030  -0.497  -5.769  0.00  0.00    -0.159 NA
ATOM     26  N   UNL     1       6.569   0.524  -5.326  0.00  0.00    -0.180 NA
ATOM     27  C   UNL     1       3.858  -1.797  -5.843  0.00  0.00    +0.067 C 
ENDBRANCH  19  23
ENDBRANCH  15  19
ENDBRANCH   1  16
BRANCH  11  28
ATOM     28  C   UNL     1      -2.464   6.270  -3.762  0.00  0.00    +0.261 C 
BRANCH  28  29
ATOM     29  C   UNL     1      -1.416   7.379  -3.649  0.00  0.00    +0.033 C 
ATOM     30  C   UNL     1      -1.543   8.064  -2.287  0.00  0.00    +0.011 C 
ATOM     31  C   UNL     1      -0.017   6.775  -3.788  0.00  0.00    +0.011 C 
ENDBRANCH  28  29
BRANCH  28  32
ATOM     32  O   UNL     1      -3.770   6.833  -3.623  0.00  0.00    -0.479 OA
BRANCH  32  33
ATOM     33  C   UNL     1      -4.342   6.769  -2.392  0.00  0.00    +0.122 A 
ATOM     34  C   UNL     1      -5.617   7.277  -2.191  0.00  0.00    +0.045 A 
ATOM     35  C   UNL     1      -6.196   7.211  -0.938  0.00  0.00    +0.004 A 
ATOM     36  C   UNL     1      -5.505   6.640   0.115  0.00  0.00    +0.000 A 
ATOM     37  C   UNL     1      -4.233   6.134  -0.083  0.00  0.00    +0.004 A 
ATOM     38  C   UNL     1      -3.653   6.192  -1.335  0.00  0.00    +0.045 A 
ENDBRANCH  32  33
ENDBRANCH  28  32
ENDBRANCH  11  28
TORSDOF 7
