REMARK  Name = ZINC43415483
REMARK  8 active torsions:
REMARK  status: ('A' for Active; 'I' for Inactive)
REMARK    1  A    between atoms: C_1  and  C_2
REMARK    2  A    between atoms: C_2  and  N_3
REMARK    3  A    between atoms: N_3  and  C_4
REMARK    4  A    between atoms: C_7  and  C_9
REMARK    5  A    between atoms: C_9  and  O_10
REMARK    6  A    between atoms: O_10  and  C_11
REMARK    7  A    between atoms: C_12  and  N_20
REMARK    8  A    between atoms: C_14  and  C_18
REMARK                            x       y       z     vdW  Elec       q    Type
REMARK                         _______ _______ _______ _____ _____    ______ ____
ROOT
ATOM      1  C   UNL     1      -1.728  -0.447   4.824  0.00  0.00    +0.155 A 
ATOM      2  C   UNL     1      -0.998  -1.415   5.514  0.00  0.00    +0.069 A 
ATOM      3  C   UNL     1      -0.528  -1.150   6.787  0.00  0.00    +0.045 A 
ATOM      4  C   UNL     1      -0.786   0.089   7.380  0.00  0.00    +0.055 A 
ATOM      5  C   UNL     1      -1.517   1.054   6.683  0.00  0.00    +0.037 A 
ATOM      6  C   UNL     1      -1.979   0.785   5.411  0.00  0.00    +0.058 A 
ATOM      7  I   UNL     1      -3.068   2.238   4.366  0.00  0.00    -0.040 I 
ENDROOT
BRANCH   2   8
ATOM      8  N   UNL     1      -0.742  -2.656   4.918  0.00  0.00    -0.355 N 
ATOM      9  H   UNL     1      -1.072  -2.842   4.024  0.00  0.00    +0.142 HD
ATOM     10  H   UNL     1      -0.234  -3.329   5.397  0.00  0.00    +0.142 HD
ENDBRANCH   2   8
BRANCH   4  11
ATOM     11  C   UNL     1      -0.302   0.369   8.698  0.00  0.00    +0.099 C 
ATOM     12  N   UNL     1       0.082   0.591   9.744  0.00  0.00    -0.191 NA
ENDBRANCH   4  11
BRANCH   1  13
ATOM     13  O   UNL     1      -2.188  -0.708   3.573  0.00  0.00    -0.480 OA
BRANCH  13  14
ATOM     14  C   UNL     1      -1.327  -0.377   2.482  0.00  0.00    +0.324 C 
BRANCH  14  16
ATOM     15  N   UNL     1      -1.372  -0.511   0.012  0.00  0.00    -0.296 N 
ATOM     16  C   UNL     1      -2.002  -0.736   1.183  0.00  0.00    +0.253 C 
ATOM     17  O   UNL     1      -3.111  -1.226   1.191  0.00  0.00    -0.272 OA
BRANCH  15  18
ATOM     18  C   UNL     1      -2.069  -0.756  -1.253  0.00  0.00    +0.076 C 
ATOM     19  C   UNL     1      -1.280  -0.545  -2.546  0.00  0.00    +0.024 C 
ATOM     20  C   UNL     1      -2.366   0.453  -2.141  0.00  0.00    +0.024 C 
ENDBRANCH  15  18
BRANCH  15  22
ATOM     21  C   UNL     1       0.008   1.508   0.005  0.00  0.00    +0.024 C 
ATOM     22  C   UNL     1       0.009  -0.022   0.005  0.00  0.00    +0.105 C 
ENDBRANCH  15  22
ENDBRANCH  14  16
ENDBRANCH  13  14
ENDBRANCH   1  13
TORSDOF 7
