REMARK  Name = ZINC03999368
REMARK  13 active torsions:
REMARK  status: ('A' for Active; 'I' for Inactive)
REMARK    1  A    between atoms: C_1  and  C_2
REMARK    2  A    between atoms: C_2  and  C_3
REMARK    3  A    between atoms: C_3  and  C_28
REMARK    4  A    between atoms: C_5  and  C_9
REMARK    5  A    between atoms: C_5  and  C_21
REMARK    6  A    between atoms: C_9  and  C_10
REMARK    7  A    between atoms: C_10  and  N_66
REMARK    8  A    between atoms: C_11  and  C_12
REMARK    9  A    between atoms: C_11  and  N_66
REMARK   10  A    between atoms: C_15  and  N_18
REMARK   11  A    between atoms: N_18  and  C_19
REMARK   12  A    between atoms: N_18  and  C_20
REMARK   13  A    between atoms: C_24  and  C_27
REMARK                            x       y       z     vdW  Elec       q    Type
REMARK                         _______ _______ _______ _____ _____    ______ ____
ROOT
ATOM      1  C   UNL     1      -0.825   1.433   0.461  0.00  0.00    +0.067 C 
ATOM      2  C   UNL     1       0.108   0.345  -0.076  0.00  0.00    +0.046 C 
ATOM      3  C   UNL     1      -0.136   0.169  -1.578  0.00  0.00    -0.001 C 
ATOM      4  C   UNL     1       0.076   1.514  -2.280  0.00  0.00    +0.039 C 
ATOM      5  C   UNL     1      -0.857   2.557  -1.659  0.00  0.00    +0.161 C 
ATOM      6  O   UNL     1      -0.599   2.649  -0.256  0.00  0.00    -0.374 OA
ATOM      7  C   UNL     1      -0.544   1.657   1.948  0.00  0.00    +0.041 C 
ENDROOT
BRANCH   3   8
ATOM      8  C   UNL     1       0.833  -0.846  -2.130  0.00  0.00    -0.041 A 
ATOM      9  C   UNL     1       1.833  -1.357  -1.324  0.00  0.00    +0.004 A 
ATOM     10  C   UNL     1       2.719  -2.290  -1.830  0.00  0.00    +0.003 A 
ATOM     11  C   UNL     1       2.610  -2.706  -3.144  0.00  0.00    -0.050 A 
ATOM     12  C   UNL     1       1.613  -2.191  -3.951  0.00  0.00    +0.003 A 
ATOM     13  C   UNL     1       0.724  -1.261  -3.445  0.00  0.00    +0.004 A 
ATOM     14  C   UNL     1       3.578  -3.719  -3.696  0.00  0.00    +0.044 C 
ENDBRANCH   3   8
BRANCH   1  16
ATOM     15  C   UNL     1      -3.110   1.471   1.470  0.00  0.00    +0.007 C 
ATOM     16  C   UNL     1      -2.279   0.996   0.276  0.00  0.00    +0.031 C 
ENDBRANCH   1  16
BRANCH   3  17
ATOM     17  C   UNL     1      -1.570  -0.311  -1.811  0.00  0.00    -0.007 C 
BRANCH  17  18
ATOM     18  C   UNL     1      -1.751  -1.698  -1.192  0.00  0.00    -0.081 C 
BRANCH  18  19
ATOM     19  N   UNL     1      -3.146  -2.136  -1.387  0.00  0.00    +0.382 N 
ATOM     20  H   UNL     1      -3.352  -2.173  -2.392  0.00  0.00    -0.085 HD
ATOM     21  H   UNL     1      -3.778  -1.466  -0.932  0.00  0.00    -0.085 HD
BRANCH  19  22
ATOM     22  C   UNL     1      -3.350  -3.473  -0.799  0.00  0.00    -0.047 C 
BRANCH  22  23
ATOM     23  C   UNL     1      -4.781  -3.894  -1.012  0.00  0.00    -0.064 A 
ATOM     24  C   UNL     1      -5.739  -3.586  -0.064  0.00  0.00    +0.003 A 
ATOM     25  C   UNL     1      -7.053  -3.965  -0.260  0.00  0.00    +0.023 A 
ATOM     26  C   UNL     1      -7.409  -4.666  -1.405  0.00  0.00    +0.029 A 
ATOM     27  C   UNL     1      -6.443  -4.978  -2.352  0.00  0.00    +0.023 A 
ATOM     28  C   UNL     1      -5.132  -4.591  -2.153  0.00  0.00    +0.003 A 
BRANCH  26  29
ATOM     29  N   UNL     1      -8.736  -5.055  -1.603  0.00  0.00    -0.336 N 
ATOM     30  C   UNL     1      -9.110  -5.794  -2.811  0.00  0.00    +0.129 C 
ATOM     31  C   UNL     1      -9.754  -4.724  -0.602  0.00  0.00    +0.129 C 
ENDBRANCH  26  29
ENDBRANCH  22  23
ENDBRANCH  19  22
ENDBRANCH  18  19
ENDBRANCH  17  18
ENDBRANCH   3  17
TORSDOF 8
