REMARK  Name = ZINC19926226
REMARK  11 active torsions:
REMARK  status: ('A' for Active; 'I' for Inactive)
REMARK    1  A    between atoms: C_1  and  C_2
REMARK    2  A    between atoms: C_5  and  N_8
REMARK    3  A    between atoms: N_8  and  C_9
REMARK    4  A    between atoms: N_8  and  S_24
REMARK    5  A    between atoms: C_9  and  C_10
REMARK    6  A    between atoms: N_12  and  N_13
REMARK    7  A    between atoms: C_14  and  C_15
REMARK    8  A    between atoms: C_18  and  O_23
REMARK    9  A    between atoms: C_19  and  O_21
REMARK   10  A    between atoms: O_21  and  C_22
REMARK   11  A    between atoms: S_24  and  C_27
REMARK                            x       y       z     vdW  Elec       q    Type
REMARK                         _______ _______ _______ _____ _____    ______ ____
ROOT
ATOM      1  N   UNL     1       0.058  -4.167  -0.021  0.00  0.00    -0.194 N 
ENDROOT
BRANCH   1   6
ATOM      2  C   UNL     1       0.026   1.503   0.027  0.00  0.00    +0.044 C 
ATOM      3  C   UNL     1       0.035  -0.004   0.014  0.00  0.00    -0.050 A 
ATOM      4  C   UNL     1      -0.737  -0.690  -0.905  0.00  0.00    +0.005 A 
ATOM      5  C   UNL     1      -0.732  -2.071  -0.919  0.00  0.00    +0.025 A 
ATOM      6  C   UNL     1       0.051  -2.771  -0.009  0.00  0.00    +0.052 A 
ATOM      7  C   UNL     1       0.825  -2.078   0.912  0.00  0.00    +0.025 A 
ATOM      8  C   UNL     1       0.820  -0.697   0.918  0.00  0.00    +0.005 A 
ENDBRANCH   1   6
BRANCH   1   9
ATOM      9  S   UNL     1      -0.415  -5.009   1.325  0.00  0.00    +0.075 S 
ATOM     10  O   UNL     1       0.303  -6.236   1.309  0.00  0.00    -0.150 OA
ATOM     11  O   UNL     1      -0.348  -4.101   2.416  0.00  0.00    -0.150 OA
BRANCH   9  12
ATOM     12  C   UNL     1      -2.115  -5.418   1.112  0.00  0.00    +0.109 A 
ATOM     13  C   UNL     1      -3.095  -4.550   1.556  0.00  0.00    +0.030 A 
ATOM     14  C   UNL     1      -4.430  -4.870   1.390  0.00  0.00    +0.022 A 
ATOM     15  C   UNL     1      -4.784  -6.060   0.779  0.00  0.00    +0.041 A 
ATOM     16  C   UNL     1      -3.803  -6.928   0.336  0.00  0.00    +0.022 A 
ATOM     17  C   UNL     1      -2.469  -6.604   0.497  0.00  0.00    +0.030 A 
ATOM     18 CL   UNL     1      -6.460  -6.463   0.571  0.00  0.00    -0.084 Cl
ENDBRANCH   9  12
ENDBRANCH   1   9
BRANCH   1  19
ATOM     19  C   UNL     1       0.484  -4.888  -1.223  0.00  0.00    +0.228 C 
BRANCH  19  20
ATOM     20  C   UNL     1       1.985  -5.024  -1.222  0.00  0.00    +0.251 C 
ATOM     21  O   UNL     1       2.635  -4.564  -0.307  0.00  0.00    -0.272 OA
ATOM     22  N   UNL     1       2.605  -5.656  -2.238  0.00  0.00    -0.206 N 
ATOM     23  H   UNL     1       2.086  -6.023  -2.970  0.00  0.00    +0.177 HD
BRANCH  22  24
ATOM     24  N   UNL     1       4.001  -5.782  -2.237  0.00  0.00    -0.188 NA
ATOM     25  C   UNL     1       4.598  -6.391  -3.215  0.00  0.00    +0.138 C 
BRANCH  25  26
ATOM     26  C   UNL     1       6.066  -6.524  -3.214  0.00  0.00    -0.002 A 
ATOM     27  C   UNL     1       6.816  -6.000  -2.158  0.00  0.00    +0.013 A 
ATOM     28  C   UNL     1       8.189  -6.125  -2.158  0.00  0.00    +0.050 A 
ATOM     29  C   UNL     1       8.829  -6.770  -3.206  0.00  0.00    +0.158 A 
ATOM     30  C   UNL     1       8.088  -7.295  -4.263  0.00  0.00    +0.162 A 
ATOM     31  C   UNL     1       6.711  -7.179  -4.266  0.00  0.00    +0.058 A 
BRANCH  30  32
ATOM     32  O   UNL     1       8.720  -7.926  -5.289  0.00  0.00    -0.491 OA
ATOM     33  C   UNL     1       7.898  -8.440  -6.339  0.00  0.00    +0.277 C 
ENDBRANCH  30  32
BRANCH  29  34
ATOM     34  O   UNL     1      10.184  -6.890  -3.203  0.00  0.00    -0.503 OA
ATOM     35  H   UNL     1      10.506  -7.693  -2.771  0.00  0.00    +0.292 HD
ENDBRANCH  29  34
ENDBRANCH  25  26
ENDBRANCH  22  24
ENDBRANCH  19  20
ENDBRANCH   1  19
TORSDOF 9
