REMARK  Name = ZINC13148480
REMARK  4 active torsions:
REMARK  status: ('A' for Active; 'I' for Inactive)
REMARK    1  A    between atoms: C_4  and  C_7
REMARK    2  A    between atoms: C_9  and  C_17
REMARK    3  A    between atoms: N_19  and  N_20
REMARK    4  A    between atoms: C_21  and  C_23
REMARK                            x       y       z     vdW  Elec       q    Type
REMARK                         _______ _______ _______ _____ _____    ______ ____
ROOT
ATOM      1  C   UNL     1       7.237   0.101  -0.092  0.00  0.00    +0.261 C 
ATOM      2  O   UNL     1       7.207   1.316  -0.068  0.00  0.00    -0.269 OA
ATOM      3  N   UNL     1       6.087  -0.602  -0.097  0.00  0.00    -0.230 N 
ATOM      4  H   UNL     1       6.112  -1.571  -0.115  0.00  0.00    +0.173 HD
ENDROOT
BRANCH   1   7
ATOM      5  C   UNL     1       9.862  -2.617  -0.050  0.00  0.00    +0.072 A 
ATOM      6  C   UNL     1       8.607  -1.988  -0.024  0.00  0.00    +0.042 A 
ATOM      7  C   UNL     1       8.536  -0.606  -0.115  0.00  0.00    +0.049 A 
ATOM      8  C   UNL     1       9.798   0.125  -0.240  0.00  0.00    +0.013 A 
ATOM      9  C   UNL     1       9.829   1.521  -0.331  0.00  0.00    +0.011 A 
ATOM     10  C   UNL     1      11.027   2.162  -0.442  0.00  0.00    +0.001 A 
ATOM     11  C   UNL     1      12.221   1.445  -0.459  0.00  0.00    +0.002 A 
ATOM     12  C   UNL     1      12.228   0.088  -0.366  0.00  0.00    +0.028 A 
ATOM     13  C   UNL     1      11.010  -0.610  -0.251  0.00  0.00    +0.072 A 
ATOM     14  N   UNL     1      10.985  -1.940  -0.159  0.00  0.00    -0.247 NA
BRANCH   5  18
ATOM     15  C   UNL     1      10.039  -6.855   0.230  0.00  0.00    +0.000 A 
ATOM     16  C   UNL     1      11.207  -6.123   0.115  0.00  0.00    +0.001 A 
ATOM     17  C   UNL     1      11.155  -4.747   0.023  0.00  0.00    +0.010 A 
ATOM     18  C   UNL     1       9.924  -4.095   0.047  0.00  0.00    +0.000 A 
ATOM     19  C   UNL     1       8.750  -4.838   0.168  0.00  0.00    +0.010 A 
ATOM     20  C   UNL     1       8.814  -6.214   0.254  0.00  0.00    +0.001 A 
ENDBRANCH   5  18
ENDBRANCH   1   7
BRANCH   3  21
ATOM     21  N   UNL     1       4.857   0.067  -0.075  0.00  0.00    -0.230 N 
ATOM     22  C   UNL     1       3.707  -0.636  -0.080  0.00  0.00    +0.260 C 
ATOM     23  O   UNL     1       3.738  -1.851  -0.103  0.00  0.00    -0.269 OA
ATOM     24  H   UNL     1       4.832   1.037  -0.056  0.00  0.00    +0.173 HD
BRANCH  22  25
ATOM     25  C   UNL     1       2.412   0.069  -0.057  0.00  0.00    +0.040 A 
ATOM     26  C   UNL     1       2.378   1.466  -0.030  0.00  0.00    +0.014 A 
ATOM     27  C   UNL     1       1.167   2.121  -0.011  0.00  0.00    +0.017 A 
ATOM     28  C   UNL     1      -0.017   1.395  -0.019  0.00  0.00    +0.030 A 
ATOM     29  C   UNL     1       0.002  -0.004  -0.041  0.00  0.00    +0.048 A 
ATOM     30  C   UNL     1       1.221  -0.661  -0.062  0.00  0.00    +0.037 A 
ATOM     31  N   UNL     1      -1.176  -0.747  -0.037  0.00  0.00    -0.284 N 
ATOM     32  C   UNL     1      -2.378  -0.320  -0.415  0.00  0.00    +0.227 C 
ATOM     33  O   UNL     1      -3.306  -1.100  -0.362  0.00  0.00    -0.275 OA
ATOM     34  C   UNL     1      -2.650   1.076  -0.904  0.00  0.00    +0.170 C 
ATOM     35  S   UNL     1      -1.572   2.232  -0.007  0.00  0.00    -0.114 S 
ATOM     36  H   UNL     1      -1.113  -1.665   0.270  0.00  0.00    +0.155 HD
ENDBRANCH  22  25
ENDBRANCH   3  21
TORSDOF 4
