REMARK  Name = ZINC44556790
REMARK  6 active torsions:
REMARK  status: ('A' for Active; 'I' for Inactive)
REMARK    1  A    between atoms: C_1  and  O_2
REMARK    2  A    between atoms: O_2  and  C_3
REMARK    3  A    between atoms: C_4  and  S_11
REMARK    4  A    between atoms: S_11  and  N_14
REMARK    5  A    between atoms: C_19  and  C_21
REMARK    6  A    between atoms: C_21  and  N_22
REMARK                            x       y       z     vdW  Elec       q    Type
REMARK                         _______ _______ _______ _____ _____    ______ ____
ROOT
ATOM      1  S   UNL     1      -2.038  -0.516  -2.347  0.00  0.00    +0.065 S 
ATOM      2  O   UNL     1      -2.017  -1.116  -3.635  0.00  0.00    -0.153 OA
ATOM      3  O   UNL     1      -0.869   0.006  -1.730  0.00  0.00    -0.153 OA
ENDROOT
BRANCH   1   5
ATOM      4  C   UNL     1      -4.440   0.607  -3.012  0.00  0.00    +0.160 A 
ATOM      5  C   UNL     1      -3.199   0.807  -2.426  0.00  0.00    +0.149 A 
ATOM      6  C   UNL     1      -2.873   2.044  -1.905  0.00  0.00    +0.052 A 
ATOM      7  C   UNL     1      -3.785   3.084  -1.966  0.00  0.00    +0.044 A 
ATOM      8  C   UNL     1      -5.024   2.887  -2.550  0.00  0.00    +0.039 A 
ATOM      9  C   UNL     1      -5.351   1.652  -3.078  0.00  0.00    +0.063 A 
ATOM     10 BR   UNL     1      -7.041   1.384  -3.883  0.00  0.00    -0.046 Br
ATOM     11 CL   UNL     1      -3.374   4.637  -1.308  0.00  0.00    -0.083 Cl
BRANCH   4  13
ATOM     12  C   UNL     1      -4.585  -0.787  -4.933  0.00  0.00    +0.277 C 
ATOM     13  O   UNL     1      -4.761  -0.610  -3.526  0.00  0.00    -0.492 OA
ENDBRANCH   4  13
ENDBRANCH   1   5
BRANCH   1  14
ATOM     14  N   UNL     1      -2.655  -1.647  -1.307  0.00  0.00    -0.175 NA
ATOM     15  C   UNL     1      -3.314  -2.856  -1.822  0.00  0.00    +0.110 C 
ATOM     16  C   UNL     1      -2.655  -4.085  -1.188  0.00  0.00    +0.017 C 
ATOM     17  C   UNL     1      -2.692  -3.949   0.336  0.00  0.00    +0.003 C 
ATOM     18  C   UNL     1      -1.904  -2.707   0.758  0.00  0.00    +0.019 C 
ATOM     19  C   UNL     1      -2.550  -1.465   0.147  0.00  0.00    +0.062 C 
BRANCH  19  20
ATOM     20  C   UNL     1      -1.685  -0.239   0.449  0.00  0.00    -0.066 C 
BRANCH  20  21
ATOM     21  N   UNL     1      -1.750   0.064   1.885  0.00  0.00    +0.379 N 
ATOM     22  H   UNL     1      -2.713   0.168   2.164  0.00  0.00    -0.090 HD
ATOM     23  H   UNL     1      -1.328  -0.690   2.406  0.00  0.00    -0.090 HD
ATOM     24  H   UNL     1      -1.251   0.921   2.070  0.00  0.00    -0.090 HD
ENDBRANCH  20  21
ENDBRANCH  19  20
ENDBRANCH   1  14
TORSDOF 5
