REMARK  Name = ZINC22054555
REMARK  10 active torsions:
REMARK  status: ('A' for Active; 'I' for Inactive)
REMARK    1  A    between atoms: C_1  and  C_2
REMARK    2  A    between atoms: C_2  and  C_4
REMARK    3  A    between atoms: C_2  and  S_15
REMARK    4  A    between atoms: N_6  and  C_7
REMARK    5  A    between atoms: C_12  and  S_13
REMARK    6  A    between atoms: S_13  and  C_14
REMARK    7  A    between atoms: S_15  and  C_16
REMARK    8  A    between atoms: C_19  and  C_28
REMARK    9  A    between atoms: N_20  and  C_21
REMARK   10  A    between atoms: C_21  and  C_22
REMARK                            x       y       z     vdW  Elec       q    Type
REMARK                         _______ _______ _______ _____ _____    ______ ____
ROOT
ATOM      1  C   UNL     1      -4.486  -0.014   0.023  0.00  0.00    +0.193 A 
ATOM      2  N   UNL     1      -4.853   1.241   0.132  0.00  0.00    -0.122 NA
ATOM      3  N   UNL     1      -3.818   2.002   0.184  0.00  0.00    -0.128 NA
ATOM      4  C   UNL     1      -2.725   1.278   0.111  0.00  0.00    +0.167 A 
ATOM      5  N   UNL     1      -3.118  -0.036   0.001  0.00  0.00    -0.300 N 
ENDROOT
BRANCH   4   6
ATOM      6  C   UNL     1      -1.336   1.779   0.137  0.00  0.00    +0.044 A 
ATOM      7  C   UNL     1      -0.301   1.341  -0.625  0.00  0.00    +0.095 A 
ATOM      8  N   UNL     1       0.826   2.050  -0.323  0.00  0.00    -0.360 N 
ATOM      9  H   UNL     1       1.768   1.834  -0.848  0.00  0.00    +0.165 HD
ATOM     10  C   UNL     1       0.555   2.977   0.660  0.00  0.00    +0.047 A 
ATOM     11  C   UNL     1      -0.803   2.850   0.996  0.00  0.00    +0.010 A 
ATOM     12  C   UNL     1      -1.359   3.672   1.975  0.00  0.00    +0.011 A 
ATOM     13  C   UNL     1      -0.572   4.606   2.609  0.00  0.00    +0.001 A 
ATOM     14  C   UNL     1       0.770   4.733   2.278  0.00  0.00    +0.002 A 
ATOM     15  C   UNL     1       1.334   3.927   1.313  0.00  0.00    +0.026 A 
ENDBRANCH   4   6
BRANCH   1  16
ATOM     16  S   UNL     1      -5.555  -1.410  -0.081  0.00  0.00    -0.074 S 
BRANCH  16  18
ATOM     17  C   UNL     1      -7.320   0.082   1.375  0.00  0.00    +0.029 C 
ATOM     18  C   UNL     1      -7.162  -0.582   0.006  0.00  0.00    +0.137 C 
BRANCH  18  19
ATOM     19  C   UNL     1      -8.261  -1.595  -0.191  0.00  0.00    +0.230 C 
ATOM     20  O   UNL     1      -8.064  -2.762   0.076  0.00  0.00    -0.274 OA
ATOM     21  N   UNL     1      -9.461  -1.205  -0.663  0.00  0.00    -0.284 N 
ATOM     22  H   UNL     1      -9.611  -0.167  -0.994  0.00  0.00    +0.155 HD
BRANCH  21  23
ATOM     23  C   UNL     1     -10.519  -2.121  -0.731  0.00  0.00    +0.047 A 
ATOM     24  C   UNL     1     -10.539  -3.224   0.109  0.00  0.00    +0.024 A 
ATOM     25  C   UNL     1     -11.586  -4.125   0.043  0.00  0.00    +0.002 A 
ATOM     26  C   UNL     1     -12.611  -3.935  -0.866  0.00  0.00    +0.001 A 
ATOM     27  C   UNL     1     -12.597  -2.842  -1.711  0.00  0.00    +0.016 A 
ATOM     28  C   UNL     1     -11.553  -1.930  -1.649  0.00  0.00    +0.029 A 
BRANCH  28  29
ATOM     29  S   UNL     1     -11.532  -0.535  -2.724  0.00  0.00    -0.127 S 
ATOM     30  C   UNL     1     -13.046  -0.716  -3.708  0.00  0.00    +0.090 C 
ENDBRANCH  28  29
ENDBRANCH  21  23
ENDBRANCH  18  19
ENDBRANCH  16  18
ENDBRANCH   1  16
BRANCH   5  31
ATOM     31  C   UNL     1      -2.253  -1.213  -0.115  0.00  0.00    +0.157 C 
BRANCH  31  32
ATOM     32  C   UNL     1      -2.030  -1.819   1.272  0.00  0.00    +0.138 C 
ATOM     33  C   UNL     1      -1.024  -2.986   1.177  0.00  0.00    +0.035 C 
ATOM     34  C   UNL     1      -1.628  -4.022   2.167  0.00  0.00    +0.031 C 
ATOM     35  C   UNL     1      -3.144  -3.766   1.973  0.00  0.00    +0.160 C 
ATOM     36  O   UNL     1      -3.262  -2.348   1.775  0.00  0.00    -0.375 OA
ENDBRANCH  31  32
ENDBRANCH   5  31
TORSDOF 8
