REMARK  Name = ZINC09033394
REMARK  7 active torsions:
REMARK  status: ('A' for Active; 'I' for Inactive)
REMARK    1  A    between atoms: C_3  and  N_29
REMARK    2  A    between atoms: C_6  and  C_7
REMARK    3  A    between atoms: N_9  and  C_10
REMARK    4  A    between atoms: C_10  and  C_12
REMARK    5  A    between atoms: C_10  and  O_16
REMARK    6  A    between atoms: O_16  and  C_17
REMARK    7  A    between atoms: C_17  and  C_18
REMARK                            x       y       z     vdW  Elec       q    Type
REMARK                         _______ _______ _______ _____ _____    ______ ____
ROOT
ATOM      1  C   UNL     1      -2.449   1.120   0.020  0.00  0.00    +0.257 C 
ENDROOT
BRANCH   1   4
ATOM      2  C   UNL     1      -0.014   1.211   0.009  0.00  0.00    +0.246 C 
ATOM      3  O   UNL     1       0.002  -0.004   0.002  0.00  0.00    -0.270 OA
ATOM      4  N   UNL     1      -1.191   1.869   0.018  0.00  0.00    -0.283 N 
ATOM      5  H   UNL     1      -1.204   2.839   0.023  0.00  0.00    +0.152 HD
BRANCH   2  11
ATOM      6  C   UNL     1       1.240   3.364   0.003  0.00  0.00    +0.015 A 
ATOM      7  C   UNL     1       2.429   4.064   0.001  0.00  0.00    +0.033 A 
ATOM      8  C   UNL     1       3.635   3.385  -0.015  0.00  0.00    +0.126 A 
ATOM      9  C   UNL     1       3.657   2.002  -0.022  0.00  0.00    +0.033 A 
ATOM     10  C   UNL     1       2.475   1.290  -0.015  0.00  0.00    +0.015 A 
ATOM     11  C   UNL     1       1.256   1.968   0.001  0.00  0.00    +0.037 A 
BRANCH   8  12
ATOM     12  N   UNL     1       4.907   4.143  -0.023  0.00  0.00    +0.056 N 
ATOM     13  O   UNL     1       5.969   3.548  -0.037  0.00  0.00    -0.126 OA
ATOM     14  O   UNL     1       4.890   5.360  -0.017  0.00  0.00    -0.126 OA
ENDBRANCH   8  12
ENDBRANCH   2  11
ENDBRANCH   1   4
BRANCH   1  15
ATOM     15  C   UNL     1      -3.488   1.869   0.856  0.00  0.00    +0.233 C 
ATOM     16 CL   UNL     1      -5.037   0.947   0.859  0.00  0.00    -0.079 Cl
ATOM     17 CL   UNL     1      -2.888   2.040   2.548  0.00  0.00    -0.079 Cl
ATOM     18 CL   UNL     1      -3.764   3.504   0.148  0.00  0.00    -0.079 Cl
ENDBRANCH   1  15
BRANCH   1  19
ATOM     19  O   UNL     1      -2.925   0.984  -1.321  0.00  0.00    -0.354 OA
BRANCH  19  20
ATOM     20  C   UNL     1      -2.208   0.022  -2.098  0.00  0.00    +0.164 C 
BRANCH  20  21
ATOM     21  C   UNL     1      -2.800  -0.038  -3.507  0.00  0.00    +0.001 C 
ATOM     22  C   UNL     1      -4.234  -0.565  -3.434  0.00  0.00    +0.002 C 
ATOM     23  C   UNL     1      -4.207  -1.987  -2.864  0.00  0.00    -0.018 C 
ATOM     24  C   UNL     1      -3.341  -2.864  -3.768  0.00  0.00    -0.078 C 
ATOM     25  C   UNL     1      -1.949  -0.969  -4.377  0.00  0.00    -0.063 C 
ATOM     26  C   UNL     1      -0.514  -0.431  -4.386  0.00  0.00    -0.015 C 
ATOM     27  C   UNL     1       0.383  -1.357  -5.209  0.00  0.00    -0.003 C 
ATOM     28  C   UNL     1       0.322  -2.764  -4.605  0.00  0.00    -0.019 C 
ATOM     29  C   UNL     1      -1.129  -3.243  -4.618  0.00  0.00    -0.078 C 
ATOM     30  N   UNL     1      -1.963  -2.340  -3.807  0.00  0.00    +0.382 N 
ATOM     31  H   UNL     1      -1.589  -2.305  -2.851  0.00  0.00    -0.081 HD
ENDBRANCH  20  21
ENDBRANCH  19  20
ENDBRANCH   1  19
TORSDOF 7
