REMARK  Name = ZINC14787719
REMARK  4 active torsions:
REMARK  status: ('A' for Active; 'I' for Inactive)
REMARK    1  A    between atoms: N_10  and  C_13
REMARK    2  A    between atoms: C_13  and  C_14
REMARK    3  A    between atoms: C_14  and  N_16
REMARK    4  A    between atoms: C_19  and  C_22
REMARK                            x       y       z     vdW  Elec       q    Type
REMARK                         _______ _______ _______ _____ _____    ______ ____
ROOT
ATOM      1  C   UNL     1       6.972  -3.930  -1.716  0.00  0.00    +0.252 C 
ATOM      2  O   UNL     1       6.419  -4.459  -0.771  0.00  0.00    -0.272 OA
ENDROOT
BRANCH   1   3
ATOM      3  N   UNL     1       7.810  -4.629  -2.471  0.00  0.00    -0.155 NA
ATOM      4  C   UNL     1       8.046  -5.913  -2.192  0.00  0.00    +0.163 A 
ATOM      5  N   UNL     1       8.868  -6.778  -2.843  0.00  0.00    -0.335 N 
ATOM      6  C   UNL     1       8.965  -8.063  -2.390  0.00  0.00    +0.058 A 
ATOM      7  C   UNL     1       8.222  -8.385  -1.307  0.00  0.00    +0.074 A 
ATOM      8  S   UNL     1       7.402  -6.843  -0.950  0.00  0.00    -0.060 S 
ATOM      9  H   UNL     1       9.377  -6.488  -3.617  0.00  0.00    +0.168 HD
BRANCH   6  10
ATOM     10  C   UNL     1       9.841  -9.055  -3.052  0.00  0.00    +0.037 A 
ATOM     11  C   UNL     1      10.598  -8.688  -4.164  0.00  0.00    +0.051 A 
ATOM     12  C   UNL     1      11.415  -9.619  -4.778  0.00  0.00    +0.124 A 
ATOM     13  C   UNL     1      11.481 -10.914  -4.291  0.00  0.00    +0.041 A 
ATOM     14  C   UNL     1      10.733 -11.284  -3.188  0.00  0.00    +0.042 A 
ATOM     15  C   UNL     1       9.917 -10.361  -2.562  0.00  0.00    +0.133 A 
ATOM     16  F   UNL     1       9.190 -10.722  -1.482  0.00  0.00    -0.205 F 
ATOM     17  F   UNL     1      12.149  -9.265  -5.855  0.00  0.00    -0.205 F 
ENDBRANCH   6  10
ENDBRANCH   1   3
BRANCH   1  18
ATOM     18  C   UNL     1       6.706  -2.480  -2.030  0.00  0.00    +0.182 C 
BRANCH  18  28
ATOM     19  C   UNL     1      -0.017   1.382   0.010  0.00  0.00    +0.039 A 
ATOM     20  C   UNL     1       1.192   2.061   0.002  0.00  0.00    +0.116 A 
ATOM     21  N   UNL     1       2.320   1.371  -0.013  0.00  0.00    -0.223 NA
ATOM     22  C   UNL     1       2.303   0.046  -0.020  0.00  0.00    +0.218 A 
ATOM     23  N   UNL     1       1.165  -0.633  -0.013  0.00  0.00    -0.223 NA
ATOM     24  C   UNL     1       0.002  -0.004   0.002  0.00  0.00    +0.116 A 
ATOM     25  N   UNL     1       3.502  -0.645  -0.035  0.00  0.00    -0.297 N 
ATOM     26  C   UNL     1       4.786   0.072  -0.037  0.00  0.00    +0.123 C 
ATOM     27  C   UNL     1       5.647  -0.475  -1.181  0.00  0.00    +0.104 C 
ATOM     28  N   UNL     1       5.751  -1.935  -1.056  0.00  0.00    -0.291 NA
ATOM     29  C   UNL     1       4.437  -2.576  -1.192  0.00  0.00    +0.104 C 
ATOM     30  C   UNL     1       3.526  -2.116  -0.043  0.00  0.00    +0.123 C 
ENDBRANCH  18  28
ENDBRANCH   1  18
TORSDOF 4
