REMARK  Name = ZINC39914807
REMARK  9 active torsions:
REMARK  status: ('A' for Active; 'I' for Inactive)
REMARK    1  A    between atoms: C_1  and  C_2
REMARK    2  A    between atoms: C_4  and  O_37
REMARK    3  A    between atoms: C_5  and  C_9
REMARK    4  A    between atoms: N_17  and  C_29
REMARK    5  A    between atoms: C_18  and  C_20
REMARK    6  A    between atoms: C_23  and  C_26
REMARK    7  A    between atoms: C_26  and  C_27
REMARK    8  A    between atoms: C_26  and  C_28
REMARK    9  A    between atoms: C_29  and  C_30
REMARK                            x       y       z     vdW  Elec       q    Type
REMARK                         _______ _______ _______ _____ _____    ______ ____
ROOT
ATOM      1  C   UNL     1      -0.188  -4.644  -0.085  0.00  0.00    +0.102 A 
ATOM      2  C   UNL     1       0.061  -5.304   1.123  0.00  0.00    +0.035 A 
ATOM      3  C   UNL     1       0.107  -6.650   0.813  0.00  0.00    +0.126 A 
ATOM      4  N   UNL     1      -0.111  -6.738  -0.532  0.00  0.00    -0.272 N 
ATOM      5  H   UNL     1      -0.136  -7.564  -1.040  0.00  0.00    +0.189 HD
ATOM      6  N   UNL     1      -0.284  -5.563  -1.025  0.00  0.00    -0.173 NA
ATOM      7  C   UNL     1       0.366  -7.404   2.045  0.00  0.00    +0.266 C 
ATOM      8  O   UNL     1       0.465  -8.614   2.111  0.00  0.00    -0.268 OA
ATOM      9  N   UNL     1       0.479  -6.566   3.092  0.00  0.00    -0.281 N 
ATOM     10  C   UNL     1       0.299  -5.193   2.604  0.00  0.00    +0.142 C 
ENDROOT
BRANCH   1  15
ATOM     11  C   UNL     1      -0.719   1.050  -0.809  0.00  0.00    +0.045 C 
ATOM     12  C   UNL     1      -0.582  -0.439  -0.621  0.00  0.00    -0.029 A 
ATOM     13  C   UNL     1      -1.506  -1.293  -1.194  0.00  0.00    +0.050 A 
ATOM     14  C   UNL     1      -1.385  -2.662  -1.024  0.00  0.00    +0.126 A 
ATOM     15  C   UNL     1      -0.325  -3.178  -0.272  0.00  0.00    +0.045 A 
ATOM     16  C   UNL     1       0.602  -2.310   0.300  0.00  0.00    +0.034 A 
ATOM     17  C   UNL     1       0.472  -0.947   0.118  0.00  0.00    +0.045 A 
ATOM     18 CL   UNL     1       1.632   0.134   0.827  0.00  0.00    -0.083 Cl
BRANCH  14  19
ATOM     19  O   UNL     1      -2.294  -3.502  -1.585  0.00  0.00    -0.506 OA
ATOM     20  H   UNL     1      -2.063  -3.792  -2.478  0.00  0.00    +0.292 HD
ENDBRANCH  14  19
ENDBRANCH   1  15
BRANCH  10  21
ATOM     21  C   UNL     1      -0.891  -4.556   3.274  0.00  0.00    -0.022 A 
ATOM     22  C   UNL     1      -2.046  -5.289   3.472  0.00  0.00    +0.006 A 
ATOM     23  C   UNL     1      -3.138  -4.705   4.087  0.00  0.00    +0.004 A 
ATOM     24  C   UNL     1      -3.074  -3.389   4.504  0.00  0.00    -0.045 A 
ATOM     25  C   UNL     1      -1.919  -2.656   4.307  0.00  0.00    +0.004 A 
ATOM     26  C   UNL     1      -0.825  -3.241   3.696  0.00  0.00    +0.006 A 
BRANCH  24  27
ATOM     27  C   UNL     1      -4.265  -2.752   5.173  0.00  0.00    +0.013 C 
ATOM     28  C   UNL     1      -3.874  -2.293   6.580  0.00  0.00    +0.012 C 
ATOM     29  C   UNL     1      -4.727  -1.546   4.353  0.00  0.00    +0.012 C 
ENDBRANCH  24  27
ENDBRANCH  10  21
BRANCH   9  30
ATOM     30  C   UNL     1       0.738  -6.957   4.480  0.00  0.00    +0.145 C 
BRANCH  30  31
ATOM     31  C   UNL     1       2.225  -6.990   4.724  0.00  0.00    -0.012 A 
ATOM     32  C   UNL     1       2.902  -8.195   4.703  0.00  0.00    +0.006 A 
ATOM     33  C   UNL     1       4.266  -8.225   4.926  0.00  0.00    +0.000 A 
ATOM     34  C   UNL     1       4.953  -7.050   5.171  0.00  0.00    +0.001 A 
ATOM     35  C   UNL     1       4.277  -5.845   5.193  0.00  0.00    +0.020 A 
ATOM     36  C   UNL     1       2.913  -5.814   4.963  0.00  0.00    +0.046 A 
ATOM     37 CL   UNL     1       2.063  -4.300   4.983  0.00  0.00    -0.083 Cl
ENDBRANCH  30  31
ENDBRANCH   9  30
TORSDOF 6
