REMARK  Name = ZINC05788487
REMARK  6 active torsions:
REMARK  status: ('A' for Active; 'I' for Inactive)
REMARK    1  A    between atoms: C_3  and  O_9
REMARK    2  A    between atoms: C_6  and  C_7
REMARK    3  A    between atoms: O_9  and  C_10
REMARK    4  A    between atoms: C_10  and  C_11
REMARK    5  A    between atoms: N_13  and  N_14
REMARK    6  A    between atoms: C_20  and  C_22
REMARK                            x       y       z     vdW  Elec       q    Type
REMARK                         _______ _______ _______ _____ _____    ______ ____
ROOT
ATOM      1  C   UNL     1       0.486   2.526   4.320  0.00  0.00    +0.270 C 
ATOM      2  O   UNL     1       0.945   3.613   4.037  0.00  0.00    -0.270 OA
ATOM      3  N   UNL     1      -0.071   1.760   3.361  0.00  0.00    -0.204 N 
ATOM      4  H   UNL     1      -0.372   0.863   3.572  0.00  0.00    +0.177 HD
ENDROOT
BRANCH   3   5
ATOM      5  N   UNL     1      -0.217   2.260   2.061  0.00  0.00    -0.189 NA
ATOM      6  C   UNL     1      -0.861   1.586   1.184  0.00  0.00    +0.040 C 
ATOM      7  C   UNL     1      -0.384   1.523  -0.250  0.00  0.00    +0.053 C 
ATOM      8  C   UNL     1      -1.553   1.886  -1.172  0.00  0.00    +0.006 C 
ATOM      9  C   UNL     1      -2.743   0.974  -0.867  0.00  0.00    +0.001 C 
ATOM     10  C   UNL     1      -3.229   1.217   0.562  0.00  0.00    +0.010 C 
ATOM     11  C   UNL     1      -2.123   0.830   1.550  0.00  0.00    +0.038 C 
BRANCH  11  12
ATOM     12  C   UNL     1      -2.552   1.197   2.971  0.00  0.00    -0.002 C 
ATOM     13  C   UNL     1      -3.886   0.521   3.293  0.00  0.00    +0.004 C 
ATOM     14  C   UNL     1      -4.315   0.889   4.715  0.00  0.00    +0.000 C 
ATOM     15  C   UNL     1      -4.473   2.406   4.823  0.00  0.00    +0.000 C 
ATOM     16  C   UNL     1      -3.139   3.083   4.502  0.00  0.00    +0.000 C 
ATOM     17  C   UNL     1      -2.711   2.715   3.080  0.00  0.00    +0.004 C 
ENDBRANCH  11  12
ENDBRANCH   3   5
BRANCH   1  18
ATOM     18  C   UNL     1       0.541   2.033   5.743  0.00  0.00    +0.326 C 
BRANCH  18  19
ATOM     19  O   UNL     1       1.066   3.061   6.584  0.00  0.00    -0.483 OA
BRANCH  19  22
ATOM     20  C   UNL     1       1.805   3.449  10.122  0.00  0.00    +0.022 A 
ATOM     21  C   UNL     1       1.686   3.734   8.779  0.00  0.00    +0.047 A 
ATOM     22  C   UNL     1       1.182   2.777   7.906  0.00  0.00    +0.121 A 
ATOM     23  C   UNL     1       0.791   1.532   8.384  0.00  0.00    +0.047 A 
ATOM     24  C   UNL     1       0.912   1.237   9.724  0.00  0.00    +0.022 A 
ATOM     25  C   UNL     1       1.418   2.196  10.605  0.00  0.00    +0.052 A 
BRANCH  25  26
ATOM     26  C   UNL     1       1.540   1.897  12.000  0.00  0.00    +0.099 C 
ATOM     27  N   UNL     1       1.636   1.659  13.107  0.00  0.00    -0.191 NA
ENDBRANCH  25  26
ENDBRANCH  19  22
ENDBRANCH  18  19
ENDBRANCH   1  18
TORSDOF 6
