REMARK  Name = ZINC20296001
REMARK  12 active torsions:
REMARK  status: ('A' for Active; 'I' for Inactive)
REMARK    1  A    between atoms: C_1  and  C_2
REMARK    2  A    between atoms: C_3  and  C_7
REMARK    3  A    between atoms: N_9  and  C_10
REMARK    4  A    between atoms: C_13  and  C_16
REMARK    5  A    between atoms: C_16  and  C_32
REMARK    6  A    between atoms: N_17  and  N_18
REMARK    7  A    between atoms: N_18  and  S_19
REMARK    8  A    between atoms: S_19  and  C_22
REMARK    9  A    between atoms: C_25  and  C_28
REMARK   10  A    between atoms: C_28  and  C_29
REMARK   11  A    between atoms: C_29  and  C_30
REMARK   12  A    between atoms: C_29  and  C_31
REMARK                            x       y       z     vdW  Elec       q    Type
REMARK                         _______ _______ _______ _____ _____    ______ ____
ROOT
ATOM      1  C   UNL     1      -2.112   8.569   4.793  0.00  0.00    +0.065 C 
ATOM      2  N   UNL     1      -1.503   8.205   3.707  0.00  0.00    -0.171 NA
ATOM      3  C   UNL     1      -3.431   9.293   4.709  0.00  0.00    +0.068 C 
ENDROOT
BRANCH   1   7
ATOM      4  C   UNL     1      -0.392   7.723   8.581  0.00  0.00    +0.034 A 
ATOM      5  C   UNL     1       0.264   7.332   7.419  0.00  0.00    +0.024 A 
ATOM      6  C   UNL     1      -0.292   7.604   6.188  0.00  0.00    +0.011 A 
ATOM      7  C   UNL     1      -1.515   8.276   6.108  0.00  0.00    -0.002 A 
ATOM      8  C   UNL     1      -2.167   8.673   7.279  0.00  0.00    +0.011 A 
ATOM      9  C   UNL     1      -1.609   8.390   8.506  0.00  0.00    +0.024 A 
BRANCH   4  12
ATOM     10  C   UNL     1       0.030   8.317  10.845  0.00  0.00    +0.252 C 
ATOM     11  O   UNL     1      -0.662   9.307  10.702  0.00  0.00    -0.270 OA
ATOM     12  N   UNL     1       0.175   7.444   9.828  0.00  0.00    -0.281 N 
ATOM     13  H   UNL     1       0.738   6.511   9.980  0.00  0.00    +0.155 HD
BRANCH  10  16
ATOM     14  C   UNL     1      -0.099  10.143  13.393  0.00  0.00    +0.087 C 
ATOM     15  C   UNL     1       0.667   8.853  13.246  0.00  0.00    +0.114 A 
ATOM     16  C   UNL     1       0.711   8.073  12.128  0.00  0.00    +0.078 A 
ATOM     17  C   UNL     1       1.574   6.934  12.474  0.00  0.00    +0.054 A 
ATOM     18  C   UNL     1       1.966   7.140  13.741  0.00  0.00    +0.196 A 
ATOM     19  O   UNL     1       1.420   8.280  14.191  0.00  0.00    -0.467 OA
ENDBRANCH  10  16
ENDBRANCH   4  12
ENDBRANCH   1   7
BRANCH   2  20
ATOM     20  N   UNL     1      -2.070   8.484   2.457  0.00  0.00    -0.136 N 
ATOM     21  H   UNL     1      -2.919   8.950   2.403  0.00  0.00    +0.197 HD
BRANCH  20  22
ATOM     22  S   UNL     1      -1.292   8.018   1.071  0.00  0.00    +0.086 S 
ATOM     23  O   UNL     1       0.023   8.552   1.145  0.00  0.00    -0.149 OA
ATOM     24  O   UNL     1      -2.173   8.308  -0.006  0.00  0.00    -0.149 OA
BRANCH  22  25
ATOM     25  C   UNL     1      -1.128   6.265   1.130  0.00  0.00    +0.110 A 
ATOM     26  C   UNL     1      -2.119   5.460   0.600  0.00  0.00    +0.029 A 
ATOM     27  C   UNL     1      -1.990   4.084   0.646  0.00  0.00    +0.005 A 
ATOM     28  C   UNL     1      -0.870   3.514   1.222  0.00  0.00    -0.047 A 
ATOM     29  C   UNL     1       0.118   4.319   1.756  0.00  0.00    +0.005 A 
ATOM     30  C   UNL     1      -0.008   5.694   1.706  0.00  0.00    +0.029 A 
BRANCH  28  31
ATOM     31  C   UNL     1      -0.730   2.014   1.272  0.00  0.00    +0.038 C 
BRANCH  31  32
ATOM     32  C   UNL     1      -0.015   1.526   0.010  0.00  0.00    -0.013 C 
ATOM     33  C   UNL     1       0.017  -0.004   0.001  0.00  0.00    +0.007 C 
ATOM     34  C   UNL     1       1.416   2.066  -0.006  0.00  0.00    +0.007 C 
ENDBRANCH  31  32
ENDBRANCH  28  31
ENDBRANCH  22  25
ENDBRANCH  20  22
ENDBRANCH   2  20
TORSDOF 8
