REMARK  Name = ZINC20356526
REMARK  4 active torsions:
REMARK  status: ('A' for Active; 'I' for Inactive)
REMARK    1  A    between atoms: C_3  and  O_25
REMARK    2  A    between atoms: C_6  and  C_7
REMARK    3  A    between atoms: O_25  and  C_26
REMARK    4  A    between atoms: C_26  and  C_27
REMARK                            x       y       z     vdW  Elec       q    Type
REMARK                         _______ _______ _______ _____ _____    ______ ____
ROOT
ATOM      1  C   UNL     1      -1.343  -0.832   0.193  0.00  0.00    +0.024 C 
ATOM      2  C   UNL     1      -1.268  -2.191  -0.017  0.00  0.00    +0.081 C 
ATOM      3  C   UNL     1       0.040  -2.898  -0.116  0.00  0.00    +0.153 C 
ATOM      4  N   UNL     1       1.104  -2.536   0.551  0.00  0.00    -0.283 NA
ATOM      5  N   UNL     1       0.017  -3.997  -0.999  0.00  0.00    -0.150 N 
ATOM      6  C   UNL     1      -1.203  -4.582  -1.254  0.00  0.00    +0.182 C 
ATOM      7  N   UNL     1      -2.382  -4.181  -0.848  0.00  0.00    -0.152 NA
ATOM      8  C   UNL     1      -2.484  -3.030  -0.151  0.00  0.00    +0.273 C 
ATOM      9  O   UNL     1      -3.543  -2.687   0.350  0.00  0.00    -0.268 OA
ATOM     10  S   UNL     1      -0.751  -5.964  -2.269  0.00  0.00    -0.018 S 
ATOM     11  C   UNL     1       1.000  -5.619  -2.370  0.00  0.00    +0.182 C 
ATOM     12  N   UNL     1       1.115  -4.548  -1.625  0.00  0.00    -0.149 NA
ATOM     13  N   UNL     1       1.984  -6.308  -3.060  0.00  0.00    -0.308 N 
ATOM     14  C   UNL     1       3.384  -5.864  -3.012  0.00  0.00    +0.107 C 
ATOM     15  C   UNL     1       4.261  -7.042  -2.576  0.00  0.00    +0.019 C 
ATOM     16  C   UNL     1       4.011  -8.230  -3.507  0.00  0.00    +0.003 C 
ATOM     17  C   UNL     1       2.545  -8.658  -3.409  0.00  0.00    +0.019 C 
ATOM     18  C   UNL     1       1.649  -7.501  -3.850  0.00  0.00    +0.107 C 
ATOM     19  H   UNL     1       1.932  -3.032   0.451  0.00  0.00    +0.188 HD
ENDROOT
BRANCH   1  25
ATOM     20  C   UNL     1       0.917  -0.359  -0.725  0.00  0.00    +0.011 A 
ATOM     21  C   UNL     1       2.046   0.407  -0.767  0.00  0.00    +0.046 A 
ATOM     22  C   UNL     1       2.161   1.528   0.050  0.00  0.00    +0.121 A 
ATOM     23  C   UNL     1       1.127   1.875   0.913  0.00  0.00    +0.046 A 
ATOM     24  C   UNL     1      -0.008   1.116   0.965  0.00  0.00    +0.011 A 
ATOM     25  C   UNL     1      -0.129  -0.015   0.144  0.00  0.00    -0.024 A 
BRANCH  22  26
ATOM     26  O   UNL     1       3.286   2.286   0.003  0.00  0.00    -0.487 OA
BRANCH  26  27
ATOM     27  C   UNL     1       3.338   3.422   0.868  0.00  0.00    +0.264 C 
BRANCH  27  28
ATOM     28  C   UNL     1       4.652   4.136   0.679  0.00  0.00    -0.007 A 
ATOM     29  C   UNL     1       5.745   3.783   1.448  0.00  0.00    +0.011 A 
ATOM     30  C   UNL     1       6.952   4.435   1.279  0.00  0.00    +0.050 A 
ATOM     31  C   UNL     1       7.069   5.445   0.337  0.00  0.00    +0.166 A 
ATOM     32  C   UNL     1       5.968   5.801  -0.437  0.00  0.00    +0.167 A 
ATOM     33  C   UNL     1       4.762   5.139  -0.266  0.00  0.00    +0.056 A 
ATOM     34  O   UNL     1       6.335   6.809  -1.280  0.00  0.00    -0.453 OA
ATOM     35  C   UNL     1       7.554   7.344  -0.732  0.00  0.00    +0.466 C 
ATOM     36  O   UNL     1       8.126   6.231  -0.021  0.00  0.00    -0.453 OA
ENDBRANCH  27  28
ENDBRANCH  26  27
ENDBRANCH  22  26
ENDBRANCH   1  25
TORSDOF 4
