REMARK  Name = ZINC14578856
REMARK  11 active torsions:
REMARK  status: ('A' for Active; 'I' for Inactive)
REMARK    1  A    between atoms: C_1  and  C_2
REMARK    2  A    between atoms: C_2  and  C_3
REMARK    3  A    between atoms: C_2  and  C_4
REMARK    4  A    between atoms: C_4  and  C_5
REMARK    5  A    between atoms: C_5  and  N_6
REMARK    6  A    between atoms: N_6  and  C_7
REMARK    7  A    between atoms: C_8  and  N_23
REMARK    8  A    between atoms: N_9  and  C_16
REMARK    9  A    between atoms: C_16  and  C_17
REMARK   10  A    between atoms: C_24  and  C_26
REMARK   11  A    between atoms: C_26  and  C_27
REMARK                            x       y       z     vdW  Elec       q    Type
REMARK                         _______ _______ _______ _____ _____    ______ ____
ROOT
ATOM      1  N   UNL     1      -5.287   4.982   2.536  0.00  0.00    -0.264 N 
ATOM      2  C   UNL     1      -4.438   4.730   1.518  0.00  0.00    +0.224 C 
ATOM      3  O   UNL     1      -4.668   5.174   0.413  0.00  0.00    -0.275 OA
ENDROOT
BRANCH   1   4
ATOM      4  C   UNL     1      -6.389   5.840   2.340  0.00  0.00    +0.140 A 
ATOM      5  C   UNL     1      -6.197   7.173   2.040  0.00  0.00    +0.128 A 
ATOM      6  N   UNL     1      -7.292   7.984   1.853  0.00  0.00    -0.276 N 
ATOM      7  C   UNL     1      -8.536   7.484   1.961  0.00  0.00    +0.331 A 
ATOM      8  O   UNL     1      -9.491   8.217   1.791  0.00  0.00    -0.246 OA
ATOM      9  N   UNL     1      -8.743   6.187   2.251  0.00  0.00    -0.273 N 
ATOM     10  H   UNL     1      -9.678   5.841   2.328  0.00  0.00    +0.173 HD
ATOM     11  C   UNL     1      -7.705   5.349   2.439  0.00  0.00    +0.277 A 
ATOM     12  O   UNL     1      -7.904   4.174   2.697  0.00  0.00    -0.266 OA
BRANCH   5  13
ATOM     13  N   UNL     1      -4.926   7.684   1.930  0.00  0.00    -0.343 N 
ATOM     14  H   UNL     1      -4.158   7.103   2.041  0.00  0.00    +0.144 HD
ATOM     15  H   UNL     1      -4.797   8.627   1.741  0.00  0.00    +0.144 HD
ENDBRANCH   5  13
BRANCH   6  16
ATOM     16  C   UNL     1      -7.102   9.402   1.535  0.00  0.00    +0.163 C 
BRANCH  16  17
ATOM     17  C   UNL     1      -7.032   9.576   0.040  0.00  0.00    -0.028 A 
ATOM     18  C   UNL     1      -5.812   9.511  -0.606  0.00  0.00    +0.005 A 
ATOM     19  C   UNL     1      -5.747   9.667  -1.978  0.00  0.00    +0.000 A 
ATOM     20  C   UNL     1      -6.902   9.896  -2.703  0.00  0.00    +0.000 A 
ATOM     21  C   UNL     1      -8.122   9.966  -2.056  0.00  0.00    +0.000 A 
ATOM     22  C   UNL     1      -8.187   9.806  -0.684  0.00  0.00    +0.005 A 
ENDBRANCH  16  17
ENDBRANCH   6  16
ENDBRANCH   1   4
BRANCH   1  23
ATOM     23  C   UNL     1      -5.063   4.365   3.846  0.00  0.00    +0.114 C 
BRANCH  23  24
ATOM     24  C   UNL     1      -4.171   5.275   4.693  0.00  0.00    +0.022 C 
BRANCH  24  26
ATOM     25  C   UNL     1      -2.947   5.477   6.862  0.00  0.00    +0.007 C 
ATOM     26  C   UNL     1      -3.938   4.630   6.061  0.00  0.00    -0.016 C 
ATOM     27  C   UNL     1      -5.265   4.546   6.818  0.00  0.00    +0.007 C 
ENDBRANCH  24  26
ENDBRANCH  23  24
ENDBRANCH   1  23
BRANCH   2  28
ATOM     28  C   UNL     1      -3.203   3.898   1.755  0.00  0.00    +0.145 C 
BRANCH  28  29
ATOM     29  C   UNL     1      -2.420   3.766   0.447  0.00  0.00    +0.216 C 
ATOM     30  C   UNL     1      -1.248   2.836   0.638  0.00  0.00    +0.007 A 
ATOM     31  C   UNL     1      -1.142   1.510   0.989  0.00  0.00    +0.008 A 
ATOM     32  C   UNL     1       0.107   0.919   1.090  0.00  0.00    +0.000 A 
ATOM     33  C   UNL     1       1.249   1.656   0.828  0.00  0.00    +0.001 A 
ATOM     34  C   UNL     1       1.154   2.985   0.470  0.00  0.00    +0.015 A 
ATOM     35  C   UNL     1      -0.101   3.589   0.372  0.00  0.00    +0.066 A 
ATOM     36  C   UNL     1      -0.525   4.957   0.021  0.00  0.00    +0.340 C 
ATOM     37  O   UNL     1       0.229   5.865  -0.267  0.00  0.00    -0.245 OA
ATOM     38  O   UNL     1      -1.864   5.054   0.066  0.00  0.00    -0.453 OA
ENDBRANCH  28  29
ENDBRANCH   2  28
TORSDOF 9
