REMARK  Name = ZINC62222746
REMARK  6 active torsions:
REMARK  status: ('A' for Active; 'I' for Inactive)
REMARK    1  A    between atoms: C_1  and  C_2
REMARK    2  A    between atoms: C_3  and  C_8
REMARK    3  A    between atoms: C_5  and  C_7
REMARK    4  A    between atoms: C_11  and  S_14
REMARK    5  A    between atoms: S_14  and  N_17
REMARK    6  A    between atoms: C_19  and  C_28
REMARK                            x       y       z     vdW  Elec       q    Type
REMARK                         _______ _______ _______ _____ _____    ______ ____
ROOT
ATOM      1  S   UNL     1      -6.846   0.870   0.041  0.00  0.00    +0.075 S 
ATOM      2  O   UNL     1      -7.614  -0.298  -0.219  0.00  0.00    -0.150 OA
ATOM      3  O   UNL     1      -7.031   1.658   1.209  0.00  0.00    -0.150 OA
ENDROOT
BRANCH   1   4
ATOM      4  N   UNL     1      -7.069   1.881  -1.251  0.00  0.00    -0.202 N 
ATOM      5  C   UNL     1      -6.974   3.337  -1.085  0.00  0.00    +0.135 C 
ATOM      6  C   UNL     1      -8.151   3.973  -1.838  0.00  0.00    +0.009 C 
ATOM      7  C   UNL     1      -8.011   3.660  -3.327  0.00  0.00    +0.042 C 
ATOM      8  C   UNL     1      -7.807   2.183  -3.539  0.00  0.00    -0.024 A 
ATOM      9  C   UNL     1      -7.345   1.361  -2.521  0.00  0.00    +0.054 A 
ATOM     10  C   UNL     1      -7.157   0.003  -2.752  0.00  0.00    +0.025 A 
ATOM     11  C   UNL     1      -7.427  -0.530  -3.997  0.00  0.00    +0.002 A 
ATOM     12  C   UNL     1      -7.884   0.289  -5.013  0.00  0.00    +0.000 A 
ATOM     13  C   UNL     1      -8.082   1.640  -4.783  0.00  0.00    +0.005 A 
ATOM     14  C   UNL     1      -8.137   5.488  -1.625  0.00  0.00    +0.009 C 
ENDBRANCH   1   4
BRANCH   1  18
ATOM     15  C   UNL     1      -2.499  -0.406   0.013  0.00  0.00    +0.004 A 
ATOM     16  C   UNL     1      -2.888   0.737   0.708  0.00  0.00    +0.012 A 
ATOM     17  C   UNL     1      -4.214   1.122   0.713  0.00  0.00    +0.029 A 
ATOM     18  C   UNL     1      -5.156   0.374   0.030  0.00  0.00    +0.109 A 
ATOM     19  C   UNL     1      -4.775  -0.762  -0.662  0.00  0.00    +0.029 A 
ATOM     20  C   UNL     1      -3.452  -1.152  -0.678  0.00  0.00    +0.012 A 
BRANCH  15  23
ATOM     21  C   UNL     1      -0.018   1.505   0.012  0.00  0.00    +0.088 C 
ATOM     22  C   UNL     1       0.002  -0.002   0.004  0.00  0.00    +0.130 A 
ATOM     23  C   UNL     1      -1.075  -0.824   0.004  0.00  0.00    +0.112 A 
ATOM     24  N   UNL     1      -0.614  -2.094  -0.006  0.00  0.00    -0.213 NA
ATOM     25  C   UNL     1       0.687  -2.064  -0.011  0.00  0.00    +0.193 A 
ATOM     26  O   UNL     1       1.096  -0.788  -0.011  0.00  0.00    -0.445 OA
ATOM     27  C   UNL     1       1.589  -3.271  -0.022  0.00  0.00    +0.109 C 
ENDBRANCH  15  23
ENDBRANCH   1  18
TORSDOF 3
