REMARK  Name = ZINC35381327
REMARK  7 active torsions:
REMARK  status: ('A' for Active; 'I' for Inactive)
REMARK    1  A    between atoms: C_1  and  O_2
REMARK    2  A    between atoms: O_2  and  C_3
REMARK    3  A    between atoms: C_5  and  C_12
REMARK    4  A    between atoms: C_8  and  O_9
REMARK    5  A    between atoms: O_9  and  C_10
REMARK    6  A    between atoms: C_12  and  C_14
REMARK    7  A    between atoms: C_12  and  N_22
REMARK                            x       y       z     vdW  Elec       q    Type
REMARK                         _______ _______ _______ _____ _____    ______ ____
ROOT
ATOM      1  C   UNL     1      -4.871   0.258   0.039  0.00  0.00    -0.005 C 
ENDROOT
BRANCH   1   2
ATOM      2  C   UNL     1      -5.352   0.419   1.458  0.00  0.00    -0.020 A 
ATOM      3  C   UNL     1      -6.310  -0.267   2.114  0.00  0.00    +0.013 A 
ATOM      4  C   UNL     1      -6.609   0.044   3.451  0.00  0.00    -0.037 A 
ATOM      5  C   UNL     1      -5.893   1.048   4.012  0.00  0.00    -0.007 A 
ATOM      6  S   UNL     1      -4.795   1.562   2.711  0.00  0.00    -0.099 S 
ATOM      7  C   UNL     1      -6.294   1.304   5.436  0.00  0.00    +0.043 C 
ATOM      8  C   UNL     1      -7.667   0.611   5.584  0.00  0.00    +0.010 C 
ATOM      9  C   UNL     1      -7.586  -0.486   4.504  0.00  0.00    +0.036 C 
ENDBRANCH   1   2
BRANCH   1  12
ATOM     10  C   UNL     1      -1.201  -0.638   0.010  0.00  0.00    +0.162 A 
ATOM     11  C   UNL     1      -2.374   0.100   0.019  0.00  0.00    +0.052 A 
ATOM     12  C   UNL     1      -3.597  -0.546   0.028  0.00  0.00    -0.039 A 
ATOM     13  C   UNL     1      -3.652  -1.928   0.027  0.00  0.00    +0.023 A 
ATOM     14  C   UNL     1      -2.485  -2.670   0.018  0.00  0.00    +0.065 A 
ATOM     15  C   UNL     1      -1.257  -2.028   0.003  0.00  0.00    +0.163 A 
ATOM     16 BR   UNL     1      -5.327  -2.805   0.038  0.00  0.00    -0.050 Br
BRANCH  10  18
ATOM     17  C   UNL     1      -0.017   1.425   0.010  0.00  0.00    +0.277 C 
ATOM     18  O   UNL     1       0.002  -0.004   0.002  0.00  0.00    -0.491 OA
ENDBRANCH  10  18
BRANCH  15  19
ATOM     19  O   UNL     1      -0.108  -2.756  -0.012  0.00  0.00    -0.491 OA
ATOM     20  C   UNL     1      -0.241  -4.179  -0.019  0.00  0.00    +0.277 C 
ENDBRANCH  15  19
ENDBRANCH   1  12
BRANCH   1  21
ATOM     21  N   UNL     1      -4.620   1.582  -0.547  0.00  0.00    +0.386 N 
ATOM     22  H   UNL     1      -4.299   1.474  -1.497  0.00  0.00    -0.089 HD
ATOM     23  H   UNL     1      -5.474   2.120  -0.539  0.00  0.00    -0.089 HD
ATOM     24  H   UNL     1      -3.916   2.061  -0.006  0.00  0.00    -0.089 HD
ENDBRANCH   1  21
TORSDOF 5
