REMARK  Name = ZINC38831910
REMARK  11 active torsions:
REMARK  status: ('A' for Active; 'I' for Inactive)
REMARK    1  A    between atoms: C_1  and  C_2
REMARK    2  A    between atoms: C_2  and  C_3
REMARK    3  A    between atoms: C_2  and  C_4
REMARK    4  A    between atoms: C_2  and  C_5
REMARK    5  A    between atoms: N_11  and  S_32
REMARK    6  A    between atoms: C_13  and  C_16
REMARK    7  A    between atoms: N_18  and  C_19
REMARK    8  A    between atoms: C_19  and  C_20
REMARK    9  A    between atoms: C_23  and  C_26
REMARK   10  A    between atoms: C_26  and  N_27
REMARK   11  A    between atoms: S_32  and  C_35
REMARK                            x       y       z     vdW  Elec       q    Type
REMARK                         _______ _______ _______ _____ _____    ______ ____
ROOT
ATOM      1  C   UNL     1       0.707  -0.490  -1.238  0.00  0.00    -0.040 A 
ATOM      2  C   UNL     1       0.035  -1.284  -2.148  0.00  0.00    +0.008 A 
ATOM      3  C   UNL     1       0.676  -1.735  -3.287  0.00  0.00    +0.048 A 
ATOM      4  C   UNL     1       1.999  -1.390  -3.522  0.00  0.00    +0.144 A 
ATOM      5  C   UNL     1       2.673  -0.588  -2.605  0.00  0.00    +0.093 A 
ATOM      6  C   UNL     1       2.025  -0.137  -1.467  0.00  0.00    +0.032 A 
ATOM      7  N   UNL     1       4.009  -0.231  -2.843  0.00  0.00    -0.200 N 
ATOM      8  C   UNL     1       4.740  -0.968  -3.888  0.00  0.00    +0.185 C 
ATOM      9  C   UNL     1       3.790  -1.143  -5.082  0.00  0.00    +0.277 C 
ATOM     10  O   UNL     1       2.622  -1.841  -4.643  0.00  0.00    -0.476 OA
ENDROOT
BRANCH   1  12
ATOM     11  C   UNL     1      -0.019   1.526   0.010  0.00  0.00    +0.015 C 
ATOM     12  C   UNL     1       0.002  -0.004   0.002  0.00  0.00    -0.013 C 
ATOM     13  C   UNL     1       0.742  -0.511   1.242  0.00  0.00    +0.015 C 
ATOM     14  C   UNL     1      -1.433  -0.534   0.013  0.00  0.00    +0.015 C 
ENDBRANCH   1  12
BRANCH   9  15
ATOM     15  C   UNL     1       4.479  -1.935  -6.163  0.00  0.00    +0.256 C 
ATOM     16  O   UNL     1       4.063  -3.032  -6.470  0.00  0.00    -0.272 OA
ATOM     17  N   UNL     1       5.558  -1.425  -6.789  0.00  0.00    -0.308 N 
ATOM     18  H   UNL     1       5.891  -0.547  -6.544  0.00  0.00    +0.149 HD
BRANCH  17  19
ATOM     19  C   UNL     1       6.227  -2.194  -7.840  0.00  0.00    +0.139 C 
BRANCH  19  20
ATOM     20  C   UNL     1       7.395  -1.405  -8.374  0.00  0.00    -0.030 A 
ATOM     21  C   UNL     1       7.216  -0.539  -9.436  0.00  0.00    +0.005 A 
ATOM     22  C   UNL     1       8.287   0.184  -9.926  0.00  0.00    +0.002 A 
ATOM     23  C   UNL     1       9.537   0.042  -9.354  0.00  0.00    -0.064 A 
ATOM     24  C   UNL     1       9.716  -0.824  -8.291  0.00  0.00    +0.002 A 
ATOM     25  C   UNL     1       8.644  -1.544  -7.798  0.00  0.00    +0.005 A 
BRANCH  23  26
ATOM     26  C   UNL     1      10.705   0.830  -9.888  0.00  0.00    -0.043 C 
BRANCH  26  27
ATOM     27  N   UNL     1      10.797   2.113  -9.178  0.00  0.00    +0.382 N 
ATOM     28  C   UNL     1      11.197   1.888  -7.765  0.00  0.00    -0.078 C 
ATOM     29  C   UNL     1      11.784   3.258  -7.341  0.00  0.00    -0.020 C 
ATOM     30  C   UNL     1      12.520   3.728  -8.616  0.00  0.00    -0.020 C 
ATOM     31  C   UNL     1      11.863   2.949  -9.771  0.00  0.00    -0.078 C 
ATOM     32  H   UNL     1       9.912   2.597  -9.217  0.00  0.00    -0.081 HD
ENDBRANCH  26  27
ENDBRANCH  23  26
ENDBRANCH  19  20
ENDBRANCH  17  19
ENDBRANCH   9  15
BRANCH   7  33
ATOM     33  S   UNL     1       4.739   0.978  -1.978  0.00  0.00    +0.043 S 
ATOM     34  O   UNL     1       5.763   1.468  -2.833  0.00  0.00    -0.155 OA
ATOM     35  O   UNL     1       3.674   1.823  -1.566  0.00  0.00    -0.155 OA
ATOM     36  C   UNL     1       5.470   0.147  -0.541  0.00  0.00    +0.218 C 
ENDBRANCH   7  33
TORSDOF 7
