REMARK  Name = ZINC12548985
REMARK  6 active torsions:
REMARK  status: ('A' for Active; 'I' for Inactive)
REMARK    1  A    between atoms: C_4  and  C_7
REMARK    2  A    between atoms: C_7  and  C_8
REMARK    3  A    between atoms: C_13  and  N_14
REMARK    4  A    between atoms: C_15  and  C_17
REMARK    5  A    between atoms: C_17  and  S_18
REMARK    6  A    between atoms: S_18  and  C_19
REMARK                            x       y       z     vdW  Elec       q    Type
REMARK                         _______ _______ _______ _____ _____    ______ ____
ROOT
ATOM      1  N   UNL     1      -7.289   5.850   0.066  0.00  0.00    -0.285 N 
ATOM      2  C   UNL     1      -6.814   4.733  -0.520  0.00  0.00    +0.227 C 
ATOM      3  O   UNL     1      -7.578   3.954  -1.050  0.00  0.00    -0.275 OA
ATOM      4  H   UNL     1      -6.686   6.439   0.546  0.00  0.00    +0.155 HD
ENDROOT
BRANCH   1  10
ATOM      5  C   UNL     1      -9.061   7.482  -0.097  0.00  0.00    -0.022 A 
ATOM      6  C   UNL     1     -10.406   7.783  -0.184  0.00  0.00    +0.006 A 
ATOM      7  C   UNL     1     -11.345   6.768  -0.180  0.00  0.00    +0.000 A 
ATOM      8  C   UNL     1     -10.940   5.449  -0.093  0.00  0.00    +0.002 A 
ATOM      9  C   UNL     1      -9.597   5.141  -0.012  0.00  0.00    +0.023 A 
ATOM     10  C   UNL     1      -8.651   6.158  -0.016  0.00  0.00    +0.037 A 
BRANCH   5  11
ATOM     11  C   UNL     1      -8.039   8.590  -0.096  0.00  0.00    +0.072 C 
BRANCH  11  15
ATOM     12  C   UNL     1      -6.612   9.217  -4.073  0.00  0.00    +0.000 A 
ATOM     13  C   UNL     1      -7.712   9.918  -3.614  0.00  0.00    +0.000 A 
ATOM     14  C   UNL     1      -8.174   9.715  -2.327  0.00  0.00    +0.004 A 
ATOM     15  C   UNL     1      -7.535   8.811  -1.499  0.00  0.00    -0.043 A 
ATOM     16  C   UNL     1      -6.432   8.114  -1.955  0.00  0.00    +0.004 A 
ATOM     17  C   UNL     1      -5.974   8.313  -3.244  0.00  0.00    +0.000 A 
ENDBRANCH  11  15
ENDBRANCH   5  11
ENDBRANCH   1  10
BRANCH   2  18
ATOM     18  C   UNL     1      -5.333   4.452  -0.519  0.00  0.00    +0.173 C 
BRANCH  18  19
ATOM     19  S   UNL     1      -5.014   2.891  -1.377  0.00  0.00    -0.079 S 
BRANCH  19  20
ATOM     20  C   UNL     1      -3.260   2.813  -1.229  0.00  0.00    +0.168 A 
ATOM     21  N   UNL     1      -2.474   1.808  -1.718  0.00  0.00    -0.333 N 
ATOM     22  H   UNL     1      -2.788   0.999  -2.216  0.00  0.00    +0.168 HD
ATOM     23  C   UNL     1      -1.163   2.119  -1.397  0.00  0.00    +0.067 A 
ATOM     24  C   UNL     1       0.055   1.495  -1.620  0.00  0.00    +0.028 A 
ATOM     25  C   UNL     1       1.219   2.079  -1.165  0.00  0.00    +0.002 A 
ATOM     26  C   UNL     1       1.180   3.284  -0.480  0.00  0.00    +0.002 A 
ATOM     27  C   UNL     1      -0.021   3.915  -0.244  0.00  0.00    +0.030 A 
ATOM     28  C   UNL     1      -1.210   3.336  -0.698  0.00  0.00    +0.090 A 
ATOM     29  N   UNL     1      -2.515   3.705  -0.623  0.00  0.00    -0.222 NA
ENDBRANCH  19  20
ENDBRANCH  18  19
ENDBRANCH   2  18
TORSDOF 6
