REMARK  Name = ZINC38742507
REMARK  6 active torsions:
REMARK  status: ('A' for Active; 'I' for Inactive)
REMARK    1  A    between atoms: C_1  and  C_2
REMARK    2  A    between atoms: C_2  and  C_3
REMARK    3  A    between atoms: C_2  and  C_4
REMARK    4  A    between atoms: C_6  and  C_10
REMARK    5  A    between atoms: C_18  and  C_20
REMARK    6  A    between atoms: C_20  and  C_21
REMARK                            x       y       z     vdW  Elec       q    Type
REMARK                         _______ _______ _______ _____ _____    ______ ____
ROOT
ATOM      1  C   UNL     1       3.477  -0.875  -3.068  0.00  0.00    +0.206 C 
ATOM      2  N   UNL     1       3.487   0.590  -2.842  0.00  0.00    -0.231 NA
ATOM      3  N   UNL     1       3.648   1.217  -4.165  0.00  0.00    -0.224 NA
ATOM      4  C   UNL     1       3.128   0.186  -5.085  0.00  0.00    +0.240 C 
ATOM      5  N   UNL     1       3.749  -1.056  -4.512  0.00  0.00    -0.206 N 
ATOM      6  N   UNL     1       4.393  -1.837  -5.448  0.00  0.00    -0.178 NA
ATOM      7  C   UNL     1       4.685  -1.423  -6.636  0.00  0.00    +0.099 C 
ATOM      8  S   UNL     1       3.964   0.248  -6.713  0.00  0.00    -0.067 S 
ATOM      9  H   UNL     1       4.237   0.855  -2.222  0.00  0.00    +0.143 HD
ATOM     10  H   UNL     1       3.107   2.066  -4.231  0.00  0.00    +0.144 HD
ENDROOT
BRANCH   1  13
ATOM     11  C   UNL     1       0.707  -0.490  -1.238  0.00  0.00    +0.064 C 
ATOM     12  C   UNL     1       1.805  -1.250  -1.237  0.00  0.00    +0.030 C 
ATOM     13  C   UNL     1       2.107  -1.457  -2.710  0.00  0.00    +0.190 C 
ATOM     14  N   UNL     1       1.029  -0.708  -3.378  0.00  0.00    -0.177 NA
ATOM     15  N   UNL     1       0.311  -0.220  -2.502  0.00  0.00    -0.158 NA
BRANCH  11  17
ATOM     16  C   UNL     1      -0.019   1.526   0.010  0.00  0.00    +0.014 C 
ATOM     17  C   UNL     1       0.002  -0.004   0.002  0.00  0.00    +0.033 C 
ATOM     18  C   UNL     1      -1.433  -0.534   0.013  0.00  0.00    +0.014 C 
ENDBRANCH  11  17
ENDBRANCH   1  13
BRANCH   7  19
ATOM     19  C   UNL     1       5.438  -2.156  -7.716  0.00  0.00    +0.099 C 
BRANCH  19  20
ATOM     20  C   UNL     1       5.837  -3.520  -7.213  0.00  0.00    -0.041 A 
ATOM     21  C   UNL     1       7.046  -3.692  -6.566  0.00  0.00    +0.004 A 
ATOM     22  C   UNL     1       7.411  -4.943  -6.104  0.00  0.00    +0.000 A 
ATOM     23  C   UNL     1       6.566  -6.021  -6.289  0.00  0.00    +0.000 A 
ATOM     24  C   UNL     1       5.357  -5.849  -6.935  0.00  0.00    +0.000 A 
ATOM     25  C   UNL     1       4.990  -4.598  -7.393  0.00  0.00    +0.004 A 
ENDBRANCH  19  20
ENDBRANCH   7  19
TORSDOF 4
