REMARK  Name = ZINC38028574
REMARK  9 active torsions:
REMARK  status: ('A' for Active; 'I' for Inactive)
REMARK    1  A    between atoms: C_1  and  C_2
REMARK    2  A    between atoms: C_2  and  C_3
REMARK    3  A    between atoms: C_3  and  C_5
REMARK    4  A    between atoms: C_3  and  N_13
REMARK    5  A    between atoms: C_10  and  O_11
REMARK    6  A    between atoms: N_13  and  C_14
REMARK    7  A    between atoms: C_14  and  C_15
REMARK    8  A    between atoms: C_15  and  C_17
REMARK    9  A    between atoms: C_15  and  N_18
REMARK                            x       y       z     vdW  Elec       q    Type
REMARK                         _______ _______ _______ _____ _____    ______ ____
ROOT
ATOM      1  N   UNL     1      -1.943  -0.318   1.586  0.00  0.00    +0.383 N 
ATOM      2  H   UNL     1      -2.759  -0.908   1.651  0.00  0.00    -0.085 HD
ATOM      3  H   UNL     1      -1.462  -0.311   2.472  0.00  0.00    -0.085 HD
ENDROOT
BRANCH   1   4
ATOM      4  C   UNL     1      -1.046  -0.837   0.545  0.00  0.00    -0.038 C 
BRANCH   4   5
ATOM      5  C   UNL     1      -0.738  -2.286   0.824  0.00  0.00    -0.019 A 
ATOM      6  C   UNL     1      -0.925  -2.801   2.092  0.00  0.00    +0.020 A 
ATOM      7  C   UNL     1      -0.643  -4.130   2.348  0.00  0.00    +0.018 A 
ATOM      8  C   UNL     1      -0.172  -4.947   1.336  0.00  0.00    +0.019 A 
ATOM      9  C   UNL     1       0.016  -4.437   0.066  0.00  0.00    +0.047 A 
ATOM     10  C   UNL     1      -0.271  -3.104  -0.194  0.00  0.00    +0.119 A 
ATOM     11 BR   UNL     1      -0.899  -4.832   4.085  0.00  0.00    -0.050 Br
BRANCH  10  12
ATOM     12  O   UNL     1      -0.091  -2.601  -1.444  0.00  0.00    -0.507 OA
ATOM     13  H   UNL     1       0.792  -2.239  -1.598  0.00  0.00    +0.292 HD
ENDBRANCH  10  12
ENDBRANCH   4   5
BRANCH   4  15
ATOM     14  C   UNL     1       0.934  -0.157   1.909  0.00  0.00    +0.002 C 
ATOM     15  C   UNL     1       0.254  -0.030   0.544  0.00  0.00    -0.015 C 
ENDBRANCH   4  15
ENDBRANCH   1   4
BRANCH   1  16
ATOM     16  C   UNL     1      -2.354   1.049   1.241  0.00  0.00    -0.098 C 
BRANCH  16  17
ATOM     17  C   UNL     1      -3.376   1.548   2.265  0.00  0.00    -0.089 C 
ATOM     18  C   UNL     1      -3.889   2.926   1.843  0.00  0.00    -0.015 C 
BRANCH  17  19
ATOM     19  N   UNL     1      -4.502   0.606   2.332  0.00  0.00    +0.380 N 
ATOM     20  C   UNL     1      -5.200   0.588   1.041  0.00  0.00    -0.079 C 
ATOM     21  C   UNL     1      -6.324  -0.450   1.079  0.00  0.00    -0.019 C 
ATOM     22  C   UNL     1      -7.311  -0.085   2.191  0.00  0.00    -0.004 C 
ATOM     23  C   UNL     1      -6.558   0.004   3.521  0.00  0.00    -0.019 C 
ATOM     24  C   UNL     1      -5.426   1.026   3.392  0.00  0.00    -0.079 C 
ATOM     25  H   UNL     1      -4.154  -0.318   2.536  0.00  0.00    -0.082 HD
ENDBRANCH  17  19
ENDBRANCH  16  17
ENDBRANCH   1  16
TORSDOF 7
