REMARK  Name = ZINC10003494
REMARK  9 active torsions:
REMARK  status: ('A' for Active; 'I' for Inactive)
REMARK    1  A    between atoms: C_1  and  C_2
REMARK    2  A    between atoms: C_2  and  N_3
REMARK    3  A    between atoms: C_14  and  S_16
REMARK    4  A    between atoms: S_16  and  C_17
REMARK    5  A    between atoms: C_17  and  C_18
REMARK    6  A    between atoms: C_18  and  C_20
REMARK    7  A    between atoms: C_18  and  N_33
REMARK    8  A    between atoms: N_22  and  C_23
REMARK    9  A    between atoms: C_34  and  C_36
REMARK                            x       y       z     vdW  Elec       q    Type
REMARK                         _______ _______ _______ _____ _____    ______ ____
ROOT
ATOM      1  C   UNL     1      -1.976  -6.284  -0.011  0.00  0.00    +0.169 C 
ENDROOT
BRANCH   1   2
ATOM      2  N   UNL     1      -2.750  -6.275  -1.256  0.00  0.00    -0.303 N 
ATOM      3  C   UNL     1      -2.119  -6.384  -2.442  0.00  0.00    +0.211 C 
ATOM      4  O   UNL     1      -0.911  -6.490  -2.479  0.00  0.00    -0.276 OA
ATOM      5  C   UNL     1      -2.914  -6.375  -3.722  0.00  0.00    +0.109 C 
ATOM      6  H   UNL     1      -3.716  -6.190  -1.226  0.00  0.00    +0.149 HD
ENDBRANCH   1   2
BRANCH   1   7
ATOM      7  C   UNL     1      -1.216  -7.580   0.099  0.00  0.00    +0.235 C 
ATOM      8  O   UNL     1      -1.009  -8.247  -0.892  0.00  0.00    -0.274 OA
ATOM      9  N   UNL     1      -0.768  -7.998   1.299  0.00  0.00    -0.308 N 
ATOM     10  H   UNL     1      -0.934  -7.465   2.092  0.00  0.00    +0.149 HD
BRANCH   9  11
ATOM     11  C   UNL     1      -0.029  -9.259   1.406  0.00  0.00    +0.035 C 
ATOM     12  C   UNL     1       1.234  -9.185   0.544  0.00  0.00    +0.029 C 
ATOM     13  C   UNL     1       2.005 -10.501   0.656  0.00  0.00    -0.008 C 
ATOM     14  C   UNL     1       2.397 -10.741   2.115  0.00  0.00    +0.007 C 
ATOM     15  C   UNL     1       1.135 -10.815   2.977  0.00  0.00    -0.008 C 
ATOM     16  C   UNL     1       0.363  -9.498   2.865  0.00  0.00    +0.029 C 
ATOM     17  C   UNL     1       0.252 -11.966   2.491  0.00  0.00    +0.007 C 
ATOM     18  C   UNL     1      -0.140 -11.727   1.031  0.00  0.00    -0.008 C 
ATOM     19  C   UNL     1       1.123 -11.653   0.170  0.00  0.00    +0.007 C 
ATOM     20  C   UNL     1      -0.911 -10.410   0.919  0.00  0.00    +0.029 C 
ENDBRANCH   9  11
ENDBRANCH   1   7
BRANCH   1  21
ATOM     21  C   UNL     1      -0.991  -5.113  -0.015  0.00  0.00    +0.106 C 
BRANCH  21  22
ATOM     22  S   UNL     1      -1.909  -3.549   0.002  0.00  0.00    -0.123 S 
BRANCH  22  34
ATOM     23  N   UNL     1       2.128   0.764  -0.014  0.00  0.00    -0.340 N 
ATOM     24  C   UNL     1       1.321   1.888  -0.000  0.00  0.00    +0.050 A 
ATOM     25  C   UNL     1       1.611   3.249   0.004  0.00  0.00    +0.026 A 
ATOM     26  C   UNL     1       0.588   4.172   0.018  0.00  0.00    +0.002 A 
ATOM     27  C   UNL     1      -0.735   3.758   0.028  0.00  0.00    +0.001 A 
ATOM     28  C   UNL     1      -1.042   2.415   0.020  0.00  0.00    +0.010 A 
ATOM     29  C   UNL     1      -0.018   1.470   0.010  0.00  0.00    +0.008 A 
ATOM     30  C   UNL     1       0.002  -0.004   0.002  0.00  0.00    +0.009 A 
ATOM     31  C   UNL     1       1.352  -0.384  -0.013  0.00  0.00    +0.050 A 
ATOM     32  C   UNL     1       1.683  -1.735  -0.023  0.00  0.00    +0.027 A 
ATOM     33  C   UNL     1       0.690  -2.691  -0.019  0.00  0.00    +0.017 A 
ATOM     34  C   UNL     1      -0.651  -2.316  -0.004  0.00  0.00    +0.009 A 
ATOM     35  C   UNL     1      -0.997  -0.975   0.007  0.00  0.00    +0.025 A 
BRANCH  23  37
ATOM     36  C   UNL     1       4.088   0.801  -1.477  0.00  0.00    +0.027 C 
ATOM     37  C   UNL     1       3.593   0.786  -0.029  0.00  0.00    +0.119 C 
ENDBRANCH  23  37
ENDBRANCH  22  34
ENDBRANCH  21  22
ENDBRANCH   1  21
TORSDOF 7
