REMARK  Name = ZINC39482789
REMARK  11 active torsions:
REMARK  status: ('A' for Active; 'I' for Inactive)
REMARK    1  A    between atoms: C_1  and  C_2
REMARK    2  A    between atoms: C_3  and  C_32
REMARK    3  A    between atoms: C_7  and  S_11
REMARK    4  A    between atoms: S_11  and  C_12
REMARK    5  A    between atoms: C_17  and  C_18
REMARK    6  A    between atoms: C_18  and  O_20
REMARK    7  A    between atoms: O_20  and  C_21
REMARK    8  A    between atoms: C_21  and  C_23
REMARK    9  A    between atoms: C_21  and  C_26
REMARK   10  A    between atoms: C_23  and  C_24
REMARK   11  A    between atoms: C_23  and  C_25
REMARK                            x       y       z     vdW  Elec       q    Type
REMARK                         _______ _______ _______ _____ _____    ______ ____
ROOT
ATOM      1  C   UNL     1      -0.915   0.913   4.783  0.00  0.00    +0.028 A 
ATOM      2  C   UNL     1      -0.899  -0.331   5.403  0.00  0.00    +0.016 A 
ATOM      3  C   UNL     1      -0.841  -0.417   6.779  0.00  0.00    +0.001 A 
ATOM      4  C   UNL     1      -0.798   0.732   7.553  0.00  0.00    +0.001 A 
ATOM      5  C   UNL     1      -0.814   1.974   6.958  0.00  0.00    +0.016 A 
ATOM      6  C   UNL     1      -0.867   2.079   5.565  0.00  0.00    +0.073 A 
ENDROOT
BRANCH   6   7
ATOM      7  C   UNL     1      -0.878   3.404   4.921  0.00  0.00    +0.341 C 
ATOM      8  O   UNL     1      -0.929   3.490   3.710  0.00  0.00    -0.245 OA
BRANCH   7   9
ATOM      9  O   UNL     1      -0.831   4.520   5.676  0.00  0.00    -0.448 OA
BRANCH   9  10
ATOM     10  C   UNL     1      -0.846   5.771   4.985  0.00  0.00    +0.265 C 
BRANCH  10  11
ATOM     11  C   UNL     1      -1.506   6.814   5.848  0.00  0.00    +0.261 C 
ATOM     12  O   UNL     1      -1.808   6.551   6.993  0.00  0.00    -0.271 OA
ATOM     13  N   UNL     1      -1.761   8.040   5.349  0.00  0.00    -0.237 N 
ATOM     14  C   UNL     1      -2.271   8.999   6.146  0.00  0.00    +0.303 C 
ATOM     15  O   UNL     1      -2.501   8.760   7.315  0.00  0.00    -0.253 OA
ATOM     16  N   UNL     1      -2.526  10.225   5.646  0.00  0.00    -0.313 N 
ATOM     17  H   UNL     1      -1.578   8.231   4.416  0.00  0.00    +0.159 HD
ATOM     18  H   UNL     1      -2.342  10.416   4.713  0.00  0.00    +0.146 HD
ATOM     19  H   UNL     1      -2.893  10.916   6.220  0.00  0.00    +0.146 HD
ENDBRANCH  10  11
BRANCH  10  20
ATOM     20  C   UNL     1       0.590   6.199   4.676  0.00  0.00    +0.033 C 
ATOM     21  C   UNL     1       1.387   6.291   5.979  0.00  0.00    +0.011 C 
ATOM     22  C   UNL     1       1.242   5.168   3.752  0.00  0.00    +0.011 C 
ENDBRANCH  10  20
ENDBRANCH   9  10
ENDBRANCH   7   9
ENDBRANCH   6   7
BRANCH   1  23
ATOM     23  S   UNL     1      -0.989   1.027   3.027  0.00  0.00    -0.068 S 
BRANCH  23  30
ATOM     24  C   UNL     1      -0.971   0.944   0.114  0.00  0.00    +0.045 C 
ATOM     25  C   UNL     1      -2.433   1.312   0.108  0.00  0.00    -0.029 A 
ATOM     26  C   UNL     1      -3.095   1.442  -1.051  0.00  0.00    -0.008 A 
ATOM     27  S   UNL     1      -4.747   1.874  -0.540  0.00  0.00    -0.074 S 
ATOM     28  C   UNL     1      -4.504   1.869   1.216  0.00  0.00    +0.113 A 
ATOM     29  C   UNL     1      -3.141   1.524   1.358  0.00  0.00    +0.043 A 
ATOM     30  C   UNL     1      -2.670   1.442   2.697  0.00  0.00    +0.113 A 
ATOM     31  N   UNL     1      -3.509   1.680   3.692  0.00  0.00    -0.228 NA
ATOM     32  C   UNL     1      -4.775   1.994   3.485  0.00  0.00    +0.223 A 
ATOM     33  N   UNL     1      -5.268   2.095   2.266  0.00  0.00    -0.228 NA
ATOM     34  C   UNL     1      -2.567   1.265  -2.451  0.00  0.00    +0.052 C 
ENDBRANCH  23  30
ENDBRANCH   1  23
TORSDOF 7
