REMARK  Name = ZINC06803846
REMARK  10 active torsions:
REMARK  status: ('A' for Active; 'I' for Inactive)
REMARK    1  A    between atoms: C_1  and  C_2
REMARK    2  A    between atoms: C_2  and  C_4
REMARK    3  A    between atoms: C_2  and  C_28
REMARK    4  A    between atoms: C_4  and  N_5
REMARK    5  A    between atoms: N_5  and  C_6
REMARK    6  A    between atoms: C_6  and  C_7
REMARK    7  A    between atoms: N_14  and  C_19
REMARK    8  A    between atoms: C_15  and  C_16
REMARK    9  A    between atoms: C_19  and  C_20
REMARK   10  A    between atoms: C_23  and  C_26
REMARK                            x       y       z     vdW  Elec       q    Type
REMARK                         _______ _______ _______ _____ _____    ______ ____
ROOT
ATOM      1  C   UNL     1       4.308  -0.171   2.290  0.00  0.00    -0.025 A 
ATOM      2  C   UNL     1       5.361  -0.906   1.697  0.00  0.00    +0.002 A 
ATOM      3  C   UNL     1       5.420  -2.144   1.043  0.00  0.00    +0.010 A 
ATOM      4  C   UNL     1       6.613  -2.603   0.566  0.00  0.00    +0.001 A 
ATOM      5  C   UNL     1       7.774  -1.855   0.723  0.00  0.00    +0.002 A 
ATOM      6  C   UNL     1       7.742  -0.636   1.363  0.00  0.00    +0.026 A 
ATOM      7  C   UNL     1       6.536  -0.145   1.857  0.00  0.00    +0.050 A 
ATOM      8  N   UNL     1       6.193   1.007   2.524  0.00  0.00    -0.330 N 
ATOM      9  C   UNL     1       4.834   0.986   2.778  0.00  0.00    +0.134 A 
ENDROOT
BRANCH   9  10
ATOM     10  C   UNL     1       4.081   2.038   3.467  0.00  0.00    +0.403 C 
ATOM     11  O   UNL     1       4.658   3.042   3.867  0.00  0.00    -0.239 OA
ATOM     12  O   UNL     1       2.876   1.914   3.642  0.00  0.00    -0.239 OA
ENDBRANCH   9  10
BRANCH   1  13
ATOM     13  C   UNL     1       2.862  -0.589   2.361  0.00  0.00    -0.044 C 
BRANCH  13  14
ATOM     14  N   UNL     1       2.151  -0.103   1.171  0.00  0.00    +0.382 N 
ATOM     15  H   UNL     1       2.574  -0.495   0.344  0.00  0.00    -0.085 HD
ATOM     16  H   UNL     1       2.209   0.904   1.134  0.00  0.00    -0.085 HD
BRANCH  14  17
ATOM     17  C   UNL     1       0.742  -0.511   1.242  0.00  0.00    -0.074 C 
BRANCH  17  19
ATOM     18  C   UNL     1      -0.019   1.526   0.010  0.00  0.00    +0.010 C 
ATOM     19  C   UNL     1       0.002  -0.004   0.002  0.00  0.00    -0.001 C 
BRANCH  19  20
ATOM     20  C   UNL     1      -1.412  -0.526   0.013  0.00  0.00    -0.046 A 
ATOM     21  C   UNL     1      -2.259  -0.204   1.056  0.00  0.00    +0.004 A 
ATOM     22  C   UNL     1      -3.556  -0.683   1.066  0.00  0.00    +0.000 A 
ATOM     23  C   UNL     1      -4.006  -1.482   0.032  0.00  0.00    +0.000 A 
ATOM     24  C   UNL     1      -3.159  -1.803  -1.012  0.00  0.00    +0.000 A 
ATOM     25  C   UNL     1      -1.863  -1.321  -1.024  0.00  0.00    +0.004 A 
ENDBRANCH  19  20
ENDBRANCH  17  19
ENDBRANCH  14  17
ENDBRANCH  13  14
ENDBRANCH   1  13
BRANCH   8  26
ATOM     26  C   UNL     1       7.115   2.082   2.898  0.00  0.00    +0.157 C 
BRANCH  26  27
ATOM     27  C   UNL     1       7.182   3.096   1.785  0.00  0.00    -0.028 A 
ATOM     28  C   UNL     1       8.118   2.950   0.776  0.00  0.00    +0.006 A 
ATOM     29  C   UNL     1       8.185   3.874  -0.246  0.00  0.00    +0.008 A 
ATOM     30  C   UNL     1       7.306   4.958  -0.261  0.00  0.00    -0.026 A 
ATOM     31  C   UNL     1       6.364   5.099   0.759  0.00  0.00    +0.008 A 
ATOM     32  C   UNL     1       6.304   4.165   1.773  0.00  0.00    +0.006 A 
BRANCH  30  33
ATOM     33  C   UNL     1       7.373   5.952  -1.353  0.00  0.00    +0.000 C 
ATOM     34  C   UNL     1       6.536   6.981  -1.364  0.00  0.00    +0.009 C 
ENDBRANCH  30  33
ENDBRANCH  26  27
ENDBRANCH   8  26
TORSDOF 9
