REMARK  Name = ZINC09930475
REMARK  11 active torsions:
REMARK  status: ('A' for Active; 'I' for Inactive)
REMARK    1  A    between atoms: C_1  and  C_2
REMARK    2  A    between atoms: C_2  and  C_3
REMARK    3  A    between atoms: C_3  and  C_5
REMARK    4  A    between atoms: C_3  and  C_6
REMARK    5  A    between atoms: C_9  and  C_12
REMARK    6  A    between atoms: C_12  and  C_14
REMARK    7  A    between atoms: C_12  and  N_19
REMARK    8  A    between atoms: C_20  and  C_22
REMARK    9  A    between atoms: C_22  and  N_23
REMARK   10  A    between atoms: C_24  and  C_26
REMARK   11  A    between atoms: C_26  and  C_27
REMARK                            x       y       z     vdW  Elec       q    Type
REMARK                         _______ _______ _______ _____ _____    ______ ____
ROOT
ATOM      1  C   UNL     1      -2.948   2.535   7.250  0.00  0.00    +0.140 C 
ENDROOT
BRANCH   1   5
ATOM      2  C   UNL     1      -0.761   1.454   3.743  0.00  0.00    -0.045 A 
ATOM      3  C   UNL     1      -1.001   2.786   4.025  0.00  0.00    +0.004 A 
ATOM      4  C   UNL     1      -1.714   3.135   5.156  0.00  0.00    +0.006 A 
ATOM      5  C   UNL     1      -2.176   2.154   6.013  0.00  0.00    -0.022 A 
ATOM      6  C   UNL     1      -1.931   0.822   5.734  0.00  0.00    +0.006 A 
ATOM      7  C   UNL     1      -1.224   0.472   4.599  0.00  0.00    +0.004 A 
BRANCH   2   8
ATOM      8  C   UNL     1       0.011   1.072   2.506  0.00  0.00    +0.016 C 
ATOM      9  C   UNL     1       1.405   1.701   2.561  0.00  0.00    +0.012 C 
BRANCH   8  11
ATOM     10  C   UNL     1      -0.013   1.086   0.008  0.00  0.00    +0.004 C 
ATOM     11  C   UNL     1      -0.729   1.579   1.267  0.00  0.00    +0.004 C 
ENDBRANCH   8  11
ENDBRANCH   2   8
ENDBRANCH   1   5
BRANCH   1  12
ATOM     12  C   UNL     1      -4.377   2.833   6.878  0.00  0.00    +0.014 A 
ATOM     13  C   UNL     1      -5.472   2.042   6.996  0.00  0.00    +0.013 A 
ATOM     14  C   UNL     1      -6.699   2.530   6.586  0.00  0.00    +0.008 A 
ATOM     15  C   UNL     1      -6.771   3.785   6.079  0.00  0.00    +0.045 A 
ATOM     16  S   UNL     1      -5.070   4.321   6.176  0.00  0.00    -0.099 S 
ENDBRANCH   1  12
BRANCH   1  17
ATOM     17  N   UNL     1      -2.343   3.724   7.855  0.00  0.00    -0.303 N 
ATOM     18  C   UNL     1      -2.499   3.964   9.172  0.00  0.00    +0.231 C 
ATOM     19  O   UNL     1      -3.141   3.195   9.856  0.00  0.00    -0.274 OA
ATOM     20  H   UNL     1      -1.829   4.339   7.308  0.00  0.00    +0.150 HD
BRANCH  18  21
ATOM     21  C   UNL     1      -1.877   5.187   9.795  0.00  0.00    +0.200 C 
BRANCH  21  22
ATOM     22  N   UNL     1      -2.190   5.219  11.226  0.00  0.00    -0.306 N 
ATOM     23  C   UNL     1      -1.735   6.230  11.992  0.00  0.00    +0.218 C 
ATOM     24  O   UNL     1      -1.066   7.112  11.498  0.00  0.00    -0.275 OA
ATOM     25  H   UNL     1      -2.725   4.513  11.621  0.00  0.00    +0.149 HD
BRANCH  23  26
ATOM     26  C   UNL     1      -2.057   6.263  13.464  0.00  0.00    +0.130 C 
BRANCH  26  27
ATOM     27  C   UNL     1      -1.435   7.486  14.087  0.00  0.00    -0.039 A 
ATOM     28  C   UNL     1      -0.157   7.421  14.610  0.00  0.00    +0.004 A 
ATOM     29  C   UNL     1       0.416   8.545  15.177  0.00  0.00    +0.000 A 
ATOM     30  C   UNL     1      -0.294   9.730  15.230  0.00  0.00    +0.000 A 
ATOM     31  C   UNL     1      -1.574   9.793  14.713  0.00  0.00    +0.000 A 
ATOM     32  C   UNL     1      -2.144   8.671  14.141  0.00  0.00    +0.004 A 
ENDBRANCH  26  27
ENDBRANCH  23  26
ENDBRANCH  21  22
ENDBRANCH  18  21
ENDBRANCH   1  17
TORSDOF 9
