REMARK  Name = ZINC08565632
REMARK  7 active torsions:
REMARK  status: ('A' for Active; 'I' for Inactive)
REMARK    1  A    between atoms: C_1  and  O_2
REMARK    2  A    between atoms: O_2  and  C_3
REMARK    3  A    between atoms: C_5  and  O_22
REMARK    4  A    between atoms: C_8  and  C_9
REMARK    5  A    between atoms: C_9  and  N_10
REMARK    6  A    between atoms: N_10  and  C_11
REMARK    7  A    between atoms: O_22  and  C_23
REMARK                            x       y       z     vdW  Elec       q    Type
REMARK                         _______ _______ _______ _____ _____    ______ ____
ROOT
ATOM      1  C   UNL     1      -1.127   7.124   1.866  0.00  0.00    +0.140 C 
ENDROOT
BRANCH   1   7
ATOM      2  C   UNL     1      -0.369   5.121   0.562  0.00  0.00    +0.128 A 
ATOM      3  C   UNL     1      -0.259   3.749   0.394  0.00  0.00    +0.092 A 
ATOM      4  C   UNL     1      -0.787   2.892   1.346  0.00  0.00    +0.137 A 
ATOM      5  C   UNL     1      -1.430   3.409   2.463  0.00  0.00    +0.060 A 
ATOM      6  C   UNL     1      -1.534   4.777   2.631  0.00  0.00    +0.027 A 
ATOM      7  C   UNL     1      -1.007   5.633   1.683  0.00  0.00    +0.012 A 
ATOM      8 BR   UNL     1      -2.159   2.240   3.759  0.00  0.00    -0.047 Br
BRANCH   2  10
ATOM      9  C   UNL     1       0.794   5.368  -1.497  0.00  0.00    +0.277 C 
ATOM     10  O   UNL     1       0.149   5.964  -0.369  0.00  0.00    -0.495 OA
ENDBRANCH   2  10
BRANCH   4  11
ATOM     11  O   UNL     1      -0.682   1.547   1.184  0.00  0.00    -0.494 OA
ATOM     12  C   UNL     1      -0.013   1.086   0.008  0.00  0.00    +0.277 C 
ENDBRANCH   4  11
ENDBRANCH   1   7
BRANCH   1  13
ATOM     13  N   UNL     1      -2.233   7.629   1.049  0.00  0.00    -0.340 N 
ATOM     14  H   UNL     1      -2.823   6.935   0.432  0.00  0.00    +0.146 HD
BRANCH  13  15
ATOM     15  C   UNL     1      -2.539   8.992   1.054  0.00  0.00    +0.029 A 
ATOM     16  C   UNL     1      -1.788   9.868   1.839  0.00  0.00    +0.024 A 
ATOM     17  C   UNL     1      -2.072  11.201   1.856  0.00  0.00    +0.013 A 
ATOM     18  C   UNL     1      -3.126  11.699   1.081  0.00  0.00    +0.020 A 
ATOM     19  C   UNL     1      -3.685  13.031   0.872  0.00  0.00    +0.142 A 
ATOM     20  N   UNL     1      -4.675  12.920   0.033  0.00  0.00    -0.181 NA
ATOM     21  N   UNL     1      -4.833  11.584  -0.349  0.00  0.00    -0.277 N 
ATOM     22  H   UNL     1      -5.628  11.305  -1.057  0.00  0.00    +0.189 HD
ATOM     23  C   UNL     1      -3.888  10.821   0.286  0.00  0.00    +0.067 A 
ATOM     24  C   UNL     1      -3.581   9.464   0.277  0.00  0.00    +0.050 A 
ENDBRANCH  13  15
ENDBRANCH   1  13
TORSDOF 5
