REMARK  Name = ZINC51147318
REMARK  6 active torsions:
REMARK  status: ('A' for Active; 'I' for Inactive)
REMARK    1  A    between atoms: C_1  and  C_2
REMARK    2  A    between atoms: C_2  and  C_3
REMARK    3  A    between atoms: N_9  and  C_10
REMARK    4  A    between atoms: C_10  and  C_11
REMARK    5  A    between atoms: C_20  and  N_21
REMARK    6  A    between atoms: N_21  and  N_22
REMARK                            x       y       z     vdW  Elec       q    Type
REMARK                         _______ _______ _______ _____ _____    ______ ____
ROOT
ATOM      1  C   UNL     1       3.841   1.396  -0.885  0.00  0.00    -0.022 A 
ATOM      2  C   UNL     1       4.376   1.767   0.312  0.00  0.00    +0.015 A 
ATOM      3  C   UNL     1       5.740   2.121   0.352  0.00  0.00    +0.001 A 
ATOM      4  C   UNL     1       6.356   2.513   1.551  0.00  0.00    +0.010 A 
ATOM      5  C   UNL     1       7.676   2.847   1.553  0.00  0.00    +0.001 A 
ATOM      6  C   UNL     1       8.425   2.806   0.379  0.00  0.00    +0.002 A 
ATOM      7  C   UNL     1       7.859   2.431  -0.801  0.00  0.00    +0.028 A 
ATOM      8  C   UNL     1       6.500   2.078  -0.843  0.00  0.00    +0.073 A 
ATOM      9  N   UNL     1       5.919   1.705  -1.989  0.00  0.00    -0.231 NA
ATOM     10  C   UNL     1       4.646   1.368  -2.032  0.00  0.00    +0.134 A 
ENDROOT
BRANCH  10  11
ATOM     11  N   UNL     1       4.089   0.982  -3.242  0.00  0.00    -0.267 N 
ATOM     12  H   UNL     1       3.130   0.853  -3.315  0.00  0.00    +0.167 HD
BRANCH  11  13
ATOM     13  N   UNL     1       4.890   0.784  -4.331  0.00  0.00    -0.255 NA
ATOM     14  H   UNL     1       5.610   0.106  -4.131  0.00  0.00    +0.140 HD
ATOM     15  H   UNL     1       4.346   0.508  -5.134  0.00  0.00    +0.140 HD
ENDBRANCH  11  13
ENDBRANCH  10  11
BRANCH   1  16
ATOM     16  C   UNL     1       2.387   1.009  -0.974  0.00  0.00    -0.039 C 
BRANCH  16  22
ATOM     17  C   UNL     1       0.837  -0.814  -0.824  0.00  0.00    -0.068 C 
ATOM     18  C   UNL     1       0.698  -2.322  -0.606  0.00  0.00    -0.015 C 
ATOM     19  C   UNL     1       1.402  -3.064  -1.745  0.00  0.00    -0.003 C 
ATOM     20  C   UNL     1       2.866  -2.619  -1.803  0.00  0.00    -0.019 C 
ATOM     21  C   UNL     1       2.926  -1.100  -1.977  0.00  0.00    -0.078 C 
ATOM     22  N   UNL     1       2.259  -0.448  -0.843  0.00  0.00    +0.384 N 
ATOM     23  H   UNL     1       2.693  -0.746   0.018  0.00  0.00    -0.081 HD
BRANCH  17  25
ATOM     24  C   UNL     1      -1.363  -0.378   0.277  0.00  0.00    +0.002 C 
ATOM     25  C   UNL     1       0.135  -0.067   0.312  0.00  0.00    -0.019 C 
ENDBRANCH  17  25
ENDBRANCH  16  22
ENDBRANCH   1  16
TORSDOF 5
