REMARK  Name = ZINC59474805
REMARK  8 active torsions:
REMARK  status: ('A' for Active; 'I' for Inactive)
REMARK    1  A    between atoms: C_4  and  O_32
REMARK    2  A    between atoms: C_5  and  C_7
REMARK    3  A    between atoms: N_8  and  C_9
REMARK    4  A    between atoms: C_16  and  S_18
REMARK    5  A    between atoms: S_18  and  C_19
REMARK    6  A    between atoms: C_19  and  C_20
REMARK    7  A    between atoms: N_22  and  C_23
REMARK    8  A    between atoms: C_26  and  N_29
REMARK                            x       y       z     vdW  Elec       q    Type
REMARK                         _______ _______ _______ _____ _____    ______ ____
ROOT
ATOM      1  C   UNL     1       2.450  -4.152  -0.015  0.00  0.00    +0.065 A 
ATOM      2  C   UNL     1       1.617  -4.884   0.841  0.00  0.00    +0.030 A 
ATOM      3  C   UNL     1       1.623  -6.242   0.843  0.00  0.00    +0.031 A 
ATOM      4  C   UNL     1       2.474  -6.971  -0.022  0.00  0.00    +0.080 A 
ATOM      5  C   UNL     1       3.305  -6.209  -0.877  0.00  0.00    +0.042 A 
ATOM      6  C   UNL     1       3.300  -4.840  -0.887  0.00  0.00    +0.045 A 
ATOM      7  S   UNL     1       4.185  -7.467  -1.770  0.00  0.00    -0.061 S 
ATOM      8  C   UNL     1       3.422  -8.878  -0.982  0.00  0.00    +0.136 A 
ATOM      9  N   UNL     1       2.592  -8.311  -0.135  0.00  0.00    -0.233 NA
ENDROOT
BRANCH   1  11
ATOM     10  C   UNL     1       1.290  -2.150   0.022  0.00  0.00    +0.123 C 
ATOM     11  N   UNL     1       2.429  -2.784  -0.002  0.00  0.00    -0.255 NA
BRANCH  10  16
ATOM     12  C   UNL     1       0.034   1.382   0.074  0.00  0.00    +0.001 A 
ATOM     13  C   UNL     1       1.223   2.094   0.063  0.00  0.00    +0.004 A 
ATOM     14  C   UNL     1       2.434   1.430   0.038  0.00  0.00    +0.046 A 
ATOM     15  C   UNL     1       2.468   0.045   0.025  0.00  0.00    +0.125 A 
ATOM     16  C   UNL     1       1.267  -0.680   0.037  0.00  0.00    +0.034 A 
ATOM     17  C   UNL     1       0.048   0.004   0.062  0.00  0.00    +0.013 A 
BRANCH  15  18
ATOM     18  O   UNL     1       3.658  -0.608  -0.000  0.00  0.00    -0.506 OA
ATOM     19  H   UNL     1       4.017  -0.805   0.876  0.00  0.00    +0.292 HD
ENDBRANCH  15  18
ENDBRANCH  10  16
ENDBRANCH   1  11
BRANCH   8  20
ATOM     20  S   UNL     1       3.710 -10.593  -1.267  0.00  0.00    -0.089 S 
BRANCH  20  21
ATOM     21  C   UNL     1       2.586 -11.425  -0.112  0.00  0.00    +0.172 C 
BRANCH  21  22
ATOM     22  C   UNL     1       2.733 -12.918  -0.255  0.00  0.00    +0.227 C 
ATOM     23  O   UNL     1       3.518 -13.375  -1.057  0.00  0.00    -0.275 OA
ATOM     24  N   UNL     1       1.991 -13.744   0.509  0.00  0.00    -0.285 N 
ATOM     25  H   UNL     1       1.412 -13.380   1.197  0.00  0.00    +0.155 HD
BRANCH  24  26
ATOM     26  C   UNL     1       2.056 -15.127   0.310  0.00  0.00    +0.034 A 
ATOM     27  C   UNL     1       0.919 -15.908   0.473  0.00  0.00    +0.025 A 
ATOM     28  C   UNL     1       0.986 -17.273   0.276  0.00  0.00    +0.034 A 
ATOM     29  C   UNL     1       2.184 -17.863  -0.084  0.00  0.00    +0.126 A 
ATOM     30  C   UNL     1       3.318 -17.089  -0.246  0.00  0.00    +0.034 A 
ATOM     31  C   UNL     1       3.256 -15.722  -0.057  0.00  0.00    +0.025 A 
BRANCH  29  32
ATOM     32  N   UNL     1       2.253 -19.326  -0.294  0.00  0.00    +0.056 N 
ATOM     33  O   UNL     1       1.262 -20.005  -0.152  0.00  0.00    -0.126 OA
ATOM     34  O   UNL     1       3.300 -19.843  -0.609  0.00  0.00    -0.126 OA
ENDBRANCH  29  32
ENDBRANCH  24  26
ENDBRANCH  21  22
ENDBRANCH  20  21
ENDBRANCH   8  20
TORSDOF 8
