REMARK  Name = ZINC39450505
REMARK  6 active torsions:
REMARK  status: ('A' for Active; 'I' for Inactive)
REMARK    1  A    between atoms: C_1  and  C_2
REMARK    2  A    between atoms: C_5  and  N_9
REMARK    3  A    between atoms: C_19  and  S_20
REMARK    4  A    between atoms: S_20  and  C_21
REMARK    5  A    between atoms: C_21  and  C_23
REMARK    6  A    between atoms: C_21  and  C_24
REMARK                            x       y       z     vdW  Elec       q    Type
REMARK                         _______ _______ _______ _____ _____    ______ ____
ROOT
ATOM      1  N   UNL     1      -0.347  -3.188   0.323  0.00  0.00    -0.255 N 
ATOM      2  C   UNL     1      -0.385  -3.619  -0.960  0.00  0.00    +0.267 A 
ATOM      3  O   UNL     1      -0.620  -2.853  -1.876  0.00  0.00    -0.267 OA
ATOM      4  C   UNL     1      -0.131  -5.045  -1.206  0.00  0.00    +0.065 A 
ATOM      5  C   UNL     1      -0.147  -5.585  -2.491  0.00  0.00    +0.015 A 
ATOM      6  C   UNL     1       0.096  -6.919  -2.664  0.00  0.00    +0.001 A 
ATOM      7  C   UNL     1       0.358  -7.740  -1.575  0.00  0.00    +0.002 A 
ATOM      8  C   UNL     1       0.380  -7.238  -0.304  0.00  0.00    +0.028 A 
ATOM      9  C   UNL     1       0.136  -5.877  -0.095  0.00  0.00    +0.079 A 
ATOM     10  N   UNL     1       0.148  -5.337   1.146  0.00  0.00    -0.223 NA
ATOM     11  C   UNL     1      -0.076  -4.061   1.340  0.00  0.00    +0.177 A 
ENDROOT
BRANCH   1  16
ATOM     12  C   UNL     1      -1.296   2.287   1.481  0.00  0.00    +0.047 C 
ATOM     13  C   UNL     1      -1.044   0.833   1.174  0.00  0.00    -0.015 A 
ATOM     14  C   UNL     1       0.240   0.396   0.909  0.00  0.00    +0.008 A 
ATOM     15  C   UNL     1       0.474  -0.936   0.626  0.00  0.00    +0.027 A 
ATOM     16  C   UNL     1      -0.583  -1.838   0.609  0.00  0.00    +0.055 A 
ATOM     17  C   UNL     1      -1.872  -1.398   0.876  0.00  0.00    +0.065 A 
ATOM     18  C   UNL     1      -2.100  -0.064   1.163  0.00  0.00    +0.128 A 
ATOM     19  F   UNL     1      -3.353   0.365   1.429  0.00  0.00    -0.205 F 
ENDBRANCH   1  16
BRANCH  11  20
ATOM     20  S   UNL     1      -0.033  -3.441   2.989  0.00  0.00    -0.075 S 
BRANCH  20  21
ATOM     21  C   UNL     1       0.352  -4.900   3.996  0.00  0.00    +0.137 C 
ATOM     22  C   UNL     1      -0.800  -5.902   3.903  0.00  0.00    +0.029 C 
BRANCH  21  23
ATOM     23  C   UNL     1       0.540  -4.484   5.432  0.00  0.00    +0.230 C 
ATOM     24  O   UNL     1       0.011  -3.473   5.845  0.00  0.00    -0.274 OA
ATOM     25  N   UNL     1       1.297  -5.234   6.258  0.00  0.00    -0.285 N 
ATOM     26  C   UNL     1       2.314  -4.689   6.897  0.00  0.00    +0.036 C 
ATOM     27  C   UNL     1       2.699  -3.301   6.617  0.00  0.00    +0.025 C 
ATOM     28  C   UNL     1       3.736  -2.738   7.266  0.00  0.00    +0.032 C 
ATOM     29  C   UNL     1       4.489  -3.510   8.259  0.00  0.00    +0.095 C 
ATOM     30  N   UNL     1       5.522  -3.250   9.038  0.00  0.00    -0.190 NA
ATOM     31  C   UNL     1       5.812  -4.339   9.769  0.00  0.00    +0.369 C 
ATOM     32  O   UNL     1       6.820  -4.405  10.671  0.00  0.00    -0.243 OA
ATOM     33  N   UNL     1       4.994  -5.330   9.500  0.00  0.00    -0.190 NA
ATOM     34  C   UNL     1       4.111  -4.907   8.550  0.00  0.00    +0.097 C 
ATOM     35  C   UNL     1       3.063  -5.476   7.901  0.00  0.00    +0.053 C 
ATOM     36  H   UNL     1       1.094  -6.174   6.382  0.00  0.00    +0.155 HD
ENDBRANCH  21  23
ENDBRANCH  20  21
ENDBRANCH  11  20
TORSDOF 4
