REMARK  Name = ZINC11898364
REMARK  9 active torsions:
REMARK  status: ('A' for Active; 'I' for Inactive)
REMARK    1  A    between atoms: C_1  and  N_2
REMARK    2  A    between atoms: C_6  and  C_7
REMARK    3  A    between atoms: C_7  and  C_9
REMARK    4  A    between atoms: C_7  and  N_60
REMARK    5  A    between atoms: C_9  and  N_10
REMARK    6  A    between atoms: C_11  and  C_13
REMARK    7  A    between atoms: N_15  and  C_16
REMARK    8  A    between atoms: C_19  and  O_22
REMARK    9  A    between atoms: O_22  and  C_23
REMARK                            x       y       z     vdW  Elec       q    Type
REMARK                         _______ _______ _______ _____ _____    ______ ____
ROOT
ATOM      1  C   UNL     1       5.048  -6.842  -0.484  0.00  0.00    -0.003 C 
ENDROOT
BRANCH   1  11
ATOM      2  C   UNL     1       6.075  -4.833  -1.370  0.00  0.00    -0.073 C 
ATOM      3  C   UNL     1       7.127  -4.377  -2.381  0.00  0.00    +0.017 C 
ATOM      4  C   UNL     1       6.703  -4.763  -3.774  0.00  0.00    -0.048 A 
ATOM      5  C   UNL     1       7.324  -4.145  -4.850  0.00  0.00    +0.004 A 
ATOM      6  C   UNL     1       6.971  -4.476  -6.143  0.00  0.00    +0.000 A 
ATOM      7  C   UNL     1       5.994  -5.429  -6.367  0.00  0.00    +0.000 A 
ATOM      8  C   UNL     1       5.374  -6.042  -5.297  0.00  0.00    +0.002 A 
ATOM      9  C   UNL     1       5.726  -5.710  -3.997  0.00  0.00    -0.061 A 
ATOM     10  C   UNL     1       5.019  -6.404  -2.863  0.00  0.00    -0.042 C 
ATOM     11  N   UNL     1       5.798  -6.262  -1.621  0.00  0.00    +0.389 N 
ATOM     12  H   UNL     1       6.688  -6.763  -1.725  0.00  0.00    -0.080 HD
ENDBRANCH   1  11
BRANCH   1  18
ATOM     13  C   UNL     1       3.603  -8.859   1.376  0.00  0.00    +0.148 C 
ATOM     14  N   UNL     1       4.460  -9.222   0.244  0.00  0.00    -0.355 N 
ATOM     15  C   UNL     1       4.745 -10.492  -0.161  0.00  0.00    +0.085 A 
ATOM     16  C   UNL     1       5.567 -10.420  -1.227  0.00  0.00    +0.019 A 
ATOM     17  C   UNL     1       5.793  -9.055  -1.494  0.00  0.00    +0.021 A 
ATOM     18  C   UNL     1       5.100  -8.345  -0.581  0.00  0.00    +0.006 A 
ENDBRANCH   1  18
BRANCH   1  19
ATOM     19  C   UNL     1       3.591  -6.379  -0.518  0.00  0.00    +0.095 C 
BRANCH  19  20
ATOM     20  N   UNL     1       3.535  -4.927  -0.331  0.00  0.00    -0.309 N 
ATOM     21  C   UNL     1       2.363  -4.275  -0.464  0.00  0.00    +0.299 C 
ATOM     22  O   UNL     1       1.354  -4.890  -0.738  0.00  0.00    -0.265 OA
ATOM     23  H   UNL     1       4.341  -4.435  -0.111  0.00  0.00    +0.149 HD
BRANCH  21  24
ATOM     24  C   UNL     1       2.306  -2.795  -0.273  0.00  0.00    +0.303 C 
ATOM     25  O   UNL     1       3.316  -2.179   0.002  0.00  0.00    -0.265 OA
ATOM     26  N   UNL     1       1.134  -2.143  -0.406  0.00  0.00    -0.278 N 
ATOM     27  H   UNL     1       0.314  -2.642  -0.540  0.00  0.00    +0.155 HD
BRANCH  26  28
ATOM     28  C   UNL     1       1.101  -0.746  -0.350  0.00  0.00    +0.034 A 
ATOM     29  C   UNL     1       2.147  -0.004  -0.884  0.00  0.00    +0.027 A 
ATOM     30  C   UNL     1       2.114   1.375  -0.829  0.00  0.00    +0.047 A 
ATOM     31  C   UNL     1       1.035   2.020  -0.241  0.00  0.00    +0.120 A 
ATOM     32  C   UNL     1      -0.010   1.280   0.292  0.00  0.00    +0.047 A 
ATOM     33  C   UNL     1       0.022  -0.099   0.238  0.00  0.00    +0.027 A 
BRANCH  31  34
ATOM     34  O   UNL     1       1.003   3.378  -0.187  0.00  0.00    -0.495 OA
ATOM     35  C   UNL     1      -0.138   3.976   0.433  0.00  0.00    +0.277 C 
ENDBRANCH  31  34
ENDBRANCH  26  28
ENDBRANCH  21  24
ENDBRANCH  19  20
ENDBRANCH   1  19
TORSDOF 7
