REMARK  Name = ZINC06028925
REMARK  5 active torsions:
REMARK  status: ('A' for Active; 'I' for Inactive)
REMARK    1  A    between atoms: C_11  and  S_13
REMARK    2  A    between atoms: S_13  and  C_14
REMARK    3  A    between atoms: C_14  and  C_15
REMARK    4  A    between atoms: C_15  and  O_16
REMARK    5  A    between atoms: O_16  and  C_17
REMARK                            x       y       z     vdW  Elec       q    Type
REMARK                         _______ _______ _______ _____ _____    ______ ____
ROOT
ATOM      1  C   UNL     1      -0.017   1.363   0.009  0.00  0.00    +0.001 A 
ATOM      2  C   UNL     1       1.171   2.086   0.002  0.00  0.00    +0.002 A 
ATOM      3  C   UNL     1       2.379   1.453  -0.013  0.00  0.00    +0.028 A 
ATOM      4  C   UNL     1       2.434   0.052  -0.021  0.00  0.00    +0.072 A 
ATOM      5  C   UNL     1       1.222  -0.676  -0.013  0.00  0.00    +0.014 A 
ATOM      6  C   UNL     1       0.002  -0.004   0.002  0.00  0.00    +0.011 A 
ATOM      7  C   UNL     1       1.622  -2.091  -0.025  0.00  0.00    +0.061 C 
ATOM      8  C   UNL     1       0.781  -3.219  -0.023  0.00  0.00    +0.218 C 
ATOM      9  N   UNL     1      -0.566  -3.209  -0.016  0.00  0.00    -0.202 N 
ATOM     10  N   UNL     1      -0.982  -4.548  -0.017  0.00  0.00    -0.135 NA
ATOM     11  C   UNL     1       0.085  -5.295  -0.025  0.00  0.00    +0.274 C 
ATOM     12  O   UNL     1       1.175  -4.503  -0.034  0.00  0.00    -0.415 OA
ATOM     13  C   UNL     1       3.027  -2.071  -0.038  0.00  0.00    +0.125 C 
ATOM     14  N   UNL     1       3.449  -0.828  -0.035  0.00  0.00    -0.254 NA
ATOM     15  H   UNL     1      -1.138  -2.425  -0.011  0.00  0.00    +0.178 HD
ENDROOT
BRANCH  11  16
ATOM     16  S   UNL     1       0.100  -7.056  -0.029  0.00  0.00    -0.062 S 
BRANCH  16  17
ATOM     17  C   UNL     1      -1.656  -7.511  -0.022  0.00  0.00    +0.120 C 
BRANCH  17  18
ATOM     18  C   UNL     1      -1.789  -9.035  -0.025  0.00  0.00    +0.240 C 
BRANCH  18  19
ATOM     19  O   UNL     1      -3.172  -9.393  -0.019  0.00  0.00    -0.488 OA
BRANCH  19  20
ATOM     20  C   UNL     1      -3.466 -10.720  -0.021  0.00  0.00    +0.157 A 
ATOM     21  C   UNL     1      -3.617 -11.397  -1.223  0.00  0.00    +0.084 A 
ATOM     22  C   UNL     1      -3.916 -12.747  -1.222  0.00  0.00    +0.024 A 
ATOM     23  C   UNL     1      -4.066 -13.422  -0.025  0.00  0.00    +0.003 A 
ATOM     24  C   UNL     1      -3.916 -12.750   1.174  0.00  0.00    +0.024 A 
ATOM     25  C   UNL     1      -3.611 -11.402   1.179  0.00  0.00    +0.084 A 
ATOM     26 CL   UNL     1      -3.416 -10.561   2.685  0.00  0.00    -0.080 Cl
ATOM     27 CL   UNL     1      -3.430 -10.550  -2.727  0.00  0.00    -0.080 Cl
ENDBRANCH  19  20
ENDBRANCH  18  19
ENDBRANCH  17  18
ENDBRANCH  16  17
ENDBRANCH  11  16
TORSDOF 5
