REMARK  Name = ZINC12401144
REMARK  10 active torsions:
REMARK  status: ('A' for Active; 'I' for Inactive)
REMARK    1  A    between atoms: C_1  and  C_2
REMARK    2  A    between atoms: C_2  and  C_3
REMARK    3  A    between atoms: C_2  and  C_4
REMARK    4  A    between atoms: C_2  and  C_5
REMARK    5  A    between atoms: C_8  and  C_10
REMARK    6  A    between atoms: C_12  and  C_38
REMARK    7  A    between atoms: C_13  and  N_37
REMARK    8  A    between atoms: N_14  and  N_22
REMARK    9  A    between atoms: N_22  and  C_23
REMARK   10  A    between atoms: C_30  and  C_31
REMARK                            x       y       z     vdW  Elec       q    Type
REMARK                         _______ _______ _______ _____ _____    ______ ____
ROOT
ATOM      1  C   UNL     1      -2.510   1.471   2.001  0.00  0.00    +0.104 C 
ATOM      2  C   UNL     1      -3.513   2.071   2.942  0.00  0.00    +0.079 C 
ATOM      3  C   UNL     1      -4.397   3.011   2.518  0.00  0.00    +0.119 C 
ATOM      4  N   UNL     1      -4.390   3.424   1.207  0.00  0.00    -0.211 N 
ATOM      5  C   UNL     1      -3.805   2.655   0.238  0.00  0.00    +0.039 C 
ATOM      6  C   UNL     1      -2.905   1.703   0.564  0.00  0.00    +0.027 C 
ATOM      7  C   UNL     1      -2.311   0.898  -0.423  0.00  0.00    +0.162 C 
ATOM      8  O   UNL     1      -1.500   0.055  -0.096  0.00  0.00    -0.292 OA
ATOM      9  C   UNL     1      -2.661   1.061  -1.877  0.00  0.00    +0.080 C 
ATOM     10  C   UNL     1      -4.093   1.593  -1.989  0.00  0.00    +0.014 C 
ATOM     11  C   UNL     1      -4.188   2.902  -1.201  0.00  0.00    +0.053 C 
ENDROOT
BRANCH   1  15
ATOM     12  C   UNL     1       1.041   3.622   2.564  0.00  0.00    -0.005 A 
ATOM     13  C   UNL     1       1.121   2.292   2.811  0.00  0.00    +0.012 A 
ATOM     14  C   UNL     1      -0.009   1.511   2.653  0.00  0.00    +0.012 A 
ATOM     15  C   UNL     1      -1.162   2.098   2.249  0.00  0.00    +0.003 A 
ATOM     16  S   UNL     1      -0.670   3.807   2.091  0.00  0.00    -0.097 S 
BRANCH  12  18
ATOM     17  C   UNL     1       3.262   4.320   1.709  0.00  0.00    +0.016 C 
ATOM     18  C   UNL     1       2.117   4.672   2.662  0.00  0.00    -0.006 C 
ATOM     19  C   UNL     1       1.537   6.035   2.280  0.00  0.00    +0.016 C 
ATOM     20  C   UNL     1       2.647   4.727   4.096  0.00  0.00    +0.016 C 
ENDBRANCH  12  18
ENDBRANCH   1  15
BRANCH   3  21
ATOM     21  N   UNL     1      -5.300   3.551   3.402  0.00  0.00    -0.344 N 
ATOM     22  H   UNL     1      -5.932   4.222   3.100  0.00  0.00    +0.144 HD
ATOM     23  H   UNL     1      -5.306   3.260   4.327  0.00  0.00    +0.144 HD
ENDBRANCH   3  21
BRANCH   4  24
ATOM     24  N   UNL     1      -4.987   4.643   0.860  0.00  0.00    -0.257 N 
ATOM     25  H   UNL     1      -4.434   5.413   0.655  0.00  0.00    +0.171 HD
BRANCH  24  26
ATOM     26  C   UNL     1      -6.364   4.748   0.808  0.00  0.00    +0.078 A 
ATOM     27  C   UNL     1      -7.178   3.640   0.981  0.00  0.00    +0.098 A 
ATOM     28  C   UNL     1      -8.567   3.834   0.920  0.00  0.00    +0.267 A 
ATOM     29  O   UNL     1      -9.322   2.886   1.072  0.00  0.00    -0.266 OA
ATOM     30  N   UNL     1      -9.069   5.059   0.689  0.00  0.00    -0.243 N 
ATOM     31  H   UNL     1     -10.032   5.165   0.648  0.00  0.00    +0.192 HD
ATOM     32  N   UNL     1      -8.331   6.094   0.522  0.00  0.00    -0.169 NA
ATOM     33  C   UNL     1      -7.022   6.037   0.563  0.00  0.00    +0.114 A 
BRANCH  33  34
ATOM     34  C   UNL     1      -6.213   7.264   0.363  0.00  0.00    +0.004 A 
ATOM     35  C   UNL     1      -5.047   7.461   1.101  0.00  0.00    +0.010 A 
ATOM     36  C   UNL     1      -4.295   8.601   0.907  0.00  0.00    +0.001 A 
ATOM     37  C   UNL     1      -4.703   9.555  -0.009  0.00  0.00    +0.000 A 
ATOM     38  C   UNL     1      -5.862   9.367  -0.740  0.00  0.00    +0.001 A 
ATOM     39  C   UNL     1      -6.619   8.227  -0.558  0.00  0.00    +0.010 A 
ENDBRANCH  33  34
ENDBRANCH  24  26
ENDBRANCH   4  24
BRANCH   2  40
ATOM     40  C   UNL     1      -3.538   1.646   4.309  0.00  0.00    +0.099 C 
ATOM     41  N   UNL     1      -3.558   1.308   5.393  0.00  0.00    -0.191 NA
ENDBRANCH   2  40
TORSDOF 7
