REMARK  Name = ZINC22627628
REMARK  6 active torsions:
REMARK  status: ('A' for Active; 'I' for Inactive)
REMARK    1  A    between atoms: C_1  and  C_2
REMARK    2  A    between atoms: C_6  and  C_8
REMARK    3  A    between atoms: C_8  and  C_10
REMARK    4  A    between atoms: C_8  and  N_20
REMARK    5  A    between atoms: C_16  and  C_18
REMARK    6  A    between atoms: C_23  and  O_26
REMARK                            x       y       z     vdW  Elec       q    Type
REMARK                         _______ _______ _______ _____ _____    ______ ____
ROOT
ATOM      1  C   UNL     1      -0.013   1.086   0.008  0.00  0.00    +0.006 C 
ENDROOT
BRANCH   1   2
ATOM      2  C   UNL     1      -0.742   1.585  -1.213  0.00  0.00    +0.050 A 
ATOM      3  C   UNL     1      -1.534   0.914  -2.057  0.00  0.00    +0.282 A 
ATOM      4  N   UNL     1      -2.119   1.552  -3.125  0.00  0.00    -0.170 N 
ATOM      5  C   UNL     1      -1.848   2.876  -3.285  0.00  0.00    +0.199 A 
ATOM      6  S   UNL     1      -0.768   3.226  -1.918  0.00  0.00    -0.050 S 
ATOM      7  N   UNL     1      -2.471   3.326  -4.340  0.00  0.00    -0.205 NA
ATOM      8  C   UNL     1      -3.160   2.334  -4.900  0.00  0.00    +0.150 A 
ATOM      9  N   UNL     1      -2.983   1.242  -4.207  0.00  0.00    -0.147 NA
ATOM     10  C   UNL     1      -4.011   2.454  -6.138  0.00  0.00    +0.090 C 
ATOM     11  O   UNL     1      -1.766  -0.411  -1.854  0.00  0.00    -0.265 OA
ENDBRANCH   1   2
BRANCH   1  17
ATOM     12  C   UNL     1      -3.141   0.250   3.824  0.00  0.00    +0.044 C 
ATOM     13  C   UNL     1      -2.215   1.172   3.073  0.00  0.00    -0.050 A 
ATOM     14  C   UNL     1      -2.011   2.463   3.523  0.00  0.00    +0.003 A 
ATOM     15  C   UNL     1      -1.162   3.309   2.835  0.00  0.00    +0.000 A 
ATOM     16  C   UNL     1      -0.511   2.861   1.700  0.00  0.00    +0.002 A 
ATOM     17  C   UNL     1      -0.718   1.572   1.248  0.00  0.00    -0.056 A 
ATOM     18  C   UNL     1      -1.568   0.726   1.936  0.00  0.00    +0.005 A 
ENDBRANCH   1  17
BRANCH   1  19
ATOM     19  N   UNL     1       1.365   1.594  -0.002  0.00  0.00    +0.388 N 
ATOM     20  C   UNL     1       2.040   1.313   1.271  0.00  0.00    -0.075 C 
ATOM     21  C   UNL     1       3.417   1.981   1.280  0.00  0.00    +0.013 C 
ATOM     22  C   UNL     1       4.247   1.442   0.111  0.00  0.00    +0.111 C 
ATOM     23  C   UNL     1       3.500   1.705  -1.199  0.00  0.00    +0.013 C 
ATOM     24  C   UNL     1       2.121   1.045  -1.136  0.00  0.00    -0.075 C 
ATOM     25  H   UNL     1       1.323   2.687  -0.126  0.00  0.00    -0.080 HD
BRANCH  22  26
ATOM     26  O   UNL     1       5.513   2.104   0.080  0.00  0.00    -0.392 OA
ATOM     27  H   UNL     1       6.249   1.847  -0.696  0.00  0.00    +0.210 HD
ENDBRANCH  22  26
ENDBRANCH   1  19
TORSDOF 4
