REMARK  Name = ZINC63128291
REMARK  5 active torsions:
REMARK  status: ('A' for Active; 'I' for Inactive)
REMARK    1  A    between atoms: C_7  and  C_20
REMARK    2  A    between atoms: N_10  and  S_11
REMARK    3  A    between atoms: S_11  and  C_14
REMARK    4  A    between atoms: C_20  and  C_21
REMARK    5  A    between atoms: C_21  and  N_22
REMARK                            x       y       z     vdW  Elec       q    Type
REMARK                         _______ _______ _______ _____ _____    ______ ____
ROOT
ATOM      1  C   UNL     1       0.214   1.465   0.160  0.00  0.00    +0.000 A 
ATOM      2  C   UNL     1       1.446   2.093   0.129  0.00  0.00    +0.002 A 
ATOM      3  C   UNL     1       2.603   1.347   0.051  0.00  0.00    +0.025 A 
ATOM      4  C   UNL     1       2.540  -0.048   0.005  0.00  0.00    +0.054 A 
ATOM      5  C   UNL     1       1.301  -0.666   0.037  0.00  0.00    -0.020 A 
ATOM      6  C   UNL     1       0.144   0.085   0.114  0.00  0.00    +0.006 A 
ATOM      7  C   UNL     1       1.509  -2.163  -0.024  0.00  0.00    +0.038 C 
ATOM      8  C   UNL     1       3.034  -2.338  -0.097  0.00  0.00    +0.139 C 
ATOM      9  N   UNL     1       3.578  -0.977  -0.073  0.00  0.00    -0.206 N 
ENDROOT
BRANCH   9  10
ATOM     10  S   UNL     1       5.189  -0.598  -0.131  0.00  0.00    +0.048 S 
ATOM     11  O   UNL     1       5.796  -1.696  -0.800  0.00  0.00    -0.155 OA
ATOM     12  O   UNL     1       5.235   0.707  -0.692  0.00  0.00    -0.155 OA
BRANCH  10  13
ATOM     13  C   UNL     1       5.720  -0.553   1.603  0.00  0.00    +0.151 C 
ATOM     14  C   UNL     1       4.832   0.419   2.382  0.00  0.00    +0.028 C 
ATOM     15  C   UNL     1       5.280   0.458   3.845  0.00  0.00    +0.002 C 
ATOM     16  C   UNL     1       6.736   0.924   3.921  0.00  0.00    +0.000 C 
ATOM     17  C   UNL     1       7.623  -0.048   3.141  0.00  0.00    +0.002 C 
ATOM     18  C   UNL     1       7.176  -0.087   1.678  0.00  0.00    +0.028 C 
ENDBRANCH  10  13
ENDBRANCH   9  10
BRANCH   7  19
ATOM     19  C   UNL     1       0.952  -2.831   1.234  0.00  0.00    -0.010 C 
BRANCH  19  20
ATOM     20  C   UNL     1       1.048  -4.351   1.090  0.00  0.00    -0.086 C 
BRANCH  20  21
ATOM     21  N   UNL     1       0.403  -4.995   2.242  0.00  0.00    +0.378 N 
ATOM     22  H   UNL     1       0.868  -4.708   3.091  0.00  0.00    -0.090 HD
ATOM     23  H   UNL     1      -0.567  -4.721   2.281  0.00  0.00    -0.090 HD
ATOM     24  H   UNL     1       0.467  -5.997   2.147  0.00  0.00    -0.090 HD
ENDBRANCH  20  21
ENDBRANCH  19  20
ENDBRANCH   7  19
TORSDOF 5
