REMARK  Name = ZINC11953383
REMARK  8 active torsions:
REMARK  status: ('A' for Active; 'I' for Inactive)
REMARK    1  A    between atoms: C_1  and  C_2
REMARK    2  A    between atoms: C_2  and  O_3
REMARK    3  A    between atoms: O_3  and  C_4
REMARK    4  A    between atoms: C_6  and  C_20
REMARK    5  A    between atoms: C_9  and  O_10
REMARK    6  A    between atoms: O_10  and  C_11
REMARK    7  A    between atoms: C_11  and  C_12
REMARK    8  A    between atoms: N_21  and  O_22
REMARK                            x       y       z     vdW  Elec       q    Type
REMARK                         _______ _______ _______ _____ _____    ______ ____
ROOT
ATOM      1  C   UNL     1      -1.498  -1.849   0.006  0.00  0.00    +0.164 A 
ATOM      2  C   UNL     1      -0.391  -2.676  -0.003  0.00  0.00    +0.059 A 
ATOM      3  C   UNL     1      -0.558  -4.063  -0.008  0.00  0.00    +0.001 A 
ATOM      4  C   UNL     1      -1.844  -4.608  -0.004  0.00  0.00    +0.033 A 
ATOM      5  C   UNL     1      -2.945  -3.777   0.005  0.00  0.00    +0.087 A 
ATOM      6  C   UNL     1      -2.778  -2.399   0.016  0.00  0.00    +0.181 A 
ATOM      7 CL   UNL     1      -4.543  -4.457   0.009  0.00  0.00    -0.080 Cl
ENDROOT
BRANCH   3   8
ATOM      8  C   UNL     1       0.621  -4.950  -0.019  0.00  0.00    +0.160 C 
ATOM      9  N   UNL     1       0.465  -6.234  -0.024  0.00  0.00    -0.095 NA
BRANCH   9  10
ATOM     10  O   UNL     1       1.596  -7.085  -0.034  0.00  0.00    -0.409 OA
ATOM     11  H   UNL     1       1.380  -8.028  -0.037  0.00  0.00    +0.328 HD
ENDBRANCH   9  10
ENDBRANCH   3   8
BRANCH   1  12
ATOM     12  O   UNL     1      -1.339  -0.499   0.012  0.00  0.00    -0.489 OA
BRANCH  12  14
ATOM     13  C   UNL     1      -0.019   1.526   0.010  0.00  0.00    +0.048 C 
ATOM     14  C   UNL     1       0.002  -0.004   0.002  0.00  0.00    +0.226 C 
ENDBRANCH  12  14
ENDBRANCH   1  12
BRANCH   6  15
ATOM     15  O   UNL     1      -3.866  -1.584   0.030  0.00  0.00    -0.482 OA
BRANCH  15  16
ATOM     16  C   UNL     1      -4.397  -1.188  -1.236  0.00  0.00    +0.266 C 
BRANCH  16  17
ATOM     17  C   UNL     1      -5.591  -0.294  -1.022  0.00  0.00    +0.008 A 
ATOM     18  C   UNL     1      -5.999   0.021   0.261  0.00  0.00    +0.008 A 
ATOM     19  C   UNL     1      -7.094   0.841   0.457  0.00  0.00    +0.000 A 
ATOM     20  C   UNL     1      -7.782   1.347  -0.630  0.00  0.00    +0.001 A 
ATOM     21  C   UNL     1      -7.376   1.034  -1.913  0.00  0.00    +0.020 A 
ATOM     22  C   UNL     1      -6.276   0.217  -2.110  0.00  0.00    +0.047 A 
ATOM     23 CL   UNL     1      -5.761  -0.172  -3.721  0.00  0.00    -0.083 Cl
ENDBRANCH  16  17
ENDBRANCH  15  16
ENDBRANCH   6  15
TORSDOF 7
