REMARK  Name = ZINC35070163
REMARK  13 active torsions:
REMARK  status: ('A' for Active; 'I' for Inactive)
REMARK    1  A    between atoms: C_1  and  C_2
REMARK    2  A    between atoms: C_2  and  C_3
REMARK    3  A    between atoms: C_3  and  C_5
REMARK    4  A    between atoms: C_3  and  N_23
REMARK    5  A    between atoms: N_15  and  C_16
REMARK    6  A    between atoms: N_23  and  C_24
REMARK    7  A    between atoms: C_24  and  C_25
REMARK    8  A    between atoms: C_25  and  O_26
REMARK    9  A    between atoms: O_26  and  C_27
REMARK   10  A    between atoms: N_30  and  C_31
REMARK   11  A    between atoms: C_31  and  C_32
REMARK   12  A    between atoms: C_31  and  C_33
REMARK   13  A    between atoms: C_31  and  C_34
REMARK                            x       y       z     vdW  Elec       q    Type
REMARK                         _______ _______ _______ _____ _____    ______ ____
ROOT
ATOM      1  C   UNL     1       1.497  -2.495   1.463  0.00  0.00    +0.138 A 
ATOM      2  N   UNL     1       0.446  -3.016   0.906  0.00  0.00    -0.231 NA
ATOM      3  C   UNL     1       0.391  -4.333   0.585  0.00  0.00    +0.078 A 
ATOM      4  C   UNL     1      -0.739  -4.894  -0.015  0.00  0.00    +0.028 A 
ATOM      5  C   UNL     1      -0.752  -6.235  -0.325  0.00  0.00    +0.002 A 
ATOM      6  C   UNL     1       0.345  -7.040  -0.048  0.00  0.00    +0.001 A 
ATOM      7  C   UNL     1       1.471  -6.510   0.544  0.00  0.00    +0.015 A 
ATOM      8  C   UNL     1       1.505  -5.155   0.864  0.00  0.00    +0.065 A 
ATOM      9  C   UNL     1       2.679  -4.535   1.495  0.00  0.00    +0.266 A 
ATOM     10  O   UNL     1       3.672  -5.186   1.762  0.00  0.00    -0.267 OA
ATOM     11  N   UNL     1       2.616  -3.209   1.763  0.00  0.00    -0.263 N 
ENDROOT
BRANCH  11  12
ATOM     12  C   UNL     1       3.709  -2.568   2.360  0.00  0.00    +0.051 A 
ATOM     13  C   UNL     1       4.040  -2.841   3.680  0.00  0.00    +0.027 A 
ATOM     14  C   UNL     1       5.119  -2.208   4.266  0.00  0.00    +0.017 A 
ATOM     15  C   UNL     1       5.869  -1.302   3.538  0.00  0.00    +0.018 A 
ATOM     16  C   UNL     1       5.541  -1.027   2.222  0.00  0.00    +0.017 A 
ATOM     17  C   UNL     1       4.468  -1.663   1.630  0.00  0.00    +0.027 A 
ATOM     18 BR   UNL     1       7.345  -0.436   4.343  0.00  0.00    -0.050 Br
ENDBRANCH  11  12
BRANCH   1  19
ATOM     19  C   UNL     1       1.479  -1.024   1.789  0.00  0.00    +0.144 C 
BRANCH  19  20
ATOM     20  N   UNL     1       0.469  -0.764   2.817  0.00  0.00    -0.273 N 
ATOM     21  C   UNL     1       0.813  -0.125   3.953  0.00  0.00    +0.303 C 
ATOM     22  O   UNL     1       1.962   0.235   4.124  0.00  0.00    -0.253 OA
ATOM     23  N   UNL     1      -0.116   0.115   4.900  0.00  0.00    -0.294 N 
ATOM     24  H   UNL     1      -1.033  -0.173   4.763  0.00  0.00    +0.151 HD
BRANCH  23  25
ATOM     25  C   UNL     1       0.258   0.809   6.134  0.00  0.00    +0.028 C 
ATOM     26  C   UNL     1       0.804   2.196   5.793  0.00  0.00    +0.031 C 
ATOM     27  C   UNL     1      -0.973   0.952   7.032  0.00  0.00    +0.031 C 
ATOM     28  C   UNL     1       1.332   0.003   6.867  0.00  0.00    +0.031 C 
ENDBRANCH  23  25
BRANCH  20  29
ATOM     29  C   UNL     1      -0.915  -1.198   2.611  0.00  0.00    +0.138 C 
BRANCH  29  30
ATOM     30  C   UNL     1      -1.126  -2.561   3.274  0.00  0.00    +0.178 C 
BRANCH  30  31
ATOM     31  O   UNL     1      -0.952  -2.436   4.687  0.00  0.00    -0.381 OA
ATOM     32  C   UNL     1      -1.018  -3.676   5.392  0.00  0.00    +0.194 C 
ENDBRANCH  30  31
ENDBRANCH  29  30
ENDBRANCH  20  29
ENDBRANCH  19  20
BRANCH  19  34
ATOM     33  C   UNL     1       1.216   1.270   0.834  0.00  0.00    +0.006 C 
ATOM     34  C   UNL     1       1.139  -0.227   0.527  0.00  0.00    +0.027 C 
ENDBRANCH  19  34
ENDBRANCH   1  19
TORSDOF 8
