REMARK  Name = ZINC12630682
REMARK  4 active torsions:
REMARK  status: ('A' for Active; 'I' for Inactive)
REMARK    1  A    between atoms: C_1  and  N_2
REMARK    2  A    between atoms: N_11  and  C_12
REMARK    3  A    between atoms: C_12  and  C_14
REMARK    4  A    between atoms: C_14  and  C_15
REMARK                            x       y       z     vdW  Elec       q    Type
REMARK                         _______ _______ _______ _____ _____    ______ ____
ROOT
ATOM      1  C   UNL     1       4.248   5.046  -1.194  0.00  0.00    +0.242 C 
ATOM      2  O   UNL     1       4.372   5.775  -0.229  0.00  0.00    -0.273 OA
ENDROOT
BRANCH   1  13
ATOM      3  C   UNL     1       7.152   5.381  -4.281  0.00  0.00    +0.151 C 
ATOM      4  N   UNL     1       7.127   6.167  -3.045  0.00  0.00    -0.324 N 
ATOM      5  C   UNL     1       8.107   7.112  -2.809  0.00  0.00    +0.057 A 
ATOM      6  C   UNL     1       9.196   7.461  -3.624  0.00  0.00    +0.027 A 
ATOM      7  C   UNL     1      10.084   8.434  -3.232  0.00  0.00    +0.002 A 
ATOM      8  C   UNL     1       9.935   9.099  -2.026  0.00  0.00    +0.001 A 
ATOM      9  C   UNL     1       8.871   8.776  -1.204  0.00  0.00    +0.017 A 
ATOM     10  C   UNL     1       7.982   7.803  -1.595  0.00  0.00    +0.039 A 
ATOM     11  S   UNL     1       6.519   7.099  -0.876  0.00  0.00    -0.052 S 
ATOM     12  C   UNL     1       6.141   5.965  -2.132  0.00  0.00    +0.166 A 
ATOM     13  N   UNL     1       5.125   5.106  -2.191  0.00  0.00    -0.156 NA
ENDBRANCH   1  13
BRANCH   1  14
ATOM     14  C   UNL     1       3.098   4.074  -1.261  0.00  0.00    +0.147 C 
BRANCH  14  15
ATOM     15  C   UNL     1       2.244   4.207   0.002  0.00  0.00    +0.216 C 
ATOM     16  C   UNL     1       1.161   3.158   0.007  0.00  0.00    +0.007 A 
ATOM     17  C   UNL     1       1.179   1.782   0.000  0.00  0.00    +0.008 A 
ATOM     18  C   UNL     1      -0.013   1.076   0.008  0.00  0.00    +0.000 A 
ATOM     19  C   UNL     1      -1.222   1.749   0.017  0.00  0.00    +0.001 A 
ATOM     20  C   UNL     1      -1.251   3.128   0.030  0.00  0.00    +0.015 A 
ATOM     21  C   UNL     1      -0.054   3.847   0.022  0.00  0.00    +0.066 A 
ATOM     22  C   UNL     1       0.241   5.292   0.026  0.00  0.00    +0.340 C 
ATOM     23  O   UNL     1      -0.596   6.172   0.039  0.00  0.00    -0.245 OA
ATOM     24  O   UNL     1       1.569   5.494   0.015  0.00  0.00    -0.453 OA
ENDBRANCH  14  15
ENDBRANCH   1  14
TORSDOF 3
