REMARK  Name = ZINC14274122
REMARK  6 active torsions:
REMARK  status: ('A' for Active; 'I' for Inactive)
REMARK    1  A    between atoms: C_3  and  C_9
REMARK    2  A    between atoms: C_12  and  C_14
REMARK    3  A    between atoms: N_16  and  C_17
REMARK    4  A    between atoms: C_17  and  N_19
REMARK    5  A    between atoms: N_19  and  C_20
REMARK    6  A    between atoms: C_21  and  C_29
REMARK                            x       y       z     vdW  Elec       q    Type
REMARK                         _______ _______ _______ _____ _____    ______ ____
ROOT
ATOM      1  C   UNL     1      -2.926   8.753  -4.561  0.00  0.00    +0.285 C 
ATOM      2  O   UNL     1      -2.908   7.868  -5.396  0.00  0.00    -0.266 OA
ATOM      3  N   UNL     1      -2.613   8.477  -3.280  0.00  0.00    -0.261 N 
ATOM      4  H   UNL     1      -2.627   9.183  -2.614  0.00  0.00    +0.157 HD
ENDROOT
BRANCH   1   8
ATOM      5  C   UNL     1      -3.716  12.270  -4.829  0.00  0.00    +0.137 A 
ATOM      6  C   UNL     1      -3.900  11.904  -6.132  0.00  0.00    +0.051 A 
ATOM      7  C   UNL     1      -3.624  10.536  -6.218  0.00  0.00    +0.055 A 
ATOM      8  C   UNL     1      -3.289  10.117  -4.948  0.00  0.00    +0.190 A 
ATOM      9  O   UNL     1      -3.348  11.186  -4.125  0.00  0.00    -0.450 OA
BRANCH   5  12
ATOM     10  C   UNL     1      -3.448  15.989  -4.394  0.00  0.00    +0.021 A 
ATOM     11  C   UNL     1      -3.276  14.719  -4.905  0.00  0.00    +0.014 A 
ATOM     12  C   UNL     1      -3.891  13.630  -4.284  0.00  0.00    +0.036 A 
ATOM     13  C   UNL     1      -4.670  13.834  -3.141  0.00  0.00    +0.053 A 
ATOM     14  C   UNL     1      -4.829  15.109  -2.636  0.00  0.00    +0.040 A 
ATOM     15  C   UNL     1      -4.220  16.184  -3.261  0.00  0.00    +0.042 A 
ATOM     16 CL   UNL     1      -4.425  17.785  -2.621  0.00  0.00    -0.083 Cl
ATOM     17 CL   UNL     1      -5.433  12.486  -2.357  0.00  0.00    -0.083 Cl
ENDBRANCH   5  12
ENDBRANCH   1   8
BRANCH   3  18
ATOM     18  C   UNL     1      -2.278   7.221  -2.923  0.00  0.00    +0.142 C 
ATOM     19  S   UNL     1      -2.252   5.976  -4.098  0.00  0.00    -0.018 S 
BRANCH  18  20
ATOM     20  N   UNL     1      -1.965   6.945  -1.641  0.00  0.00    -0.290 N 
ATOM     21  H   UNL     1      -1.980   7.651  -0.976  0.00  0.00    +0.154 HD
BRANCH  20  22
ATOM     22  C   UNL     1      -1.621   5.653  -1.274  0.00  0.00    +0.089 A 
ATOM     23  C   UNL     1      -1.271   5.178  -0.019  0.00  0.00    +0.084 A 
ATOM     24  C   UNL     1      -0.951   3.765   0.100  0.00  0.00    -0.018 A 
ATOM     25  C   UNL     1      -1.032   3.059  -1.049  0.00  0.00    -0.004 A 
ATOM     26  S   UNL     1      -1.524   4.240  -2.273  0.00  0.00    -0.077 S 
ATOM     27  C   UNL     1      -0.761   1.597  -1.232  0.00  0.00    +0.043 C 
ATOM     28  C   UNL     1      -0.013   1.086   0.008  0.00  0.00    +0.005 C 
ATOM     29  C   UNL     1      -0.735   1.583   1.264  0.00  0.00    +0.005 C 
ATOM     30  C   UNL     1      -0.551   3.094   1.407  0.00  0.00    +0.037 C 
BRANCH  23  31
ATOM     31  C   UNL     1      -1.227   6.047   1.118  0.00  0.00    +0.102 C 
ATOM     32  N   UNL     1      -1.192   6.736   2.020  0.00  0.00    -0.191 NA
ENDBRANCH  23  31
ENDBRANCH  20  22
ENDBRANCH  18  20
ENDBRANCH   3  18
TORSDOF 6
