REMARK  Name = ZINC38684191
REMARK  14 active torsions:
REMARK  status: ('A' for Active; 'I' for Inactive)
REMARK    1  A    between atoms: C_1  and  C_2
REMARK    2  A    between atoms: C_2  and  C_3
REMARK    3  A    between atoms: C_2  and  C_4
REMARK    4  A    between atoms: C_4  and  O_5
REMARK    5  A    between atoms: O_5  and  C_6
REMARK    6  A    between atoms: C_9  and  C_14
REMARK    7  A    between atoms: C_11  and  O_12
REMARK    8  A    between atoms: O_12  and  C_13
REMARK    9  A    between atoms: C_19  and  O_28
REMARK   10  A    between atoms: C_23  and  N_27
REMARK   11  A    between atoms: C_24  and  C_25
REMARK   12  A    between atoms: O_28  and  C_29
REMARK   13  A    between atoms: C_29  and  C_31
REMARK   14  A    between atoms: C_36  and  N_37
REMARK                            x       y       z     vdW  Elec       q    Type
REMARK                         _______ _______ _______ _____ _____    ______ ____
ROOT
ATOM      1  C   UNL     1       2.207  -1.701   7.097  0.00  0.00    +0.098 C 
ATOM      2  C   UNL     1       2.325  -3.200   7.177  0.00  0.00    +0.008 A 
ATOM      3  C   UNL     1       1.202  -3.958   7.457  0.00  0.00    +0.012 A 
ATOM      4  C   UNL     1       1.291  -5.333   7.534  0.00  0.00    +0.047 A 
ATOM      5  C   UNL     1       2.512  -5.962   7.331  0.00  0.00    +0.135 A 
ATOM      6  C   UNL     1       3.639  -5.206   7.051  0.00  0.00    +0.093 A 
ATOM      7  C   UNL     1       3.547  -3.822   6.973  0.00  0.00    +0.138 A 
ATOM      8  O   UNL     1       4.659  -3.097   6.697  0.00  0.00    -0.441 OA
ATOM      9  C   UNL     1       4.695  -1.787   6.992  0.00  0.00    +0.199 C 
ATOM     10  C   UNL     1       3.567  -1.070   7.192  0.00  0.00    +0.098 C 
ENDROOT
BRANCH   1  14
ATOM     11  C   UNL     1       0.404  -0.623   3.372  0.00  0.00    +0.162 A 
ATOM     12  C   UNL     1       1.601  -1.322   3.389  0.00  0.00    +0.050 A 
ATOM     13  C   UNL     1       2.181  -1.669   4.595  0.00  0.00    +0.008 A 
ATOM     14  C   UNL     1       1.570  -1.320   5.785  0.00  0.00    -0.031 A 
ATOM     15  C   UNL     1       0.376  -0.624   5.775  0.00  0.00    +0.054 A 
ATOM     16  C   UNL     1      -0.208  -0.267   4.570  0.00  0.00    +0.162 A 
BRANCH  16  17
ATOM     17  O   UNL     1      -1.379   0.423   4.558  0.00  0.00    -0.491 OA
ATOM     18  C   UNL     1      -1.950   0.754   5.826  0.00  0.00    +0.277 C 
ENDBRANCH  16  17
BRANCH  11  19
ATOM     19  O   UNL     1      -0.168  -0.280   2.187  0.00  0.00    -0.488 OA
BRANCH  19  20
ATOM     20  C   UNL     1       0.516  -0.679   0.997  0.00  0.00    +0.232 C 
BRANCH  20  22
ATOM     21  C   UNL     1      -0.292   1.321  -0.264  0.00  0.00    +0.010 C 
ATOM     22  C   UNL     1      -0.272  -0.208  -0.227  0.00  0.00    +0.020 C 
ATOM     23  C   UNL     1       0.393  -0.741  -1.498  0.00  0.00    +0.010 C 
ENDBRANCH  20  22
ENDBRANCH  19  20
ENDBRANCH  11  19
ENDBRANCH   1  14
BRANCH   9  24
ATOM     24  N   UNL     1       5.912  -1.160   7.091  0.00  0.00    -0.328 N 
ATOM     25  H   UNL     1       6.729  -1.662   6.949  0.00  0.00    +0.145 HD
ATOM     26  H   UNL     1       5.954  -0.214   7.303  0.00  0.00    +0.145 HD
ENDBRANCH   9  24
BRANCH  10  27
ATOM     27  C   UNL     1       3.674   0.324   7.502  0.00  0.00    +0.101 C 
ATOM     28  N   UNL     1       3.758   1.430   7.747  0.00  0.00    -0.191 NA
ENDBRANCH  10  27
BRANCH   5  29
ATOM     29  O   UNL     1       2.602  -7.316   7.407  0.00  0.00    -0.422 OA
BRANCH  29  30
ATOM     30  C   UNL     1       1.961  -8.046   6.474  0.00  0.00    +0.347 C 
ATOM     31  O   UNL     1       1.405  -7.492   5.546  0.00  0.00    -0.244 OA
BRANCH  30  32
ATOM     32  C   UNL     1       1.933  -9.519   6.579  0.00  0.00    +0.089 A 
ATOM     33  C   UNL     1       3.126 -10.237   6.678  0.00  0.00    +0.017 A 
ATOM     34  C   UNL     1       3.093 -11.613   6.776  0.00  0.00    +0.001 A 
ATOM     35  C   UNL     1       1.881 -12.281   6.776  0.00  0.00    +0.002 A 
ATOM     36  C   UNL     1       0.695 -11.575   6.678  0.00  0.00    +0.033 A 
ATOM     37  C   UNL     1       0.714 -10.198   6.585  0.00  0.00    +0.140 A 
BRANCH  37  38
ATOM     38  N   UNL     1      -0.556  -9.445   6.487  0.00  0.00    +0.057 N 
ATOM     39  O   UNL     1      -1.603 -10.037   6.365  0.00  0.00    -0.126 OA
ATOM     40  O   UNL     1      -0.547  -8.236   6.529  0.00  0.00    -0.126 OA
ENDBRANCH  37  38
ENDBRANCH  30  32
ENDBRANCH  29  30
ENDBRANCH   5  29
TORSDOF 11
