REMARK  Name = ZINC43834201
REMARK  7 active torsions:
REMARK  status: ('A' for Active; 'I' for Inactive)
REMARK    1  A    between atoms: C_1  and  C_2
REMARK    2  A    between atoms: C_2  and  C_4
REMARK    3  A    between atoms: C_2  and  N_11
REMARK    4  A    between atoms: C_4  and  C_5
REMARK    5  A    between atoms: C_5  and  C_6
REMARK    6  A    between atoms: N_14  and  C_15
REMARK    7  A    between atoms: C_19  and  C_21
REMARK                            x       y       z     vdW  Elec       q    Type
REMARK                         _______ _______ _______ _____ _____    ______ ____
ROOT
ATOM      1  N   UNL     1      -1.370  -0.517   0.012  0.00  0.00    -0.297 N 
ATOM      2  C   UNL     1      -2.051  -0.641  -1.144  0.00  0.00    +0.304 C 
ATOM      3  O   UNL     1      -1.526  -0.331  -2.196  0.00  0.00    -0.253 OA
ATOM      4  N   UNL     1      -3.315  -1.109  -1.135  0.00  0.00    -0.269 N 
ATOM      5  H   UNL     1      -1.790  -0.764   0.851  0.00  0.00    +0.151 HD
ATOM      6  H   UNL     1      -3.711  -1.420  -0.306  0.00  0.00    +0.156 HD
ENDROOT
BRANCH   4   7
ATOM      7  C   UNL     1      -4.056  -1.148  -2.322  0.00  0.00    +0.035 A 
ATOM      8  C   UNL     1      -5.423  -0.903  -2.297  0.00  0.00    +0.023 A 
ATOM      9  C   UNL     1      -6.151  -0.941  -3.470  0.00  0.00    +0.002 A 
ATOM     10  C   UNL     1      -5.520  -1.223  -4.668  0.00  0.00    +0.005 A 
ATOM     11  C   UNL     1      -4.160  -1.468  -4.696  0.00  0.00    -0.023 A 
ATOM     12  C   UNL     1      -3.425  -1.425  -3.527  0.00  0.00    +0.029 A 
BRANCH  11  13
ATOM     13  C   UNL     1      -3.477  -1.776  -6.004  0.00  0.00    +0.133 C 
ATOM     14  S   UNL     1      -3.710  -0.389  -7.153  0.00  0.00    -0.142 S 
ATOM     15  C   UNL     1      -2.946  -0.972  -8.691  0.00  0.00    +0.071 C 
ATOM     16  C   UNL     1      -3.678  -2.208  -9.203  0.00  0.00    +0.021 C 
ATOM     17  C   UNL     1      -3.367  -3.421  -8.334  0.00  0.00    +0.071 C 
ATOM     18  S   UNL     1      -4.205  -3.271  -6.733  0.00  0.00    -0.142 S 
ENDBRANCH  11  13
ENDBRANCH   4   7
BRANCH   1  20
ATOM     19  C   UNL     1      -0.019   1.522   0.021  0.00  0.00    +0.028 C 
ATOM     20  C   UNL     1       0.003  -0.008   0.002  0.00  0.00    +0.072 C 
BRANCH  20  21
ATOM     21  C   UNL     1       0.747  -0.522   1.236  0.00  0.00    +0.030 C 
BRANCH  21  22
ATOM     22  C   UNL     1       0.878  -2.045   1.155  0.00  0.00    +0.076 C 
BRANCH  22  23
ATOM     23  C   UNL     1       1.611  -2.551   2.370  0.00  0.00    +0.105 A 
ATOM     24  C   UNL     1       1.043  -2.931   3.529  0.00  0.00    +0.044 A 
ATOM     25  C   UNL     1       2.093  -3.333   4.387  0.00  0.00    +0.041 A 
ATOM     26  C   UNL     1       3.239  -3.174   3.701  0.00  0.00    +0.195 A 
ATOM     27  O   UNL     1       2.941  -2.706   2.478  0.00  0.00    -0.468 OA
ENDBRANCH  22  23
ENDBRANCH  21  22
ENDBRANCH  20  21
ENDBRANCH   1  20
TORSDOF 6
