REMARK  Name = ZINC32125197
REMARK  6 active torsions:
REMARK  status: ('A' for Active; 'I' for Inactive)
REMARK    1  A    between atoms: C_1  and  C_2
REMARK    2  A    between atoms: C_5  and  O_8
REMARK    3  A    between atoms: O_8  and  C_9
REMARK    4  A    between atoms: C_9  and  C_10
REMARK    5  A    between atoms: N_12  and  C_13
REMARK    6  A    between atoms: C_14  and  C_23
REMARK                            x       y       z     vdW  Elec       q    Type
REMARK                         _______ _______ _______ _____ _____    ______ ____
ROOT
ATOM      1  C   UNL     1       3.072   7.806   0.016  0.00  0.00    +0.084 A 
ATOM      2  C   UNL     1       4.024   8.813   0.018  0.00  0.00    +0.068 A 
ATOM      3  C   UNL     1       3.552  10.191   0.022  0.00  0.00    -0.023 A 
ATOM      4  C   UNL     1       2.210  10.333   0.041  0.00  0.00    -0.004 A 
ATOM      5  S   UNL     1       1.576   8.678   0.036  0.00  0.00    -0.077 S 
ATOM      6  C   UNL     1       1.424  11.607   0.074  0.00  0.00    +0.043 C 
ATOM      7  C   UNL     1       1.958  12.560  -1.004  0.00  0.00    +0.005 C 
ATOM      8  C   UNL     1       3.073  13.403  -0.393  0.00  0.00    +0.001 C 
ATOM      9  C   UNL     1       3.833  12.590   0.654  0.00  0.00    +0.005 C 
ATOM     10  C   UNL     1       4.502  11.383   0.007  0.00  0.00    +0.037 C 
ENDROOT
BRANCH   2  11
ATOM     11  C   UNL     1       5.457   8.503   0.013  0.00  0.00    +0.244 C 
ATOM     12  O   UNL     1       6.049   8.379  -1.043  0.00  0.00    -0.270 OA
ATOM     13  N   UNL     1       6.119   8.354   1.178  0.00  0.00    -0.325 N 
ATOM     14  H   UNL     1       7.194   8.121   1.174  0.00  0.00    +0.145 HD
ATOM     15  H   UNL     1       5.584   8.466   2.132  0.00  0.00    +0.145 HD
ENDBRANCH   2  11
BRANCH   1  18
ATOM     16  C   UNL     1       2.211   5.600   0.012  0.00  0.00    +0.255 C 
ATOM     17  O   UNL     1       1.085   6.051   0.025  0.00  0.00    -0.272 OA
ATOM     18  N   UNL     1       3.270   6.433   0.006  0.00  0.00    -0.277 N 
ATOM     19  H   UNL     1       4.291   6.025  -0.006  0.00  0.00    +0.155 HD
BRANCH  16  20
ATOM     20  C   UNL     1       2.426   4.108   0.001  0.00  0.00    +0.324 C 
BRANCH  20  21
ATOM     21  O   UNL     1       1.160   3.445   0.010  0.00  0.00    -0.483 OA
BRANCH  21  26
ATOM     22  C   UNL     1       1.226  -2.187  -0.021  0.00  0.00    +0.044 C 
ATOM     23  C   UNL     1       1.208  -0.680  -0.013  0.00  0.00    -0.050 A 
ATOM     24  C   UNL     1       0.002  -0.004   0.002  0.00  0.00    +0.007 A 
ATOM     25  C   UNL     1      -0.017   1.377   0.010  0.00  0.00    +0.046 A 
ATOM     26  C   UNL     1       1.176   2.086   0.002  0.00  0.00    +0.121 A 
ATOM     27  C   UNL     1       2.385   1.405  -0.013  0.00  0.00    +0.046 A 
ATOM     28  C   UNL     1       2.398   0.024  -0.021  0.00  0.00    +0.007 A 
ENDBRANCH  21  26
ENDBRANCH  20  21
ENDBRANCH  16  20
ENDBRANCH   1  18
TORSDOF 5
