REMARK  Name = ZINC44460897
REMARK  8 active torsions:
REMARK  status: ('A' for Active; 'I' for Inactive)
REMARK    1  A    between atoms: C_1  and  C_2
REMARK    2  A    between atoms: C_2  and  C_4
REMARK    3  A    between atoms: C_2  and  N_24
REMARK    4  A    between atoms: C_4  and  C_5
REMARK    5  A    between atoms: C_6  and  C_20
REMARK    6  A    between atoms: N_8  and  C_19
REMARK    7  A    between atoms: C_9  and  O_10
REMARK    8  A    between atoms: O_10  and  C_11
REMARK                            x       y       z     vdW  Elec       q    Type
REMARK                         _______ _______ _______ _____ _____    ______ ____
ROOT
ATOM      1  C   UNL     1      -1.567  -2.050   0.128  0.00  0.00    +0.044 A 
ATOM      2  C   UNL     1      -1.464  -2.953  -0.934  0.00  0.00    +0.172 A 
ATOM      3  N   UNL     1      -1.270  -4.148  -0.439  0.00  0.00    -0.164 NA
ATOM      4  N   UNL     1      -1.242  -4.048   0.958  0.00  0.00    -0.235 N 
ATOM      5  C   UNL     1      -1.422  -2.749   1.285  0.00  0.00    +0.222 A 
ATOM      6  C   UNL     1      -1.047  -5.155   1.898  0.00  0.00    +0.176 C 
ENDROOT
BRANCH   2   7
ATOM      7  C   UNL     1      -1.561  -2.609  -2.398  0.00  0.00    +0.436 C 
ATOM      8  F   UNL     1      -0.287  -2.306  -2.891  0.00  0.00    -0.164 F 
ATOM      9  F   UNL     1      -2.086  -3.700  -3.100  0.00  0.00    -0.164 F 
ATOM     10  F   UNL     1      -2.400  -1.502  -2.562  0.00  0.00    -0.164 F 
ENDBRANCH   2   7
BRANCH   1  11
ATOM     11  C   UNL     1      -1.793  -0.564   0.011  0.00  0.00    +0.026 C 
BRANCH  11  13
ATOM     12  C   UNL     1      -0.668   1.665  -0.073  0.00  0.00    -0.014 C 
ATOM     13  C   UNL     1      -0.444   0.151  -0.079  0.00  0.00    -0.074 C 
BRANCH  13  14
ATOM     14  N   UNL     1       0.234  -0.238  -1.323  0.00  0.00    +0.380 N 
ATOM     15  H   UNL     1       1.124   0.234  -1.383  0.00  0.00    -0.090 HD
ATOM     16  H   UNL     1       0.382  -1.236  -1.327  0.00  0.00    -0.090 HD
ATOM     17  H   UNL     1      -0.337   0.021  -2.113  0.00  0.00    -0.090 HD
ENDBRANCH  13  14
ENDBRANCH  11  13
ENDBRANCH   1  11
BRANCH   5  18
ATOM     18  O   UNL     1      -1.454  -2.236   2.541  0.00  0.00    -0.437 OA
BRANCH  18  19
ATOM     19  C   UNL     1      -2.650  -2.200   3.186  0.00  0.00    +0.149 A 
ATOM     20  C   UNL     1      -3.770  -2.776   2.604  0.00  0.00    +0.049 A 
ATOM     21  C   UNL     1      -4.985  -2.739   3.261  0.00  0.00    +0.023 A 
ATOM     22  C   UNL     1      -5.086  -2.127   4.498  0.00  0.00    +0.043 A 
ATOM     23  C   UNL     1      -3.971  -1.551   5.080  0.00  0.00    +0.043 A 
ATOM     24  C   UNL     1      -2.752  -1.591   4.429  0.00  0.00    +0.085 A 
ATOM     25 CL   UNL     1      -1.351  -0.874   5.163  0.00  0.00    -0.080 Cl
ATOM     26 CL   UNL     1      -6.614  -2.081   5.320  0.00  0.00    -0.083 Cl
ENDBRANCH  18  19
ENDBRANCH   5  18
TORSDOF 6
