REMARK  Name = ZINC09461578
REMARK  12 active torsions:
REMARK  status: ('A' for Active; 'I' for Inactive)
REMARK    1  A    between atoms: C_1  and  C_2
REMARK    2  A    between atoms: N_8  and  C_9
REMARK    3  A    between atoms: C_9  and  C_10
REMARK    4  A    between atoms: C_10  and  C_11
REMARK    5  A    between atoms: C_11  and  N_58
REMARK    6  A    between atoms: C_12  and  N_58
REMARK    7  A    between atoms: C_13  and  N_58
REMARK    8  A    between atoms: C_14  and  C_22
REMARK    9  A    between atoms: C_16  and  C_20
REMARK   10  A    between atoms: C_17  and  N_19
REMARK   11  A    between atoms: C_26  and  O_28
REMARK   12  A    between atoms: O_28  and  C_29
REMARK                            x       y       z     vdW  Elec       q    Type
REMARK                         _______ _______ _______ _____ _____    ______ ____
ROOT
ATOM      1  C   UNL     1       5.472   2.829   0.020  0.00  0.00    +0.064 C 
ATOM      2  C   UNL     1       4.019   2.431   0.008  0.00  0.00    +0.022 A 
ATOM      3  C   UNL     1       3.130   3.174  -0.686  0.00  0.00    +0.068 A 
ATOM      4  C   UNL     1       1.769   2.806  -0.701  0.00  0.00    +0.141 A 
ATOM      5  C   UNL     1       1.373   1.686  -0.001  0.00  0.00    +0.072 A 
ATOM      6  C   UNL     1       2.330   0.946   0.705  0.00  0.00    +0.259 A 
ATOM      7  O   UNL     1       1.993  -0.048   1.330  0.00  0.00    -0.267 OA
ATOM      8  N   UNL     1       3.620   1.329   0.695  0.00  0.00    -0.312 N 
ATOM      9  C   UNL     1      -0.069   1.257   0.011  0.00  0.00    +0.103 C 
ATOM     10  C   UNL     1      -0.819   1.934  -1.102  0.00  0.00    +0.098 C 
ATOM     11  C   UNL     1      -0.313   3.022  -1.730  0.00  0.00    +0.199 C 
ATOM     12  O   UNL     1       0.878   3.547  -1.393  0.00  0.00    -0.441 OA
ENDROOT
BRANCH   9  13
ATOM     13  C   UNL     1      -0.691   1.633   1.331  0.00  0.00    -0.027 A 
ATOM     14  C   UNL     1      -1.221   0.651   2.148  0.00  0.00    +0.054 A 
ATOM     15  C   UNL     1      -1.790   0.992   3.365  0.00  0.00    +0.170 A 
ATOM     16  C   UNL     1      -1.837   2.325   3.760  0.00  0.00    +0.208 A 
ATOM     17  C   UNL     1      -1.308   3.308   2.933  0.00  0.00    +0.166 A 
ATOM     18  C   UNL     1      -0.736   2.959   1.719  0.00  0.00    +0.054 A 
ATOM     19  O   UNL     1      -2.444   2.398   4.981  0.00  0.00    -0.449 OA
ATOM     20  C   UNL     1      -2.401   1.061   5.513  0.00  0.00    +0.467 C 
ATOM     21  O   UNL     1      -2.368   0.228   4.338  0.00  0.00    -0.452 OA
BRANCH  17  22
ATOM     22  O   UNL     1      -1.351   4.613   3.315  0.00  0.00    -0.491 OA
ATOM     23  C   UNL     1      -0.788   5.571   2.416  0.00  0.00    +0.277 C 
ENDBRANCH  17  22
ENDBRANCH   9  13
BRANCH  11  24
ATOM     24  N   UNL     1      -1.037   3.606  -2.739  0.00  0.00    -0.328 N 
ATOM     25  H   UNL     1      -0.687   4.386  -3.198  0.00  0.00    +0.145 HD
ATOM     26  H   UNL     1      -1.898   3.239  -2.993  0.00  0.00    +0.145 HD
ENDBRANCH  11  24
BRANCH  10  27
ATOM     27  C   UNL     1      -2.094   1.420  -1.504  0.00  0.00    +0.101 C 
ATOM     28  N   UNL     1      -3.105   1.012  -1.824  0.00  0.00    -0.191 NA
ENDBRANCH  10  27
BRANCH   8  29
ATOM     29  C   UNL     1       4.611   0.545   1.438  0.00  0.00    +0.123 C 
BRANCH  29  30
ATOM     30  C   UNL     1       5.149  -0.575   0.544  0.00  0.00    +0.003 C 
BRANCH  30  31
ATOM     31  C   UNL     1       6.183  -1.393   1.319  0.00  0.00    -0.078 C 
BRANCH  31  34
ATOM     32  C   UNL     1       7.463  -1.919  -0.667  0.00  0.00    -0.097 C 
ATOM     33  C   UNL     1       7.513  -3.415   1.236  0.00  0.00    -0.097 C 
ATOM     34  N   UNL     1       6.678  -2.482   0.451  0.00  0.00    +0.376 N 
ATOM     35  H   UNL     1       5.874  -2.995   0.069  0.00  0.00    -0.083 HD
ENDBRANCH  31  34
ENDBRANCH  30  31
ENDBRANCH  29  30
ENDBRANCH   8  29
TORSDOF 8
