REMARK  Name = ZINC05185699
REMARK  6 active torsions:
REMARK  status: ('A' for Active; 'I' for Inactive)
REMARK    1  A    between atoms: C_1  and  C_2
REMARK    2  A    between atoms: C_2  and  C_4
REMARK    3  A    between atoms: C_2  and  O_16
REMARK    4  A    between atoms: O_16  and  C_17
REMARK    5  A    between atoms: C_17  and  C_19
REMARK    6  A    between atoms: C_20  and  C_21
REMARK                            x       y       z     vdW  Elec       q    Type
REMARK                         _______ _______ _______ _____ _____    ______ ____
ROOT
ATOM      1  O   UNL     1       0.693  -0.477   1.160  0.00  0.00    -0.451 OA
ENDROOT
BRANCH   1   3
ATOM      2  C   UNL     1      -0.019   1.526   0.010  0.00  0.00    +0.060 C 
ATOM      3  C   UNL     1       0.002  -0.004   0.002  0.00  0.00    +0.239 C 
BRANCH   3   4
ATOM      4  C   UNL     1       0.707  -0.490  -1.238  0.00  0.00    +0.151 A 
ATOM      5  N   UNL     1       0.561  -1.793  -1.594  0.00  0.00    -0.307 N 
ATOM      6  H   UNL     1       0.012  -2.380  -1.052  0.00  0.00    +0.170 HD
ATOM      7  C   UNL     1       1.173  -2.278  -2.699  0.00  0.00    +0.259 A 
ATOM      8  O   UNL     1       1.049  -3.443  -3.030  0.00  0.00    -0.267 OA
ATOM      9  C   UNL     1       1.993  -1.344  -3.484  0.00  0.00    +0.065 A 
ATOM     10  C   UNL     1       2.665  -1.743  -4.638  0.00  0.00    +0.015 A 
ATOM     11  C   UNL     1       3.420  -0.825  -5.335  0.00  0.00    +0.001 A 
ATOM     12  C   UNL     1       3.515   0.489  -4.898  0.00  0.00    +0.002 A 
ATOM     13  C   UNL     1       2.860   0.904  -3.760  0.00  0.00    +0.028 A 
ATOM     14  C   UNL     1       2.088  -0.007  -3.037  0.00  0.00    +0.078 A 
ATOM     15  N   UNL     1       1.420   0.359  -1.914  0.00  0.00    -0.230 NA
ENDBRANCH   3   4
ENDBRANCH   1   3
BRANCH   1  16
ATOM     16  C   UNL     1      -0.046  -0.698   2.267  0.00  0.00    +0.333 C 
ATOM     17  O   UNL     1      -1.246  -0.493   2.249  0.00  0.00    -0.246 OA
BRANCH  16  18
ATOM     18  C   UNL     1       0.573  -1.167   3.449  0.00  0.00    +0.093 C 
ATOM     19  C   UNL     1      -0.170  -1.388   4.562  0.00  0.00    +0.023 C 
BRANCH  19  20
ATOM     20  C   UNL     1       0.451  -1.858   5.746  0.00  0.00    +0.032 A 
ATOM     21  C   UNL     1      -0.126  -2.145   6.961  0.00  0.00    +0.063 A 
ATOM     22  C   UNL     1       0.679  -2.605   8.020  0.00  0.00    +0.008 A 
ATOM     23  C   UNL     1       0.279  -2.951   9.337  0.00  0.00    +0.010 A 
ATOM     24  C   UNL     1       1.189  -3.382  10.248  0.00  0.00    +0.001 A 
ATOM     25  C   UNL     1       2.537  -3.499   9.932  0.00  0.00    +0.001 A 
ATOM     26  C   UNL     1       2.968  -3.173   8.662  0.00  0.00    +0.016 A 
ATOM     27  C   UNL     1       2.057  -2.735   7.726  0.00  0.00    +0.021 A 
ATOM     28  S   UNL     1       2.173  -2.232   6.027  0.00  0.00    -0.087 S 
ATOM     29 CL   UNL     1      -1.835  -1.939   7.188  0.00  0.00    -0.082 Cl
ENDBRANCH  19  20
ENDBRANCH  16  18
ENDBRANCH   1  16
TORSDOF 5
