REMARK  Name = ZINC37784585
REMARK  8 active torsions:
REMARK  status: ('A' for Active; 'I' for Inactive)
REMARK    1  A    between atoms: C_1  and  C_2
REMARK    2  A    between atoms: C_5  and  C_9
REMARK    3  A    between atoms: C_6  and  O_8
REMARK    4  A    between atoms: C_9  and  C_11
REMARK    5  A    between atoms: C_9  and  N_12
REMARK    6  A    between atoms: N_12  and  C_13
REMARK    7  A    between atoms: C_13  and  C_15
REMARK    8  A    between atoms: C_13  and  C_16
REMARK                            x       y       z     vdW  Elec       q    Type
REMARK                         _______ _______ _______ _____ _____    ______ ____
ROOT
ATOM      1  N   UNL     1      -0.641  -4.771  -1.088  0.00  0.00    -0.299 NA
ATOM      2  H   UNL     1      -1.413  -4.187  -1.371  0.00  0.00    +0.123 HD
ENDROOT
BRANCH   1   3
ATOM      3  C   UNL     1      -0.097  -4.333   0.204  0.00  0.00    +0.085 C 
ATOM      4  C   UNL     1       0.721  -3.055   0.007  0.00  0.00    +0.029 C 
BRANCH   3   9
ATOM      5  C   UNL     1      -4.447  -3.294   3.869  0.00  0.00    +0.044 C 
ATOM      6  C   UNL     1      -3.311  -3.565   2.916  0.00  0.00    -0.047 A 
ATOM      7  C   UNL     1      -3.509  -3.445   1.553  0.00  0.00    +0.004 A 
ATOM      8  C   UNL     1      -2.470  -3.692   0.676  0.00  0.00    +0.009 A 
ATOM      9  C   UNL     1      -1.229  -4.062   1.160  0.00  0.00    +0.011 A 
ATOM     10  C   UNL     1      -1.028  -4.183   2.527  0.00  0.00    +0.122 A 
ATOM     11  C   UNL     1      -2.072  -3.928   3.405  0.00  0.00    +0.049 A 
BRANCH  10  12
ATOM     12  O   UNL     1       0.191  -4.546   3.006  0.00  0.00    -0.506 OA
ATOM     13  H   UNL     1       0.781  -3.801   3.185  0.00  0.00    +0.292 HD
ENDBRANCH  10  12
ENDBRANCH   3   9
ENDBRANCH   1   3
BRANCH   1  14
ATOM     14  C   UNL     1      -1.038  -6.184  -1.040  0.00  0.00    +0.138 C 
ATOM     15  C   UNL     1       0.171  -7.065  -1.361  0.00  0.00    +0.034 C 
BRANCH  14  16
ATOM     16  C   UNL     1      -2.125  -6.434  -2.054  0.00  0.00    +0.232 C 
ATOM     17  O   UNL     1      -2.314  -5.639  -2.950  0.00  0.00    -0.274 OA
ATOM     18  N   UNL     1      -2.888  -7.542  -1.964  0.00  0.00    -0.300 N 
ATOM     19  C   UNL     1      -2.744  -8.460  -0.826  0.00  0.00    +0.108 C 
ATOM     20  C   UNL     1      -4.119  -8.668  -0.183  0.00  0.00    +0.019 C 
ATOM     21  C   UNL     1      -5.110  -9.140  -1.250  0.00  0.00    +0.003 C 
ATOM     22  C   UNL     1      -5.241  -8.069  -2.336  0.00  0.00    +0.019 C 
ATOM     23  C   UNL     1      -3.883  -7.851  -3.000  0.00  0.00    +0.108 C 
ENDBRANCH  14  16
ENDBRANCH   1  14
TORSDOF 5
