REMARK  Name = ZINC20713138
REMARK  5 active torsions:
REMARK  status: ('A' for Active; 'I' for Inactive)
REMARK    1  A    between atoms: C_1  and  C_2
REMARK    2  A    between atoms: N_5  and  S_8
REMARK    3  A    between atoms: S_8  and  C_11
REMARK    4  A    between atoms: C_24  and  C_27
REMARK    5  A    between atoms: C_32  and  N_33
REMARK                            x       y       z     vdW  Elec       q    Type
REMARK                         _______ _______ _______ _____ _____    ______ ____
ROOT
ATOM      1  C   UNL     1      -4.991   2.505   0.629  0.00  0.00    +0.106 A 
ATOM      2  C   UNL     1      -4.903   2.766   1.985  0.00  0.00    +0.030 A 
ATOM      3  C   UNL     1      -3.812   2.328   2.706  0.00  0.00    +0.025 A 
ATOM      4  C   UNL     1      -2.793   1.621   2.078  0.00  0.00    +0.031 A 
ATOM      5  C   UNL     1      -2.881   1.366   0.711  0.00  0.00    -0.018 A 
ATOM      6  C   UNL     1      -3.986   1.797  -0.004  0.00  0.00    +0.034 A 
ATOM      7  C   UNL     1      -1.800   0.577   0.081  0.00  0.00    +0.049 C 
ATOM      8  C   UNL     1      -1.472   0.707  -1.362  0.00  0.00    -0.023 C 
ATOM      9  C   UNL     1      -0.170   0.504  -1.521  0.00  0.00    -0.030 C 
ATOM     10  C   UNL     1       0.490   0.250  -0.164  0.00  0.00    +0.033 C 
ATOM     11  C   UNL     1      -0.469   0.979   0.787  0.00  0.00    +0.029 C 
ATOM     12  C   UNL     1      -0.583   0.442   2.203  0.00  0.00    +0.107 C 
ATOM     13  N   UNL     1      -1.688   1.201   2.828  0.00  0.00    -0.336 N 
ATOM     14  H   UNL     1      -1.651   1.444   3.900  0.00  0.00    +0.147 HD
ENDROOT
BRANCH  12  15
ATOM     15  C   UNL     1       0.703   0.676   2.953  0.00  0.00    +0.003 A 
ATOM     16  C   UNL     1       1.644   1.558   2.454  0.00  0.00    +0.008 A 
ATOM     17  C   UNL     1       2.823   1.772   3.143  0.00  0.00    +0.000 A 
ATOM     18  C   UNL     1       3.062   1.106   4.330  0.00  0.00    +0.002 A 
ATOM     19  C   UNL     1       2.121   0.225   4.829  0.00  0.00    +0.033 A 
ATOM     20  C   UNL     1       0.939   0.014   4.143  0.00  0.00    +0.131 A 
BRANCH  20  21
ATOM     21  N   UNL     1      -0.071  -0.925   4.680  0.00  0.00    +0.057 N 
ATOM     22  O   UNL     1       0.182  -1.593   5.666  0.00  0.00    -0.126 OA
ATOM     23  O   UNL     1      -1.156  -1.029   4.137  0.00  0.00    -0.126 OA
ENDBRANCH  20  21
ENDBRANCH  12  15
BRANCH   1  24
ATOM     24  S   UNL     1      -6.382   3.074  -0.290  0.00  0.00    +0.061 S 
ATOM     25  O   UNL     1      -6.490   2.229  -1.428  0.00  0.00    -0.153 OA
ATOM     26  O   UNL     1      -7.444   3.237   0.640  0.00  0.00    -0.153 OA
BRANCH  24  31
ATOM     27  C   UNL     1      -7.183   8.023  -3.072  0.00  0.00    +0.007 C 
ATOM     28  C   UNL     1      -6.384   7.034  -2.221  0.00  0.00    -0.012 C 
ATOM     29  C   UNL     1      -6.188   5.732  -3.002  0.00  0.00    +0.020 C 
ATOM     30  C   UNL     1      -5.359   4.757  -2.160  0.00  0.00    +0.110 C 
ATOM     31  N   UNL     1      -6.011   4.585  -0.855  0.00  0.00    -0.177 NA
ATOM     32  C   UNL     1      -6.333   5.780  -0.064  0.00  0.00    +0.110 C 
ATOM     33  C   UNL     1      -7.146   6.744  -0.926  0.00  0.00    +0.020 C 
ENDBRANCH  24  31
ENDBRANCH   1  24
TORSDOF 4
