REMARK  Name = ZINC36306573
REMARK  16 active torsions:
REMARK  status: ('A' for Active; 'I' for Inactive)
REMARK    1  A    between atoms: C_1  and  C_2
REMARK    2  A    between atoms: C_6  and  O_8
REMARK    3  A    between atoms: O_8  and  C_9
REMARK    4  A    between atoms: C_10  and  C_21
REMARK    5  A    between atoms: C_11  and  C_15
REMARK    6  A    between atoms: N_13  and  C_14
REMARK    7  A    between atoms: C_21  and  N_22
REMARK    8  A    between atoms: N_22  and  C_23
REMARK    9  A    between atoms: N_22  and  C_27
REMARK   10  A    between atoms: C_23  and  C_24
REMARK   11  A    between atoms: C_27  and  C_28
REMARK   12  A    between atoms: C_28  and  C_30
REMARK   13  A    between atoms: C_28  and  O_39
REMARK   14  A    between atoms: C_30  and  O_31
REMARK   15  A    between atoms: O_31  and  C_32
REMARK   16  A    between atoms: C_37  and  C_38
REMARK                            x       y       z     vdW  Elec       q    Type
REMARK                         _______ _______ _______ _____ _____    ______ ____
ROOT
ATOM      1  C   UNL     1       0.151  -7.512   5.349  0.00  0.00    +0.221 A 
ATOM      2  C   UNL     1       0.376  -6.205   5.640  0.00  0.00    +0.025 A 
ATOM      3  C   UNL     1       1.375  -6.150   6.630  0.00  0.00    +0.098 A 
ATOM      4  N   UNL     1       1.733  -7.383   6.919  0.00  0.00    -0.168 NA
ATOM      5  N   UNL     1       0.974  -8.257   6.131  0.00  0.00    -0.235 N 
ATOM      6  C   UNL     1       1.055  -9.720   6.146  0.00  0.00    +0.176 C 
ENDROOT
BRANCH   3   7
ATOM      7  C   UNL     1       1.929  -4.916   7.242  0.00  0.00    +0.002 A 
ATOM      8  C   UNL     1       2.237  -3.818   6.442  0.00  0.00    +0.010 A 
ATOM      9  C   UNL     1       2.752  -2.673   7.016  0.00  0.00    +0.001 A 
ATOM     10  C   UNL     1       2.962  -2.615   8.382  0.00  0.00    +0.000 A 
ATOM     11  C   UNL     1       2.658  -3.703   9.180  0.00  0.00    +0.001 A 
ATOM     12  C   UNL     1       2.137  -4.851   8.618  0.00  0.00    +0.010 A 
ENDBRANCH   3   7
BRANCH   1  13
ATOM     13  O   UNL     1      -0.740  -7.988   4.443  0.00  0.00    -0.438 OA
BRANCH  13  19
ATOM     14  C   UNL     1      -1.607  -9.717  -0.038  0.00  0.00    +0.044 C 
ATOM     15  C   UNL     1      -0.691  -9.075   0.972  0.00  0.00    -0.047 A 
ATOM     16  C   UNL     1       0.602  -8.737   0.615  0.00  0.00    +0.003 A 
ATOM     17  C   UNL     1       1.445  -8.149   1.539  0.00  0.00    +0.004 A 
ATOM     18  C   UNL     1       0.998  -7.897   2.822  0.00  0.00    +0.046 A 
ATOM     19  C   UNL     1      -0.298  -8.235   3.182  0.00  0.00    +0.131 A 
ATOM     20  C   UNL     1      -1.145  -8.821   2.251  0.00  0.00    +0.049 A 
ENDBRANCH  13  19
ENDBRANCH   1  13
BRANCH   2  21
ATOM     21  C   UNL     1      -0.320  -5.024   5.015  0.00  0.00    -0.035 C 
BRANCH  21  22
ATOM     22  N   UNL     1      -1.601  -4.794   5.695  0.00  0.00    +0.384 N 
ATOM     23  H   UNL     1      -2.146  -5.643   5.683  0.00  0.00    -0.081 HD
BRANCH  22  24
ATOM     24  C   UNL     1      -2.339  -3.728   5.003  0.00  0.00    -0.075 C 
BRANCH  24  25
ATOM     25  C   UNL     1      -2.693  -4.189   3.588  0.00  0.00    -0.028 C 
ATOM     26  C   UNL     1      -2.082  -3.414   2.419  0.00  0.00    +0.002 C 
ATOM     27  C   UNL     1      -3.570  -3.264   2.742  0.00  0.00    +0.002 C 
ENDBRANCH  24  25
ENDBRANCH  22  24
BRANCH  22  28
ATOM     28  C   UNL     1      -1.352  -4.392   7.086  0.00  0.00    -0.043 C 
BRANCH  28  29
ATOM     29  C   UNL     1      -2.684  -4.274   7.830  0.00  0.00    +0.135 C 
BRANCH  29  30
ATOM     30  O   UNL     1      -3.300  -5.560   7.912  0.00  0.00    -0.390 OA
ATOM     31  H   UNL     1      -2.770  -6.221   8.379  0.00  0.00    +0.210 HD
ENDBRANCH  29  30
BRANCH  29  32
ATOM     32  C   UNL     1      -2.434  -3.736   9.240  0.00  0.00    +0.258 C 
BRANCH  32  33
ATOM     33  O   UNL     1      -3.686  -3.515   9.894  0.00  0.00    -0.489 OA
BRANCH  33  34
ATOM     34  C   UNL     1      -3.642  -3.035  11.165  0.00  0.00    +0.124 A 
ATOM     35  C   UNL     1      -2.419  -2.776  11.768  0.00  0.00    +0.046 A 
ATOM     36  C   UNL     1      -2.377  -2.288  13.059  0.00  0.00    +0.004 A 
ATOM     37  C   UNL     1      -3.552  -2.057  13.751  0.00  0.00    +0.000 A 
ATOM     38  C   UNL     1      -4.772  -2.314  13.152  0.00  0.00    +0.007 A 
ATOM     39  C   UNL     1      -4.819  -2.797  11.858  0.00  0.00    -0.009 A 
ATOM     40  C   UNL     1      -6.149  -3.072  11.204  0.00  0.00    +0.047 C 
ENDBRANCH  33  34
ENDBRANCH  32  33
ENDBRANCH  29  32
ENDBRANCH  28  29
ENDBRANCH  22  28
ENDBRANCH  21  22
ENDBRANCH   2  21
TORSDOF 13
