REMARK  Name = ZINC46775444
REMARK  9 active torsions:
REMARK  status: ('A' for Active; 'I' for Inactive)
REMARK    1  A    between atoms: C_4  and  C_7
REMARK    2  A    between atoms: C_7  and  C_8
REMARK    3  A    between atoms: C_8  and  C_10
REMARK    4  A    between atoms: C_8  and  N_27
REMARK    5  A    between atoms: N_12  and  C_13
REMARK    6  A    between atoms: C_19  and  C_21
REMARK    7  A    between atoms: C_28  and  O_30
REMARK    8  A    between atoms: O_30  and  C_31
REMARK    9  A    between atoms: C_31  and  C_32
REMARK                            x       y       z     vdW  Elec       q    Type
REMARK                         _______ _______ _______ _____ _____    ______ ____
ROOT
ATOM      1  C   UNL     1       3.336  -1.113  -1.516  0.00  0.00    +0.166 C 
ENDROOT
BRANCH   1   2
ATOM      2  C   UNL     1       4.487  -1.863  -0.897  0.00  0.00    +0.234 C 
ATOM      3  O   UNL     1       5.177  -1.329  -0.056  0.00  0.00    -0.274 OA
ATOM      4  N   UNL     1       4.750  -3.129  -1.280  0.00  0.00    -0.311 N 
ATOM      5  H   UNL     1       4.198  -3.557  -1.953  0.00  0.00    +0.149 HD
BRANCH   4   6
ATOM      6  C   UNL     1       5.869  -3.858  -0.679  0.00  0.00    +0.076 C 
ATOM      7  C   UNL     1       7.160  -3.518  -1.427  0.00  0.00    +0.041 C 
ATOM      8  C   UNL     1       8.334  -4.255  -0.774  0.00  0.00    +0.109 C 
ATOM      9  N   UNL     1       8.024  -5.690  -0.728  0.00  0.00    -0.301 N 
ATOM     10  C   UNL     1       6.762  -6.121  -0.111  0.00  0.00    +0.109 C 
ATOM     11  C   UNL     1       5.606  -5.363  -0.771  0.00  0.00    +0.041 C 
ATOM     12  C   UNL     1       8.880  -6.595  -1.242  0.00  0.00    +0.219 C 
ATOM     13  O   UNL     1       9.880  -6.223  -1.820  0.00  0.00    -0.275 OA
BRANCH  12  14
ATOM     14  C   UNL     1       8.596  -8.068  -1.100  0.00  0.00    +0.075 C 
ATOM     15  C   UNL     1       9.053  -8.545   0.280  0.00  0.00    +0.013 C 
ATOM     16  C   UNL     1       8.764 -10.040   0.425  0.00  0.00    +0.001 C 
ATOM     17  C   UNL     1       9.521 -10.812  -0.658  0.00  0.00    +0.000 C 
ATOM     18  C   UNL     1       9.063 -10.336  -2.038  0.00  0.00    +0.001 C 
ATOM     19  C   UNL     1       9.352  -8.840  -2.183  0.00  0.00    +0.013 C 
ENDBRANCH  12  14
ENDBRANCH   4   6
ENDBRANCH   1   2
BRANCH   1  20
ATOM     20  N   UNL     1       3.261   0.230  -0.936  0.00  0.00    -0.269 N 
ATOM     21  C   UNL     1       2.088   0.895  -0.925  0.00  0.00    +0.401 C 
ATOM     22  O   UNL     1       1.093   0.380  -1.395  0.00  0.00    -0.226 OA
ATOM     23  H   UNL     1       4.055   0.642  -0.561  0.00  0.00    +0.153 HD
BRANCH  21  24
ATOM     24  O   UNL     1       2.019   2.130  -0.393  0.00  0.00    -0.446 OA
BRANCH  24  25
ATOM     25  C   UNL     1       0.745   2.775  -0.414  0.00  0.00    +0.269 C 
BRANCH  25  26
ATOM     26  C   UNL     1       0.861   4.137   0.220  0.00  0.00    -0.010 A 
ATOM     27  C   UNL     1       0.661   4.286   1.579  0.00  0.00    +0.007 A 
ATOM     28  C   UNL     1       0.767   5.536   2.161  0.00  0.00    +0.000 A 
ATOM     29  C   UNL     1       1.074   6.636   1.383  0.00  0.00    +0.000 A 
ATOM     30  C   UNL     1       1.275   6.487   0.023  0.00  0.00    +0.000 A 
ATOM     31  C   UNL     1       1.173   5.237  -0.557  0.00  0.00    +0.007 A 
ENDBRANCH  25  26
ENDBRANCH  24  25
ENDBRANCH  21  24
ENDBRANCH   1  20
BRANCH   1  32
ATOM     32  C   UNL     1       3.550  -1.006  -3.027  0.00  0.00    +0.067 C 
BRANCH  32  36
ATOM     33  C   UNL     1       0.128   0.810  -4.826  0.00  0.00    +0.000 A 
ATOM     34  C   UNL     1       1.177   1.596  -4.387  0.00  0.00    +0.000 A 
ATOM     35  C   UNL     1       2.284   1.009  -3.805  0.00  0.00    +0.004 A 
ATOM     36  C   UNL     1       2.342  -0.365  -3.661  0.00  0.00    -0.045 A 
ATOM     37  C   UNL     1       1.293  -1.151  -4.099  0.00  0.00    +0.004 A 
ATOM     38  C   UNL     1       0.186  -0.563  -4.683  0.00  0.00    +0.000 A 
ENDBRANCH  32  36
ENDBRANCH   1  32
TORSDOF 9
