REMARK  Name = ZINC12601007
REMARK  10 active torsions:
REMARK  status: ('A' for Active; 'I' for Inactive)
REMARK    1  A    between atoms: C_1  and  C_2
REMARK    2  A    between atoms: C_3  and  C_7
REMARK    3  A    between atoms: C_10  and  S_15
REMARK    4  A    between atoms: N_11  and  C_12
REMARK    5  A    between atoms: C_12  and  C_13
REMARK    6  A    between atoms: S_15  and  C_16
REMARK    7  A    between atoms: C_16  and  C_18
REMARK    8  A    between atoms: C_16  and  C_19
REMARK    9  A    between atoms: N_21  and  C_22
REMARK   10  A    between atoms: C_23  and  C_30
REMARK                            x       y       z     vdW  Elec       q    Type
REMARK                         _______ _______ _______ _____ _____    ______ ____
ROOT
ATOM      1  C   UNL     1      -5.144   5.022  -0.585  0.00  0.00    +0.137 C 
ATOM      2  C   UNL     1      -4.329   5.612  -1.739  0.00  0.00    +0.029 C 
ENDROOT
BRANCH   1   3
ATOM      3  C   UNL     1      -6.598   5.375  -0.765  0.00  0.00    +0.231 C 
ATOM      4  O   UNL     1      -7.367   4.560  -1.228  0.00  0.00    -0.274 OA
ATOM      5  N   UNL     1      -7.043   6.597  -0.411  0.00  0.00    -0.278 N 
ATOM      6  H   UNL     1      -6.428   7.249  -0.040  0.00  0.00    +0.155 HD
BRANCH   5   7
ATOM      7  C   UNL     1      -8.381   6.922  -0.576  0.00  0.00    +0.084 A 
ATOM      8  C   UNL     1      -9.022   8.110  -0.270  0.00  0.00    +0.068 A 
ATOM      9  C   UNL     1     -10.455   8.198  -0.548  0.00  0.00    -0.023 A 
ATOM     10  C   UNL     1     -11.004   7.088  -1.073  0.00  0.00    -0.004 A 
ATOM     11  S   UNL     1      -9.656   5.938  -1.208  0.00  0.00    -0.077 S 
ATOM     12  C   UNL     1     -12.477   7.253  -1.329  0.00  0.00    +0.043 C 
ATOM     13  C   UNL     1     -12.709   8.780  -1.293  0.00  0.00    +0.010 C 
ATOM     14  C   UNL     1     -11.551   9.253  -0.392  0.00  0.00    +0.037 C 
BRANCH   8  15
ATOM     15  C   UNL     1      -8.290   9.241   0.309  0.00  0.00    +0.244 C 
ATOM     16  O   UNL     1      -7.779  10.072  -0.419  0.00  0.00    -0.270 OA
ATOM     17  N   UNL     1      -8.182   9.360   1.647  0.00  0.00    -0.325 N 
ATOM     18  H   UNL     1      -8.589   8.698   2.228  0.00  0.00    +0.145 HD
ATOM     19  H   UNL     1      -7.698  10.108   2.030  0.00  0.00    +0.145 HD
ENDBRANCH   8  15
ENDBRANCH   5   7
ENDBRANCH   1   3
BRANCH   1  20
ATOM     20  S   UNL     1      -4.957   3.222  -0.573  0.00  0.00    -0.073 S 
BRANCH  20  24
ATOM     21  C   UNL     1      -1.234   2.332   0.210  0.00  0.00    +0.168 A 
ATOM     22  N   UNL     1      -1.229   3.645   0.237  0.00  0.00    -0.128 NA
ATOM     23  N   UNL     1      -2.407   4.093  -0.014  0.00  0.00    -0.122 NA
ATOM     24  C   UNL     1      -3.238   3.095  -0.207  0.00  0.00    +0.193 A 
ATOM     25  N   UNL     1      -2.521   1.939  -0.071  0.00  0.00    -0.298 N 
BRANCH  21  28
ATOM     26  C   UNL     1       0.854   2.578   2.536  0.00  0.00    +0.087 C 
ATOM     27  C   UNL     1       0.842   1.537   1.447  0.00  0.00    +0.112 A 
ATOM     28  C   UNL     1      -0.074   1.444   0.445  0.00  0.00    +0.060 A 
ATOM     29  C   UNL     1       0.330   0.283  -0.357  0.00  0.00    +0.053 A 
ATOM     30  C   UNL     1       1.436  -0.205   0.228  0.00  0.00    +0.196 A 
ATOM     31  O   UNL     1       1.732   0.546   1.300  0.00  0.00    -0.467 OA
ENDBRANCH  21  28
BRANCH  25  32
ATOM     32  C   UNL     1      -3.020   0.567  -0.198  0.00  0.00    +0.152 C 
BRANCH  32  33
ATOM     33  C   UNL     1      -3.373   0.033   1.167  0.00  0.00    -0.013 C 
ATOM     34  C   UNL     1      -4.573  -0.440   1.394  0.00  0.00    +0.005 C 
ENDBRANCH  32  33
ENDBRANCH  25  32
ENDBRANCH  20  24
ENDBRANCH   1  20
TORSDOF 8
