REMARK  Name = ZINC03459024
REMARK  2 active torsions:
REMARK  status: ('A' for Active; 'I' for Inactive)
REMARK    1  A    between atoms: C_20  and  C_21
REMARK    2  A    between atoms: C_20  and  N_65
REMARK                            x       y       z     vdW  Elec       q    Type
REMARK                         _______ _______ _______ _____ _____    ______ ____
ROOT
ATOM      1  C   UNL     1       0.661  -4.362  -0.743  0.00  0.00    +0.224 A 
ATOM      2  N   UNL     1       1.494  -4.108   0.251  0.00  0.00    -0.220 NA
ATOM      3  C   UNL     1       1.153  -3.346   1.278  0.00  0.00    +0.133 A 
ATOM      4  C   UNL     1      -0.153  -2.782   1.317  0.00  0.00    +0.051 A 
ATOM      5  C   UNL     1      -0.743  -1.916   2.344  0.00  0.00    -0.025 A 
ATOM      6  C   UNL     1      -2.017  -1.522   2.145  0.00  0.00    -0.004 A 
ATOM      7  S   UNL     1      -2.493  -2.248   0.597  0.00  0.00    -0.073 S 
ATOM      8  C   UNL     1      -0.982  -3.097   0.224  0.00  0.00    +0.114 A 
ATOM      9  N   UNL     1      -0.561  -3.866  -0.762  0.00  0.00    -0.228 NA
ATOM     10  C   UNL     1      -2.860  -0.658   3.030  0.00  0.00    +0.043 C 
ATOM     11  C   UNL     1      -2.068   0.598   3.417  0.00  0.00    +0.005 C 
ATOM     12  C   UNL     1      -1.292   0.301   4.697  0.00  0.00    +0.001 C 
ATOM     13  C   UNL     1      -0.874  -1.167   4.725  0.00  0.00    +0.005 C 
ATOM     14  C   UNL     1       0.062  -1.479   3.564  0.00  0.00    +0.037 C 
ATOM     15  N   UNL     1       2.053  -3.102   2.300  0.00  0.00    -0.318 N 
ATOM     16  C   UNL     1       3.219  -2.356   1.806  0.00  0.00    +0.088 C 
ATOM     17  C   UNL     1       4.150  -2.037   2.978  0.00  0.00    -0.059 C 
ATOM     18  C   UNL     1       3.400  -4.036   4.118  0.00  0.00    -0.059 C 
ATOM     19  C   UNL     1       2.468  -4.355   2.946  0.00  0.00    +0.088 C 
ATOM     20  N   UNL     1       4.578  -3.305   3.605  0.00  0.00    +0.386 N 
ATOM     21  H   UNL     1       5.049  -3.884   2.900  0.00  0.00    -0.081 HD
ENDROOT
BRANCH  20  22
ATOM     22  C   UNL     1       5.522  -3.030   4.710  0.00  0.00    -0.003 C 
BRANCH  22  23
ATOM     23  C   UNL     1       6.803  -2.488   4.131  0.00  0.00    +0.094 A 
ATOM     24  N   UNL     1       7.831  -2.177   4.962  0.00  0.00    -0.312 N 
ATOM     25  H   UNL     1       7.726  -2.308   5.917  0.00  0.00    +0.170 HD
ATOM     26  C   UNL     1       8.992  -1.689   4.487  0.00  0.00    +0.260 A 
ATOM     27  O   UNL     1       9.906  -1.415   5.245  0.00  0.00    -0.267 OA
ATOM     28  C   UNL     1       9.137  -1.499   3.073  0.00  0.00    +0.075 A 
ATOM     29  C   UNL     1      10.294  -0.988   2.339  0.00  0.00    -0.023 A 
ATOM     30  C   UNL     1      10.179  -0.903   0.997  0.00  0.00    -0.004 A 
ATOM     31  S   UNL     1       8.546  -1.491   0.638  0.00  0.00    -0.073 S 
ATOM     32  C   UNL     1       8.022  -1.849   2.296  0.00  0.00    +0.116 A 
ATOM     33  N   UNL     1       6.907  -2.330   2.838  0.00  0.00    -0.229 NA
ATOM     34  C   UNL     1      11.212  -0.416   0.027  0.00  0.00    +0.043 C 
ATOM     35  C   UNL     1      12.303   0.326   0.812  0.00  0.00    +0.005 C 
ATOM     36  C   UNL     1      12.714  -0.532   2.012  0.00  0.00    +0.005 C 
ATOM     37  C   UNL     1      11.583  -0.565   3.040  0.00  0.00    +0.037 C 
ENDBRANCH  22  23
ENDBRANCH  20  22
TORSDOF 2
