REMARK  Name = ZINC06575549
REMARK  9 active torsions:
REMARK  status: ('A' for Active; 'I' for Inactive)
REMARK    1  A    between atoms: C_4  and  C_7
REMARK    2  A    between atoms: C_7  and  C_9
REMARK    3  A    between atoms: C_7  and  C_19
REMARK    4  A    between atoms: C_9  and  C_10
REMARK    5  A    between atoms: C_10  and  C_13
REMARK    6  A    between atoms: N_11  and  N_12
REMARK    7  A    between atoms: C_13  and  C_14
REMARK    8  A    between atoms: C_14  and  N_57
REMARK    9  A    between atoms: C_29  and  O_30
REMARK                            x       y       z     vdW  Elec       q    Type
REMARK                         _______ _______ _______ _____ _____    ______ ____
ROOT
ATOM      1  C   UNL     1       4.093   7.035   2.467  0.00  0.00    +0.065 C 
ENDROOT
BRANCH   1   2
ATOM      2  C   UNL     1       5.351   7.845   2.650  0.00  0.00    +0.087 A 
ATOM      3  C   UNL     1       6.574   7.384   2.119  0.00  0.00    +0.200 A 
ATOM      4  O   UNL     1       6.644   6.332   1.505  0.00  0.00    -0.287 OA
ATOM      5  C   UNL     1       7.766   8.230   2.331  0.00  0.00    +0.064 A 
ATOM      6  C   UNL     1       9.016   7.858   1.840  0.00  0.00    +0.015 A 
ATOM      7  C   UNL     1      10.105   8.672   2.065  0.00  0.00    +0.001 A 
ATOM      8  C   UNL     1       9.959   9.854   2.776  0.00  0.00    +0.004 A 
ATOM      9  C   UNL     1       8.727  10.233   3.267  0.00  0.00    +0.047 A 
ATOM     10  C   UNL     1       7.618   9.425   3.050  0.00  0.00    +0.143 A 
ATOM     11  O   UNL     1       6.403   9.776   3.523  0.00  0.00    -0.425 OA
ATOM     12  C   UNL     1       5.315   9.019   3.331  0.00  0.00    +0.292 A 
BRANCH  12  13
ATOM     13  O   UNL     1       4.136   9.440   3.836  0.00  0.00    -0.480 OA
ATOM     14  H   UNL     1       3.992   9.189   4.759  0.00  0.00    +0.295 HD
ENDBRANCH  12  13
ENDBRANCH   1   2
BRANCH   1  18
ATOM     15  C   UNL     1       2.737   7.403  -1.567  0.00  0.00    +0.000 A 
ATOM     16  C   UNL     1       1.994   7.946  -0.536  0.00  0.00    +0.000 A 
ATOM     17  C   UNL     1       2.433   7.827   0.769  0.00  0.00    +0.004 A 
ATOM     18  C   UNL     1       3.614   7.165   1.044  0.00  0.00    -0.039 A 
ATOM     19  C   UNL     1       4.360   6.626   0.012  0.00  0.00    +0.004 A 
ATOM     20  C   UNL     1       3.919   6.741  -1.293  0.00  0.00    +0.000 A 
ENDBRANCH   1  18
BRANCH   1  21
ATOM     21  C   UNL     1       4.382   5.565   2.776  0.00  0.00    +0.065 C 
BRANCH  21  22
ATOM     22  C   UNL     1       3.100   4.776   2.713  0.00  0.00    +0.035 C 
ATOM     23  N   UNL     1       1.999   5.366   2.432  0.00  0.00    -0.199 NA
BRANCH  23  24
ATOM     24  N   UNL     1       0.823   4.620   2.282  0.00  0.00    -0.283 N 
ATOM     25  H   UNL     1      -0.028   5.072   2.166  0.00  0.00    +0.164 HD
ATOM     26  H   UNL     1       0.859   3.650   2.292  0.00  0.00    +0.164 HD
ENDBRANCH  23  24
BRANCH  22  27
ATOM     27  C   UNL     1       3.113   3.293   2.980  0.00  0.00    +0.034 C 
BRANCH  27  28
ATOM     28  C   UNL     1       2.901   3.043   4.475  0.00  0.00    -0.073 C 
BRANCH  28  33
ATOM     29  C   UNL     1       2.906   1.312   6.180  0.00  0.00    -0.079 C 
ATOM     30  C   UNL     1       3.705   0.008   6.365  0.00  0.00    -0.020 C 
ATOM     31  C   UNL     1       4.140  -0.405   4.941  0.00  0.00    -0.020 C 
ATOM     32  C   UNL     1       4.067   0.929   4.156  0.00  0.00    -0.079 C 
ATOM     33  N   UNL     1       2.882   1.572   4.736  0.00  0.00    +0.380 N 
ATOM     34  H   UNL     1       2.033   1.167   4.324  0.00  0.00    -0.082 HD
ENDBRANCH  28  33
ENDBRANCH  27  28
ENDBRANCH  22  27
ENDBRANCH  21  22
ENDBRANCH   1  21
TORSDOF 9
