REMARK  Name = ZINC15001245
REMARK  11 active torsions:
REMARK  status: ('A' for Active; 'I' for Inactive)
REMARK    1  A    between atoms: C_1  and  O_2
REMARK    2  A    between atoms: O_2  and  C_3
REMARK    3  A    between atoms: C_6  and  C_9
REMARK    4  A    between atoms: C_9  and  C_10
REMARK    5  A    between atoms: C_10  and  N_65
REMARK    6  A    between atoms: C_11  and  N_65
REMARK    7  A    between atoms: N_22  and  C_25
REMARK    8  A    between atoms: C_25  and  C_26
REMARK    9  A    between atoms: C_26  and  C_27
REMARK   10  A    between atoms: C_32  and  O_33
REMARK   11  A    between atoms: O_33  and  C_34
REMARK                            x       y       z     vdW  Elec       q    Type
REMARK                         _______ _______ _______ _____ _____    ______ ____
ROOT
ATOM      1  C   UNL     1      -4.077   1.563  11.546  0.00  0.00    -0.067 C 
ATOM      2  C   UNL     1      -4.404   2.599  10.466  0.00  0.00    -0.011 C 
ATOM      3  C   UNL     1      -3.338   2.559   9.370  0.00  0.00    +0.035 C 
ATOM      4  C   UNL     1      -3.188   1.122   8.880  0.00  0.00    -0.023 A 
ATOM      5  C   UNL     1      -3.633   0.089   9.627  0.00  0.00    -0.006 A 
ATOM      6  S   UNL     1      -3.254  -1.360   8.679  0.00  0.00    -0.073 S 
ATOM      7  C   UNL     1      -2.498  -0.572   7.279  0.00  0.00    +0.116 A 
ATOM      8  C   UNL     1      -2.566   0.794   7.598  0.00  0.00    +0.076 A 
ATOM      9  C   UNL     1      -2.011   1.687   6.624  0.00  0.00    +0.262 A 
ATOM     10  O   UNL     1      -2.018   2.891   6.812  0.00  0.00    -0.267 OA
ATOM     11  N   UNL     1      -1.486   1.173   5.496  0.00  0.00    -0.298 N 
ATOM     12  C   UNL     1      -1.464  -0.166   5.273  0.00  0.00    +0.203 A 
ATOM     13  N   UNL     1      -1.958  -1.005   6.144  0.00  0.00    -0.230 NA
ATOM     14  C   UNL     1      -4.300   0.159  10.966  0.00  0.00    +0.027 C 
ENDROOT
BRANCH   1  15
ATOM     15  N   UNL     1      -4.969   1.769  12.703  0.00  0.00    +0.381 N 
ATOM     16  H   UNL     1      -5.152   2.773  12.815  0.00  0.00    -0.086 HD
ATOM     17  H   UNL     1      -5.854   1.276  12.540  0.00  0.00    -0.086 HD
BRANCH  15  18
ATOM     18  C   UNL     1      -4.341   1.248  13.932  0.00  0.00    -0.078 C 
BRANCH  18  19
ATOM     19  C   UNL     1      -5.287   1.475  15.113  0.00  0.00    +0.016 C 
BRANCH  19  23
ATOM     20  C   UNL     1      -3.489  -0.027  18.687  0.00  0.00    +0.120 A 
ATOM     21  C   UNL     1      -3.278   1.290  18.303  0.00  0.00    +0.046 A 
ATOM     22  C   UNL     1      -3.861   1.773  17.148  0.00  0.00    +0.007 A 
ATOM     23  C   UNL     1      -4.653   0.945  16.373  0.00  0.00    -0.049 A 
ATOM     24  C   UNL     1      -4.870  -0.365  16.757  0.00  0.00    +0.007 A 
ATOM     25  C   UNL     1      -4.285  -0.855  17.909  0.00  0.00    +0.046 A 
BRANCH  20  27
ATOM     26  C   UNL     1      -3.178  -1.869  20.157  0.00  0.00    +0.277 C 
ATOM     27  O   UNL     1      -2.917  -0.504  19.824  0.00  0.00    -0.495 OA
ENDBRANCH  20  27
ENDBRANCH  19  23
ENDBRANCH  18  19
ENDBRANCH  15  18
ENDBRANCH   1  15
BRANCH  11  28
ATOM     28  C   UNL     1      -0.920   2.077   4.491  0.00  0.00    +0.131 C 
BRANCH  28  29
ATOM     29  C   UNL     1      -2.011   2.478   3.495  0.00  0.00    +0.060 C 
BRANCH  29  30
ATOM     30  C   UNL     1      -1.429   3.408   2.462  0.00  0.00    -0.004 A 
ATOM     31  C   UNL     1      -1.532   4.776   2.627  0.00  0.00    +0.007 A 
ATOM     32  C   UNL     1      -1.003   5.630   1.677  0.00  0.00    +0.000 A 
ATOM     33  C   UNL     1      -0.367   5.117   0.561  0.00  0.00    +0.004 A 
ATOM     34  C   UNL     1      -0.258   3.751   0.393  0.00  0.00    +0.046 A 
ATOM     35  C   UNL     1      -0.787   2.892   1.346  0.00  0.00    +0.123 A 
BRANCH  35  36
ATOM     36  O   UNL     1      -0.682   1.547   1.184  0.00  0.00    -0.495 OA
ATOM     37  C   UNL     1      -0.013   1.086   0.008  0.00  0.00    +0.277 C 
ENDBRANCH  35  36
ENDBRANCH  29  30
ENDBRANCH  28  29
ENDBRANCH  11  28
TORSDOF 9
