REMARK  Name = ZINC02757758
REMARK  7 active torsions:
REMARK  status: ('A' for Active; 'I' for Inactive)
REMARK    1  A    between atoms: C_1  and  C_2
REMARK    2  A    between atoms: C_2  and  C_3
REMARK    3  A    between atoms: C_3  and  O_4
REMARK    4  A    between atoms: O_4  and  C_5
REMARK    5  A    between atoms: C_5  and  C_7
REMARK    6  A    between atoms: C_8  and  C_28
REMARK    7  A    between atoms: C_12  and  C_14
REMARK                            x       y       z     vdW  Elec       q    Type
REMARK                         _______ _______ _______ _____ _____    ______ ____
ROOT
ATOM      1  C   UNL     1       1.375   2.061   0.000  0.00  0.00    +0.065 C 
ATOM      2  C   UNL     1       2.425   1.305  -0.364  0.00  0.00    +0.016 C 
ATOM      3  N   UNL     1       2.246   0.001  -0.730  0.00  0.00    -0.321 N 
ATOM      4  C   UNL     1       1.113  -0.676  -0.368  0.00  0.00    +0.015 C 
ATOM      5  C   UNL     1       0.002  -0.004   0.002  0.00  0.00    +0.024 C 
ATOM      6  C   UNL     1      -0.018   1.504   0.010  0.00  0.00    +0.092 C 
ATOM      7  C   UNL     1      -1.164  -0.687   0.391  0.00  0.00    +0.162 C 
ATOM      8  O   UNL     1      -2.149  -0.051   0.709  0.00  0.00    -0.292 OA
ATOM      9  C   UNL     1      -1.213  -2.190   0.421  0.00  0.00    +0.080 C 
ATOM     10  C   UNL     1       0.197  -2.730   0.687  0.00  0.00    +0.014 C 
ATOM     11  C   UNL     1       1.137  -2.185  -0.391  0.00  0.00    +0.051 C 
ATOM     12  C   UNL     1       3.810   1.901  -0.370  0.00  0.00    +0.061 C 
ATOM     13  H   UNL     1       3.017  -0.516  -1.321  0.00  0.00    +0.152 HD
ENDROOT
BRANCH   6  14
ATOM     14  C   UNL     1      -0.757   1.995  -1.208  0.00  0.00    -0.032 A 
ATOM     15  C   UNL     1      -0.298   1.669  -2.471  0.00  0.00    +0.008 A 
ATOM     16  C   UNL     1      -0.973   2.117  -3.591  0.00  0.00    +0.050 A 
ATOM     17  C   UNL     1      -2.110   2.896  -3.451  0.00  0.00    +0.166 A 
ATOM     18  C   UNL     1      -2.572   3.224  -2.179  0.00  0.00    +0.167 A 
ATOM     19  C   UNL     1      -1.895   2.767  -1.060  0.00  0.00    +0.054 A 
ATOM     20  O   UNL     1      -3.695   3.989  -2.306  0.00  0.00    -0.453 OA
ATOM     21  C   UNL     1      -4.148   3.785  -3.658  0.00  0.00    +0.466 C 
ATOM     22  O   UNL     1      -2.944   3.455  -4.375  0.00  0.00    -0.453 OA
ENDBRANCH   6  14
BRANCH   1  23
ATOM     23  C   UNL     1       1.587   3.407   0.381  0.00  0.00    +0.338 C 
ATOM     24  O   UNL     1       2.712   3.870   0.377  0.00  0.00    -0.245 OA
BRANCH  23  25
ATOM     25  O   UNL     1       0.541   4.176   0.749  0.00  0.00    -0.461 OA
BRANCH  25  26
ATOM     26  C   UNL     1       0.829   5.526   1.121  0.00  0.00    +0.232 C 
BRANCH  26  28
ATOM     27  C   UNL     1      -0.163   7.682   1.903  0.00  0.00    +0.007 C 
ATOM     28  C   UNL     1      -0.471   6.237   1.504  0.00  0.00    +0.038 C 
ENDBRANCH  26  28
ENDBRANCH  25  26
ENDBRANCH  23  25
ENDBRANCH   1  23
TORSDOF 5
