REMARK  Name = ZINC63704253
REMARK  6 active torsions:
REMARK  status: ('A' for Active; 'I' for Inactive)
REMARK    1  A    between atoms: C_7  and  C_10
REMARK    2  A    between atoms: C_10  and  C_11
REMARK    3  A    between atoms: C_11  and  N_12
REMARK    4  A    between atoms: C_13  and  C_15
REMARK    5  A    between atoms: C_18  and  C_21
REMARK    6  A    between atoms: C_21  and  N_22
REMARK                            x       y       z     vdW  Elec       q    Type
REMARK                         _______ _______ _______ _____ _____    ______ ____
ROOT
ATOM      1  C   UNL     1      -1.734  -6.535  -2.622  0.00  0.00    +0.037 A 
ATOM      2  C   UNL     1      -2.247  -7.021  -1.418  0.00  0.00    +0.013 A 
ATOM      3  C   UNL     1      -3.108  -8.098  -1.423  0.00  0.00    +0.006 A 
ATOM      4  C   UNL     1      -3.463  -8.698  -2.619  0.00  0.00    -0.030 A 
ATOM      5  C   UNL     1      -2.958  -8.222  -3.816  0.00  0.00    +0.006 A 
ATOM      6  C   UNL     1      -2.101  -7.141  -3.825  0.00  0.00    +0.013 A 
ENDROOT
BRANCH   1   8
ATOM      7  N   UNL     1      -0.458  -4.798  -1.460  0.00  0.00    -0.311 N 
ATOM      8  C   UNL     1      -0.811  -5.380  -2.623  0.00  0.00    +0.244 C 
ATOM      9  O   UNL     1      -0.370  -4.956  -3.674  0.00  0.00    -0.270 OA
ATOM     10  H   UNL     1      -0.810  -5.136  -0.622  0.00  0.00    +0.149 HD
BRANCH   7  11
ATOM     11  C   UNL     1       0.457  -3.653  -1.462  0.00  0.00    +0.109 C 
BRANCH  11  12
ATOM     12  C   UNL     1       0.691  -3.186  -0.024  0.00  0.00    +0.052 C 
BRANCH  12  19
ATOM     13  C   UNL     1      -0.016   1.348   0.009  0.00  0.00    +0.001 A 
ATOM     14  C   UNL     1       1.166   2.101   0.002  0.00  0.00    +0.002 A 
ATOM     15  C   UNL     1       2.391   1.535  -0.013  0.00  0.00    +0.026 A 
ATOM     16  C   UNL     1       2.529   0.120  -0.022  0.00  0.00    +0.043 A 
ATOM     17  N   UNL     1       3.587  -0.654  -0.037  0.00  0.00    -0.380 N 
ATOM     18  C   UNL     1       3.143  -2.053  -0.041  0.00  0.00    +0.144 C 
ATOM     19  C   UNL     1       1.631  -2.008  -0.025  0.00  0.00    -0.040 C 
ATOM     20  C   UNL     1       1.295  -0.698  -0.014  0.00  0.00    -0.001 A 
ATOM     21  C   UNL     1       0.002  -0.004   0.002  0.00  0.00    +0.010 A 
ATOM     22  H   UNL     1       4.509  -0.353  -0.045  0.00  0.00    +0.160 HD
ENDBRANCH  12  19
ENDBRANCH  11  12
ENDBRANCH   7  11
ENDBRANCH   1   8
BRANCH   4  23
ATOM     23  C   UNL     1      -4.404  -9.875  -2.617  0.00  0.00    +0.153 C 
BRANCH  23  24
ATOM     24  N   UNL     1      -5.785  -9.397  -2.728  0.00  0.00    -0.219 N 
ATOM     25  C   UNL     1      -6.484  -9.114  -1.610  0.00  0.00    +0.236 C 
ATOM     26  O   UNL     1      -6.026  -9.384  -0.520  0.00  0.00    -0.274 OA
ATOM     27  C   UNL     1      -7.830  -8.463  -1.721  0.00  0.00    +0.144 C 
ATOM     28  C   UNL     1      -8.773  -8.926  -0.656  0.00  0.00    -0.008 C 
ATOM     29  C   UNL     1     -10.077  -9.064  -0.903  0.00  0.00    -0.003 C 
ATOM     30  C   UNL     1     -10.618  -8.810  -2.184  0.00  0.00    +0.001 C 
ATOM     31  C   UNL     1      -9.805  -8.640  -3.261  0.00  0.00    +0.022 C 
ATOM     32  C   UNL     1      -8.420  -8.701  -3.081  0.00  0.00    +0.051 C 
ATOM     33  N   UNL     1      -7.646  -9.008  -4.099  0.00  0.00    -0.166 NA
ATOM     34  C   UNL     1      -6.338  -9.240  -3.942  0.00  0.00    +0.333 C 
ATOM     35  O   UNL     1      -5.628  -9.315  -4.928  0.00  0.00    -0.250 OA
ENDBRANCH  23  24
ENDBRANCH   4  23
TORSDOF 6
