REMARK  Name = ZINC07702444
REMARK  6 active torsions:
REMARK  status: ('A' for Active; 'I' for Inactive)
REMARK    1  A    between atoms: C_1  and  C_2
REMARK    2  A    between atoms: C_5  and  C_8
REMARK    3  A    between atoms: C_8  and  C_10
REMARK    4  A    between atoms: C_8  and  N_15
REMARK    5  A    between atoms: N_15  and  S_16
REMARK    6  A    between atoms: S_16  and  C_19
REMARK                            x       y       z     vdW  Elec       q    Type
REMARK                         _______ _______ _______ _____ _____    ______ ____
ROOT
ATOM      1  N   UNL     1       2.086   5.267   0.898  0.00  0.00    -0.178 NA
ATOM      2  H   UNL     1       2.970   5.057   0.557  0.00  0.00    +0.149 HD
ENDROOT
BRANCH   1   3
ATOM      3  S   UNL     1       1.898   5.747   2.472  0.00  0.00    +0.059 S 
ATOM      4  O   UNL     1       3.192   5.726   3.060  0.00  0.00    -0.153 OA
ATOM      5  O   UNL     1       1.092   6.917   2.447  0.00  0.00    -0.153 OA
BRANCH   3   6
ATOM      6  C   UNL     1       0.955   4.502   3.287  0.00  0.00    +0.107 A 
ATOM      7  C   UNL     1       1.598   3.441   3.901  0.00  0.00    +0.030 A 
ATOM      8  C   UNL     1       0.867   2.461   4.543  0.00  0.00    +0.030 A 
ATOM      9  C   UNL     1      -0.517   2.539   4.571  0.00  0.00    +0.067 A 
ATOM     10  C   UNL     1      -1.166   3.609   3.952  0.00  0.00    +0.069 A 
ATOM     11  C   UNL     1      -0.423   4.592   3.315  0.00  0.00    +0.056 A 
ATOM     12  N   UNL     1      -2.532   3.418   4.144  0.00  0.00    -0.306 N 
ATOM     13  H   UNL     1      -3.238   4.002   3.826  0.00  0.00    +0.170 HD
ATOM     14  C   UNL     1      -2.707   2.284   4.849  0.00  0.00    +0.325 A 
ATOM     15  O   UNL     1      -3.783   1.828   5.188  0.00  0.00    -0.247 OA
ATOM     16  N   UNL     1      -1.510   1.731   5.121  0.00  0.00    -0.306 N 
ATOM     17  H   UNL     1      -1.363   0.910   5.616  0.00  0.00    +0.170 HD
ENDBRANCH   3   6
ENDBRANCH   1   3
BRANCH   1  18
ATOM     18  C   UNL     1       0.918   5.160   0.021  0.00  0.00    +0.143 C 
BRANCH  18  23
ATOM     19  C   UNL     1       2.397   6.697  -5.350  0.00  0.00    +0.044 C 
ATOM     20  C   UNL     1       2.011   6.296  -3.950  0.00  0.00    -0.050 A 
ATOM     21  C   UNL     1       0.790   6.685  -3.431  0.00  0.00    +0.004 A 
ATOM     22  C   UNL     1       0.436   6.317  -2.146  0.00  0.00    +0.006 A 
ATOM     23  C   UNL     1       1.304   5.561  -1.380  0.00  0.00    -0.024 A 
ATOM     24  C   UNL     1       2.527   5.176  -1.897  0.00  0.00    +0.006 A 
ATOM     25  C   UNL     1       2.878   5.539  -3.184  0.00  0.00    +0.004 A 
ENDBRANCH  18  23
BRANCH  18  26
ATOM     26  C   UNL     1       0.421   3.738   0.017  0.00  0.00    +0.013 A 
ATOM     27  C   UNL     1      -0.855   3.279   0.027  0.00  0.00    +0.013 A 
ATOM     28  C   UNL     1      -1.077   1.915   0.017  0.00  0.00    +0.008 A 
ATOM     29  C   UNL     1      -0.013   1.076   0.008  0.00  0.00    +0.045 A 
ATOM     30  S   UNL     1       1.359   2.219   0.001  0.00  0.00    -0.100 S 
ENDBRANCH  18  26
ENDBRANCH   1  18
TORSDOF 5
