REMARK  Name = ZINC09854262
REMARK  6 active torsions:
REMARK  status: ('A' for Active; 'I' for Inactive)
REMARK    1  A    between atoms: C_1  and  C_2
REMARK    2  A    between atoms: C_5  and  N_9
REMARK    3  A    between atoms: C_6  and  C_8
REMARK    4  A    between atoms: C_10  and  C_12
REMARK    5  A    between atoms: C_12  and  S_13
REMARK    6  A    between atoms: S_13  and  C_14
REMARK                            x       y       z     vdW  Elec       q    Type
REMARK                         _______ _______ _______ _____ _____    ______ ____
ROOT
ATOM      1  C   UNL     1      -1.250  -0.774   0.077  0.00  0.00    +0.107 C 
ATOM      2  N   UNL     1      -1.506  -1.869  -0.550  0.00  0.00    -0.237 NA
ATOM      3  C   UNL     1      -0.692  -2.556  -1.394  0.00  0.00    +0.105 A 
ATOM      4  C   UNL     1      -1.228  -3.117  -2.558  0.00  0.00    +0.033 A 
ATOM      5  C   UNL     1      -0.396  -3.863  -3.379  0.00  0.00    +0.022 A 
ATOM      6  C   UNL     1       0.927  -4.036  -3.026  0.00  0.00    +0.113 A 
ATOM      7  N   UNL     1       1.417  -3.479  -1.932  0.00  0.00    -0.238 NA
ATOM      8  C   UNL     1       0.673  -2.734  -1.132  0.00  0.00    +0.149 A 
ATOM      9  N   UNL     1       1.273  -2.094  -0.044  0.00  0.00    -0.297 N 
ATOM     10  C   UNL     1       1.242  -0.698   0.013  0.00  0.00    +0.042 A 
ATOM     11  C   UNL     1       0.015  -0.024   0.029  0.00  0.00    +0.028 A 
ATOM     12  C   UNL     1      -0.002   1.371   0.029  0.00  0.00    +0.012 A 
ATOM     13  C   UNL     1       1.186   2.075   0.025  0.00  0.00    +0.001 A 
ATOM     14  C   UNL     1       2.396   1.405   0.033  0.00  0.00    +0.002 A 
ATOM     15  C   UNL     1       2.426   0.022   0.029  0.00  0.00    +0.024 A 
ATOM     16  H   UNL     1       1.702  -2.608   0.657  0.00  0.00    +0.154 HD
ENDROOT
BRANCH   1  17
ATOM     17  S   UNL     1      -2.534  -0.112   1.086  0.00  0.00    -0.096 S 
BRANCH  17  18
ATOM     18  C   UNL     1      -3.821  -1.354   0.812  0.00  0.00    +0.171 C 
BRANCH  18  20
ATOM     19  N   UNL     1      -6.146  -1.771   1.548  0.00  0.00    -0.285 N 
ATOM     20  C   UNL     1      -5.052  -0.985   1.600  0.00  0.00    +0.227 C 
ATOM     21  O   UNL     1      -5.058   0.019   2.280  0.00  0.00    -0.275 OA
ATOM     22  H   UNL     1      -6.170  -2.529   0.944  0.00  0.00    +0.155 HD
BRANCH  19  27
ATOM     23  C   UNL     1     -10.605  -0.644   4.869  0.00  0.00    +0.044 C 
ATOM     24  C   UNL     1      -9.421  -0.943   3.987  0.00  0.00    -0.050 A 
ATOM     25  C   UNL     1      -8.159  -0.517   4.358  0.00  0.00    +0.005 A 
ATOM     26  C   UNL     1      -7.071  -0.789   3.552  0.00  0.00    +0.024 A 
ATOM     27  C   UNL     1      -7.245  -1.493   2.367  0.00  0.00    +0.036 A 
ATOM     28  C   UNL     1      -8.515  -1.914   1.994  0.00  0.00    -0.029 A 
ATOM     29  C   UNL     1      -9.598  -1.643   2.808  0.00  0.00    +0.008 A 
ATOM     30  C   UNL     1      -8.710  -2.672   0.707  0.00  0.00    +0.045 C 
ENDBRANCH  19  27
ENDBRANCH  18  20
ENDBRANCH  17  18
ENDBRANCH   1  17
TORSDOF 4
