REMARK  Name = ZINC05237690
REMARK  6 active torsions:
REMARK  status: ('A' for Active; 'I' for Inactive)
REMARK    1  A    between atoms: C_1  and  C_2
REMARK    2  A    between atoms: C_5  and  N_8
REMARK    3  A    between atoms: C_9  and  C_11
REMARK    4  A    between atoms: C_11  and  S_12
REMARK    5  A    between atoms: S_12  and  C_13
REMARK    6  A    between atoms: C_25  and  C_29
REMARK                            x       y       z     vdW  Elec       q    Type
REMARK                         _______ _______ _______ _____ _____    ______ ____
ROOT
ATOM      1  C   UNL     1       0.919  -4.249  -2.943  0.00  0.00    +0.170 A 
ATOM      2  N   UNL     1       0.048  -4.058  -1.914  0.00  0.00    -0.301 N 
ATOM      3  H   UNL     1      -0.529  -4.823  -1.628  0.00  0.00    +0.171 HD
ATOM      4  C   UNL     1      -0.073  -2.879  -1.259  0.00  0.00    +0.261 A 
ATOM      5  O   UNL     1      -0.858  -2.727  -0.340  0.00  0.00    -0.267 OA
ATOM      6  C   UNL     1       0.780  -1.821  -1.714  0.00  0.00    +0.075 A 
ATOM      7  C   UNL     1       0.845  -0.469  -1.184  0.00  0.00    -0.023 A 
ATOM      8  C   UNL     1       1.730   0.370  -1.769  0.00  0.00    -0.004 A 
ATOM      9  S   UNL     1       2.510  -0.589  -3.042  0.00  0.00    -0.073 S 
ATOM     10  C   UNL     1       1.652  -2.111  -2.788  0.00  0.00    +0.117 A 
ATOM     11  N   UNL     1       1.722  -3.292  -3.389  0.00  0.00    -0.216 NA
ATOM     12  C   UNL     1       1.993   1.802  -1.416  0.00  0.00    +0.046 C 
ATOM     13  C   UNL     1       1.374   2.085  -0.040  0.00  0.00    -0.009 C 
ATOM     14  C   UNL     1      -0.056   1.538  -0.025  0.00  0.00    +0.008 C 
ATOM     15  C   UNL     1      -0.027   0.009  -0.026  0.00  0.00    +0.037 C 
ATOM     16  C   UNL     1       1.349   3.594   0.211  0.00  0.00    +0.008 C 
ENDROOT
BRANCH   1  17
ATOM     17  S   UNL     1       0.981  -5.832  -3.715  0.00  0.00    -0.078 S 
BRANCH  17  18
ATOM     18  C   UNL     1       2.257  -5.524  -4.961  0.00  0.00    +0.173 C 
BRANCH  18  20
ATOM     19  N   UNL     1       3.398  -6.784  -6.758  0.00  0.00    -0.285 N 
ATOM     20  C   UNL     1       2.486  -6.777  -5.766  0.00  0.00    +0.227 C 
ATOM     21  O   UNL     1       1.849  -7.780  -5.521  0.00  0.00    -0.275 OA
ATOM     22  H   UNL     1       3.859  -5.965  -6.998  0.00  0.00    +0.155 HD
BRANCH  19  27
ATOM     23  C   UNL     1       4.542 -11.600  -9.530  0.00  0.00    +0.044 C 
ATOM     24  C   UNL     1       4.238 -10.321  -8.793  0.00  0.00    -0.050 A 
ATOM     25  C   UNL     1       2.951 -10.066  -8.355  0.00  0.00    +0.005 A 
ATOM     26  C   UNL     1       2.670  -8.894  -7.680  0.00  0.00    +0.023 A 
ATOM     27  C   UNL     1       3.680  -7.972  -7.441  0.00  0.00    +0.033 A 
ATOM     28  C   UNL     1       4.970  -8.229  -7.887  0.00  0.00    +0.023 A 
ATOM     29  C   UNL     1       5.246  -9.405  -8.557  0.00  0.00    +0.005 A 
ENDBRANCH  19  27
ENDBRANCH  18  20
ENDBRANCH  17  18
ENDBRANCH   1  17
TORSDOF 4
