REMARK  Name = ZINC53627417
REMARK  7 active torsions:
REMARK  status: ('A' for Active; 'I' for Inactive)
REMARK    1  A    between atoms: C_1  and  C_2
REMARK    2  A    between atoms: C_13  and  C_15
REMARK    3  A    between atoms: C_15  and  C_16
REMARK    4  A    between atoms: N_18  and  C_19
REMARK    5  A    between atoms: C_19  and  C_20
REMARK    6  A    between atoms: C_20  and  C_21
REMARK    7  A    between atoms: C_28  and  C_29
REMARK                            x       y       z     vdW  Elec       q    Type
REMARK                         _______ _______ _______ _____ _____    ______ ____
ROOT
ATOM      1  C   UNL     1      -0.019   1.526   0.010  0.00  0.00    +0.013 C 
ATOM      2  C   UNL     1       0.002  -0.004   0.002  0.00  0.00    +0.034 C 
ATOM      3  C   UNL     1      -1.414  -0.524   0.009  0.00  0.00    -0.001 A 
ATOM      4  C   UNL     1      -2.348   0.129  -0.755  0.00  0.00    +0.019 A 
ATOM      5  C   UNL     1      -3.663  -0.318  -0.787  0.00  0.00    +0.028 A 
ATOM      6  C   UNL     1      -4.044  -1.442  -0.036  0.00  0.00    +0.139 A 
ATOM      7  C   UNL     1      -3.092  -2.093   0.734  0.00  0.00    +0.093 A 
ATOM      8  C   UNL     1      -1.782  -1.633   0.758  0.00  0.00    +0.139 A 
ATOM      9  O   UNL     1      -0.888  -2.296   1.544  0.00  0.00    -0.425 OA
ATOM     10  C   UNL     1       0.415  -1.979   1.408  0.00  0.00    +0.316 C 
ATOM     11  O   UNL     1       1.277  -2.826   1.419  0.00  0.00    -0.250 OA
ATOM     12  C   UNL     1       0.747  -0.510   1.241  0.00  0.00    +0.114 C 
ATOM     13  O   UNL     1      -5.359  -1.650  -0.254  0.00  0.00    -0.462 OA
ATOM     14  C   UNL     1      -5.861  -0.731  -1.097  0.00  0.00    +0.204 A 
ATOM     15  C   UNL     1      -4.888   0.128  -1.476  0.00  0.00    +0.028 A 
ENDROOT
BRANCH  15  16
ATOM     16  C   UNL     1      -5.025   1.284  -2.395  0.00  0.00    -0.014 A 
ATOM     17  C   UNL     1      -4.536   2.535  -2.023  0.00  0.00    +0.010 A 
ATOM     18  C   UNL     1      -4.666   3.607  -2.882  0.00  0.00    +0.020 A 
ATOM     19  C   UNL     1      -5.281   3.441  -4.112  0.00  0.00    +0.041 A 
ATOM     20  C   UNL     1      -5.769   2.201  -4.485  0.00  0.00    +0.020 A 
ATOM     21  C   UNL     1      -5.639   1.121  -3.636  0.00  0.00    +0.010 A 
ATOM     22 CL   UNL     1      -5.441   4.794  -5.188  0.00  0.00    -0.084 Cl
ENDBRANCH  15  16
BRANCH  12  23
ATOM     23  C   UNL     1       0.290   0.270   2.476  0.00  0.00    +0.111 C 
BRANCH  23  24
ATOM     24  C   UNL     1       1.113  -0.147   3.667  0.00  0.00    +0.214 C 
ATOM     25  O   UNL     1       1.980  -0.986   3.541  0.00  0.00    -0.276 OA
ATOM     26  N   UNL     1       0.886   0.411   4.872  0.00  0.00    -0.315 N 
ATOM     27  H   UNL     1       0.193   1.082   4.973  0.00  0.00    +0.149 HD
BRANCH  26  28
ATOM     28  C   UNL     1       1.686   0.006   6.030  0.00  0.00    +0.110 C 
BRANCH  28  29
ATOM     29  C   UNL     1       1.229   0.785   7.265  0.00  0.00    +0.073 C 
BRANCH  29  30
ATOM     30  C   UNL     1       2.053   0.368   8.456  0.00  0.00    +0.035 A 
ATOM     31  N   UNL     1       3.177   0.989   8.929  0.00  0.00    -0.350 N 
ATOM     32  C   UNL     1       3.596   0.291  10.006  0.00  0.00    +0.171 A 
ATOM     33  N   UNL     1       2.781  -0.710  10.198  0.00  0.00    -0.352 N 
ATOM     34  C   UNL     1       1.820  -0.684   9.263  0.00  0.00    +0.105 A 
ATOM     35  H   UNL     1       3.595   1.783   8.559  0.00  0.00    +0.166 HD
ATOM     36  H   UNL     1       2.857  -1.368  10.908  0.00  0.00    +0.166 HD
ENDBRANCH  29  30
ENDBRANCH  28  29
ENDBRANCH  26  28
ENDBRANCH  23  24
ENDBRANCH  12  23
TORSDOF 6
