REMARK  Name = ZINC24903441
REMARK  5 active torsions:
REMARK  status: ('A' for Active; 'I' for Inactive)
REMARK    1  A    between atoms: C_5  and  C_7
REMARK    2  A    between atoms: C_7  and  N_8
REMARK    3  A    between atoms: N_12  and  C_15
REMARK    4  A    between atoms: C_15  and  C_16
REMARK    5  A    between atoms: C_23  and  C_28
REMARK                            x       y       z     vdW  Elec       q    Type
REMARK                         _______ _______ _______ _____ _____    ______ ____
ROOT
ATOM      1  C   UNL     1      -3.806   9.337  -0.265  0.00  0.00    +0.135 C 
ATOM      2  N   UNL     1      -4.812   8.541  -0.305  0.00  0.00    -0.117 NA
ATOM      3  S   UNL     1      -4.644   6.936   0.074  0.00  0.00    +0.102 S 
ATOM      4  O   UNL     1      -5.080   6.783   1.418  0.00  0.00    -0.146 OA
ATOM      5  O   UNL     1      -5.206   6.198  -1.003  0.00  0.00    -0.146 OA
ATOM      6  C   UNL     1      -2.909   6.617   0.061  0.00  0.00    +0.134 A 
ATOM      7  C   UNL     1      -2.429   5.330   0.045  0.00  0.00    +0.040 A 
ATOM      8  C   UNL     1      -1.050   5.106   0.037  0.00  0.00    -0.009 A 
ATOM      9  C   UNL     1      -0.172   6.191   0.034  0.00  0.00    +0.011 A 
ATOM     10  C   UNL     1      -0.663   7.479   0.046  0.00  0.00    +0.026 A 
ATOM     11  C   UNL     1      -2.036   7.702   0.060  0.00  0.00    +0.059 A 
ATOM     12  N   UNL     1      -2.539   9.000   0.077  0.00  0.00    -0.299 N 
ATOM     13  H   UNL     1      -1.830   9.778   0.396  0.00  0.00    +0.153 HD
ENDROOT
BRANCH   8  14
ATOM     14  C   UNL     1      -0.522   3.725   0.026  0.00  0.00    +0.019 A 
ATOM     15  C   UNL     1       0.779   3.298   0.012  0.00  0.00    +0.016 A 
ATOM     16  C   UNL     1       1.031   1.943   0.003  0.00  0.00    +0.008 A 
ATOM     17  C   UNL     1      -0.013   1.076   0.008  0.00  0.00    +0.046 A 
ATOM     18  S   UNL     1      -1.416   2.179   0.019  0.00  0.00    -0.097 S 
ENDBRANCH   8  14
BRANCH   1  19
ATOM     19  C   UNL     1      -4.057  10.777  -0.633  0.00  0.00    +0.157 C 
BRANCH  19  24
ATOM     20  N   UNL     1      -8.137  12.549  -1.906  0.00  0.00    +0.384 N 
ATOM     21  C   UNL     1      -8.242  12.151  -0.484  0.00  0.00    -0.077 C 
ATOM     22  C   UNL     1      -7.787  10.736  -0.235  0.00  0.00    -0.003 C 
ATOM     23  C   UNL     1      -6.290  10.751   0.148  0.00  0.00    +0.083 C 
ATOM     24  N   UNL     1      -5.475  10.956  -0.973  0.00  0.00    -0.297 NA
ATOM     25  C   UNL     1      -5.695  12.242  -1.665  0.00  0.00    +0.066 C 
ATOM     26  C   UNL     1      -6.896  12.091  -2.563  0.00  0.00    -0.063 C 
ATOM     27  H   UNL     1      -8.962  12.041  -2.428  0.00  0.00    -0.081 HD
BRANCH  20  28
ATOM     28  C   UNL     1      -8.310  14.000  -2.061  0.00  0.00    -0.022 C 
BRANCH  28  33
ATOM     29  C   UNL     1     -11.288  15.165  -0.066  0.00  0.00    +0.003 A 
ATOM     30  C   UNL     1     -12.271  15.062  -1.039  0.00  0.00    +0.020 A 
ATOM     31  C   UNL     1     -11.926  14.618  -2.301  0.00  0.00    +0.111 A 
ATOM     32  N   UNL     1     -10.678  14.300  -2.586  0.00  0.00    -0.262 NA
ATOM     33  C   UNL     1      -9.719  14.381  -1.685  0.00  0.00    +0.025 A 
ATOM     34  C   UNL     1      -9.989  14.816  -0.402  0.00  0.00    +0.021 A 
ENDBRANCH  28  33
ENDBRANCH  20  28
ENDBRANCH  19  24
ENDBRANCH   1  19
TORSDOF 5
