REMARK  Name = ZINC65265693
REMARK  5 active torsions:
REMARK  status: ('A' for Active; 'I' for Inactive)
REMARK    1  A    between atoms: C_4  and  C_7
REMARK    2  A    between atoms: C_7  and  N_8
REMARK    3  A    between atoms: C_24  and  C_26
REMARK    4  A    between atoms: C_26  and  O_27
REMARK    5  A    between atoms: O_27  and  C_28
REMARK                            x       y       z     vdW  Elec       q    Type
REMARK                         _______ _______ _______ _____ _____    ______ ____
ROOT
ATOM      1  N   UNL     1       4.152  -0.952   1.338  0.00  0.00    -0.370 N 
ATOM      2  C   UNL     1       5.264  -1.574   1.560  0.00  0.00    +0.099 C 
ATOM      3  N   UNL     1       6.068  -2.018   0.525  0.00  0.00    -0.286 N 
ATOM      4  C   UNL     1       6.707  -3.255   0.681  0.00  0.00    +0.145 A 
ATOM      5  C   UNL     1       6.734  -3.872   1.933  0.00  0.00    +0.069 A 
ATOM      6  C   UNL     1       7.379  -5.092   2.074  0.00  0.00    +0.028 A 
ATOM      7  C   UNL     1       7.972  -5.657   0.952  0.00  0.00    +0.022 A 
ATOM      8  C   UNL     1       7.901  -4.993  -0.256  0.00  0.00    +0.113 A 
ATOM      9  N   UNL     1       7.283  -3.831  -0.361  0.00  0.00    -0.238 NA
ATOM     10  N   UNL     1       6.111  -3.277   3.038  0.00  0.00    -0.328 N 
ATOM     11  C   UNL     1       5.757  -1.849   2.965  0.00  0.00    +0.102 C 
ATOM     12  C   UNL     1       6.982  -0.987   3.257  0.00  0.00    +0.036 C 
ATOM     13  C   UNL     1       7.496  -1.281   4.669  0.00  0.00    +0.021 C 
ATOM     14  C   UNL     1       6.402  -0.942   5.686  0.00  0.00    +0.108 C 
ATOM     15  N   UNL     1       5.180  -1.675   5.329  0.00  0.00    -0.296 N 
ATOM     16  C   UNL     1       4.646  -1.536   3.967  0.00  0.00    +0.141 C 
ATOM     17  C   UNL     1       4.560  -2.459   6.234  0.00  0.00    +0.253 C 
ATOM     18  O   UNL     1       3.552  -3.059   5.926  0.00  0.00    -0.272 OA
ATOM     19  H   UNL     1       3.610  -0.648   2.082  0.00  0.00    +0.161 HD
ATOM     20  H   UNL     1       5.920  -3.794   3.836  0.00  0.00    +0.147 HD
ATOM     21  H   UNL     1       6.185  -1.491  -0.281  0.00  0.00    +0.155 HD
ENDROOT
BRANCH   1  22
ATOM     22  C   UNL     1       3.711  -0.707  -0.038  0.00  0.00    +0.149 C 
BRANCH  22  26
ATOM     23  C   UNL     1      -0.017   1.378   0.010  0.00  0.00    +0.000 A 
ATOM     24  C   UNL     1       1.171   2.086   0.002  0.00  0.00    +0.000 A 
ATOM     25  C   UNL     1       2.377   1.411  -0.013  0.00  0.00    +0.005 A 
ATOM     26  C   UNL     1       2.396   0.029  -0.020  0.00  0.00    -0.028 A 
ATOM     27  C   UNL     1       1.208  -0.679  -0.012  0.00  0.00    +0.005 A 
ATOM     28  C   UNL     1       0.002  -0.004   0.002  0.00  0.00    +0.000 A 
ENDBRANCH  22  26
ENDBRANCH   1  22
BRANCH  17  29
ATOM     29  C   UNL     1       5.120  -2.591   7.626  0.00  0.00    +0.324 C 
BRANCH  29  30
ATOM     30  O   UNL     1       4.293  -3.470   8.391  0.00  0.00    -0.483 OA
BRANCH  30  31
ATOM     31  C   UNL     1       4.660  -3.698   9.680  0.00  0.00    +0.121 A 
ATOM     32  C   UNL     1       5.791  -3.084  10.198  0.00  0.00    +0.045 A 
ATOM     33  C   UNL     1       6.163  -3.317  11.508  0.00  0.00    +0.004 A 
ATOM     34  C   UNL     1       5.409  -4.162  12.302  0.00  0.00    +0.000 A 
ATOM     35  C   UNL     1       4.282  -4.775  11.787  0.00  0.00    +0.004 A 
ATOM     36  C   UNL     1       3.903  -4.540  10.480  0.00  0.00    +0.045 A 
ENDBRANCH  30  31
ENDBRANCH  29  30
ENDBRANCH  17  29
TORSDOF 5
