REMARK  Name = ZINC22752014
REMARK  9 active torsions:
REMARK  status: ('A' for Active; 'I' for Inactive)
REMARK    1  A    between atoms: C_1  and  C_2
REMARK    2  A    between atoms: C_2  and  C_3
REMARK    3  A    between atoms: C_2  and  C_4
REMARK    4  A    between atoms: C_2  and  C_5
REMARK    5  A    between atoms: C_8  and  N_11
REMARK    6  A    between atoms: C_12  and  C_14
REMARK    7  A    between atoms: C_14  and  N_15
REMARK    8  A    between atoms: N_18  and  C_21
REMARK    9  A    between atoms: C_21  and  C_22
REMARK                            x       y       z     vdW  Elec       q    Type
REMARK                         _______ _______ _______ _____ _____    ______ ____
ROOT
ATOM      1  C   UNL     1       4.564  -0.219  -6.709  0.00  0.00    +0.019 C 
ENDROOT
BRANCH   1   2
ATOM      2  N   UNL     1       5.656   0.704  -7.045  0.00  0.00    +0.387 N 
ATOM      3  C   UNL     1       6.669   0.671  -5.981  0.00  0.00    -0.063 C 
ATOM      4  C   UNL     1       7.798   1.646  -6.321  0.00  0.00    +0.066 C 
ATOM      5  N   UNL     1       8.400   1.266  -7.607  0.00  0.00    -0.301 NA
ATOM      6  C   UNL     1       7.392   1.270  -8.677  0.00  0.00    +0.066 C 
ATOM      7  C   UNL     1       6.266   0.298  -8.317  0.00  0.00    -0.063 C 
ATOM      8  H   UNL     1       5.290   1.640  -7.131  0.00  0.00    -0.081 HD
BRANCH   5   9
ATOM      9  C   UNL     1       9.527   2.146  -7.941  0.00  0.00    +0.126 C 
BRANCH   9  10
ATOM     10  C   UNL     1      10.268   1.584  -9.127  0.00  0.00    +0.005 A 
ATOM     11  C   UNL     1      10.070   1.819 -10.447  0.00  0.00    +0.014 A 
ATOM     12  C   UNL     1      10.881   1.185 -11.370  0.00  0.00    +0.028 A 
ATOM     13  C   UNL     1      11.851   0.347 -10.927  0.00  0.00    +0.078 A 
ATOM     14  S   UNL     1      11.640   0.442  -9.157  0.00  0.00    -0.080 S 
ATOM     15 CL   UNL     1      13.002  -0.575 -11.843  0.00  0.00    -0.076 Cl
ENDBRANCH   9  10
ENDBRANCH   5   9
ENDBRANCH   1   2
BRANCH   1  17
ATOM     16  N   UNL     1       2.816  -0.427  -4.971  0.00  0.00    -0.314 N 
ATOM     17  C   UNL     1       3.858   0.267  -5.469  0.00  0.00    +0.197 C 
ATOM     18  O   UNL     1       4.229   1.282  -4.919  0.00  0.00    -0.278 OA
ATOM     19  H   UNL     1       2.519  -1.239  -5.411  0.00  0.00    +0.149 HD
BRANCH  16  23
ATOM     20  C   UNL     1       0.718  -0.497  -1.257  0.00  0.00    -0.005 C 
ATOM     21  C   UNL     1      -0.022   0.009  -2.496  0.00  0.00    +0.006 C 
ATOM     22  C   UNL     1       0.694  -0.484  -3.755  0.00  0.00    +0.022 C 
ATOM     23  C   UNL     1       2.130   0.045  -3.766  0.00  0.00    +0.073 C 
ATOM     24  C   UNL     1       2.870  -0.461  -2.526  0.00  0.00    +0.022 C 
ATOM     25  C   UNL     1       2.154   0.032  -1.268  0.00  0.00    +0.006 C 
BRANCH  20  27
ATOM     26  C   UNL     1      -0.019   1.526   0.010  0.00  0.00    +0.011 C 
ATOM     27  C   UNL     1       0.002  -0.004   0.002  0.00  0.00    -0.035 C 
ATOM     28  C   UNL     1       0.742  -0.511   1.242  0.00  0.00    +0.011 C 
ATOM     29  C   UNL     1      -1.433  -0.534   0.013  0.00  0.00    +0.011 C 
ENDBRANCH  20  27
ENDBRANCH  16  23
ENDBRANCH   1  17
TORSDOF 6
