REMARK  Name = ZINC63572995
REMARK  8 active torsions:
REMARK  status: ('A' for Active; 'I' for Inactive)
REMARK    1  A    between atoms: C_1  and  O_2
REMARK    2  A    between atoms: O_2  and  C_3
REMARK    3  A    between atoms: C_6  and  C_9
REMARK    4  A    between atoms: C_16  and  O_21
REMARK    5  A    between atoms: O_21  and  C_22
REMARK    6  A    between atoms: N_28  and  C_29
REMARK    7  A    between atoms: C_34  and  O_35
REMARK    8  A    between atoms: O_35  and  C_36
REMARK                            x       y       z     vdW  Elec       q    Type
REMARK                         _______ _______ _______ _____ _____    ______ ____
ROOT
ATOM      1  C   UNL     1       2.086  -2.304  -5.031  0.00  0.00    +0.134 C 
ATOM      2  C   UNL     1       3.525  -2.330  -4.505  0.00  0.00    +0.131 C 
ATOM      3  C   UNL     1       4.257  -3.408  -5.295  0.00  0.00    -0.035 C 
ATOM      4  C   UNL     1       5.311  -2.818  -5.846  0.00  0.00    +0.003 A 
ATOM      5  C   UNL     1       6.419  -3.345  -6.657  0.00  0.00    +0.055 A 
ATOM      6  C   UNL     1       7.348  -2.444  -7.081  0.00  0.00    +0.121 A 
ATOM      7  C   UNL     1       7.300  -1.073  -6.790  0.00  0.00    +0.047 A 
ATOM      8  C   UNL     1       6.328  -0.483  -6.048  0.00  0.00    +0.029 A 
ATOM      9  C   UNL     1       5.267  -1.357  -5.529  0.00  0.00    +0.043 A 
ATOM     10  N   UNL     1       4.225  -1.072  -4.771  0.00  0.00    -0.375 N 
ATOM     11  C   UNL     1       3.736  -4.819  -5.415  0.00  0.00    +0.052 C 
ATOM     12  C   UNL     1       2.266  -4.712  -5.858  0.00  0.00    +0.114 C 
ATOM     13  N   UNL     1       1.588  -3.688  -5.056  0.00  0.00    -0.276 N 
ATOM     14  C   UNL     1       0.499  -4.019  -4.334  0.00  0.00    +0.307 C 
ATOM     15  O   UNL     1      -0.152  -3.151  -3.784  0.00  0.00    -0.252 OA
ATOM     16  N   UNL     1       0.133  -5.311  -4.221  0.00  0.00    -0.266 N 
ATOM     17  H   UNL     1       0.689  -6.008  -4.603  0.00  0.00    +0.156 HD
ATOM     18  H   UNL     1       3.959  -0.196  -4.449  0.00  0.00    +0.160 HD
ENDROOT
BRANCH  16  19
ATOM     19  C   UNL     1      -1.052  -5.647  -3.551  0.00  0.00    +0.078 A 
ATOM     20  C   UNL     1      -1.567  -4.799  -2.582  0.00  0.00    +0.047 A 
ATOM     21  C   UNL     1      -2.737  -5.132  -1.923  0.00  0.00    +0.043 A 
ATOM     22  C   UNL     1      -3.394  -6.311  -2.228  0.00  0.00    +0.024 A 
ATOM     23  C   UNL     1      -2.885  -7.161  -3.192  0.00  0.00    +0.049 A 
ATOM     24  C   UNL     1      -1.717  -6.831  -3.861  0.00  0.00    +0.141 A 
ATOM     25 CL   UNL     1      -3.381  -4.070  -0.710  0.00  0.00    -0.083 Cl
BRANCH  24  26
ATOM     26  O   UNL     1      -1.218  -7.663  -4.813  0.00  0.00    -0.493 OA
ATOM     27  C   UNL     1      -1.953  -8.860  -5.079  0.00  0.00    +0.277 C 
ENDBRANCH  24  26
ENDBRANCH  16  19
BRANCH   1  31
ATOM     28  C   UNL     1      -0.357   0.066  -2.447  0.00  0.00    +0.120 A 
ATOM     29  C   UNL     1      -0.463   0.205  -3.823  0.00  0.00    +0.046 A 
ATOM     30  C   UNL     1       0.329  -0.562  -4.657  0.00  0.00    +0.009 A 
ATOM     31  C   UNL     1       1.224  -1.468  -4.120  0.00  0.00    -0.024 A 
ATOM     32  C   UNL     1       1.331  -1.609  -2.749  0.00  0.00    +0.009 A 
ATOM     33  C   UNL     1       0.547  -0.840  -1.911  0.00  0.00    +0.046 A 
BRANCH  28  35
ATOM     34  C   UNL     1      -2.042   1.731  -2.247  0.00  0.00    +0.277 C 
ATOM     35  O   UNL     1      -1.134   0.819  -1.625  0.00  0.00    -0.495 OA
ENDBRANCH  28  35
ENDBRANCH   1  31
BRANCH   6  36
ATOM     36  O   UNL     1       8.384  -2.901  -7.832  0.00  0.00    -0.495 OA
ATOM     37  C   UNL     1       9.346  -1.938  -8.265  0.00  0.00    +0.277 C 
ENDBRANCH   6  36
TORSDOF 5
