REMARK  Name = ZINC39666215
REMARK  10 active torsions:
REMARK  status: ('A' for Active; 'I' for Inactive)
REMARK    1  A    between atoms: C_1  and  C_2
REMARK    2  A    between atoms: C_5  and  O_8
REMARK    3  A    between atoms: O_8  and  C_9
REMARK    4  A    between atoms: C_9  and  C_11
REMARK    5  A    between atoms: C_9  and  C_12
REMARK    6  A    between atoms: C_12  and  N_13
REMARK    7  A    between atoms: C_14  and  C_16
REMARK    8  A    between atoms: C_27  and  C_29
REMARK    9  A    between atoms: C_31  and  C_38
REMARK   10  A    between atoms: C_33  and  C_34
REMARK                            x       y       z     vdW  Elec       q    Type
REMARK                         _______ _______ _______ _____ _____    ______ ____
ROOT
ATOM      1  C   UNL     1      -3.787  -6.434  -0.077  0.00  0.00    +0.100 C 
ATOM      2  C   UNL     1      -3.697  -5.839  -1.500  0.00  0.00    +0.121 C 
ATOM      3  N   UNL     1      -3.902  -6.996  -2.403  0.00  0.00    -0.296 N 
ATOM      4  C   UNL     1      -4.958  -7.799  -1.739  0.00  0.00    +0.115 C 
ATOM      5  C   UNL     1      -4.619  -7.718  -0.237  0.00  0.00    -0.004 C 
ATOM      6  C   UNL     1      -3.799  -8.934   0.183  0.00  0.00    -0.010 C 
ATOM      7  C   UNL     1      -4.665 -10.192   0.068  0.00  0.00    -0.082 C 
ATOM      8  N   UNL     1      -5.848 -10.053   0.926  0.00  0.00    +0.379 N 
ATOM      9  C   UNL     1      -6.679  -8.938   0.458  0.00  0.00    -0.082 C 
ATOM     10  C   UNL     1      -5.898  -7.627   0.589  0.00  0.00    -0.010 C 
ATOM     11  C   UNL     1      -3.273  -7.259  -3.565  0.00  0.00    +0.250 C 
ATOM     12  O   UNL     1      -2.342  -6.563  -3.923  0.00  0.00    -0.270 OA
ATOM     13  H   UNL     1      -6.386 -10.907   0.896  0.00  0.00    -0.086 HD
ATOM     14  H   UNL     1      -5.555  -9.877   1.875  0.00  0.00    -0.086 HD
ENDROOT
BRANCH  11  15
ATOM     15  C   UNL     1      -3.712  -8.390  -4.402  0.00  0.00    +0.087 A 
ATOM     16  C   UNL     1      -4.886  -9.249  -4.190  0.00  0.00    +0.058 A 
ATOM     17  C   UNL     1      -4.883 -10.134  -5.198  0.00  0.00    +0.103 A 
ATOM     18  O   UNL     1      -3.827  -9.893  -5.991  0.00  0.00    -0.455 OA
ATOM     19  C   UNL     1      -3.118  -8.854  -5.539  0.00  0.00    +0.220 A 
ATOM     20  C   UNL     1      -5.901 -11.226  -5.406  0.00  0.00    +0.086 C 
BRANCH  19  21
ATOM     21  C   UNL     1      -1.873  -8.293  -6.175  0.00  0.00    +0.451 C 
ATOM     22  F   UNL     1      -0.749  -8.941  -5.650  0.00  0.00    -0.163 F 
ATOM     23  F   UNL     1      -1.924  -8.495  -7.558  0.00  0.00    -0.163 F 
ATOM     24  F   UNL     1      -1.789  -6.923  -5.907  0.00  0.00    -0.163 F 
ENDBRANCH  19  21
ENDBRANCH  11  15
BRANCH   1  26
ATOM     25  N   UNL     1      -2.165  -6.720   1.768  0.00  0.00    -0.312 N 
ATOM     26  C   UNL     1      -2.412  -6.762   0.444  0.00  0.00    +0.218 C 
ATOM     27  O   UNL     1      -1.527  -7.063  -0.329  0.00  0.00    -0.275 OA
ATOM     28  H   UNL     1      -2.888  -6.547   2.391  0.00  0.00    +0.149 HD
BRANCH  25  29
ATOM     29  C   UNL     1      -0.804  -6.936   2.267  0.00  0.00    +0.148 C 
BRANCH  29  30
ATOM     30  C   UNL     1      -0.773  -6.709   3.780  0.00  0.00    +0.187 C 
ATOM     31  C   UNL     1       0.630  -7.007   4.312  0.00  0.00    +0.053 C 
BRANCH  30  32
ATOM     32  O   UNL     1      -1.113  -5.351   4.065  0.00  0.00    -0.488 OA
BRANCH  32  37
ATOM     33  C   UNL     1      -3.633  -4.328   8.998  0.00  0.00    +0.044 C 
ATOM     34  C   UNL     1      -2.959  -4.602   7.678  0.00  0.00    -0.050 A 
ATOM     35  C   UNL     1      -2.800  -3.580   6.759  0.00  0.00    +0.007 A 
ATOM     36  C   UNL     1      -2.182  -3.829   5.549  0.00  0.00    +0.046 A 
ATOM     37  C   UNL     1      -1.721  -5.104   5.255  0.00  0.00    +0.121 A 
ATOM     38  C   UNL     1      -1.881  -6.127   6.179  0.00  0.00    +0.046 A 
ATOM     39  C   UNL     1      -2.495  -5.872   7.390  0.00  0.00    +0.007 A 
ENDBRANCH  32  37
ENDBRANCH  30  32
ENDBRANCH  29  30
ENDBRANCH  25  29
ENDBRANCH   1  26
TORSDOF 7
