REMARK  Name = ZINC13007893
REMARK  8 active torsions:
REMARK  status: ('A' for Active; 'I' for Inactive)
REMARK    1  A    between atoms: C_1  and  C_2
REMARK    2  A    between atoms: C_6  and  N_8
REMARK    3  A    between atoms: C_9  and  C_11
REMARK    4  A    between atoms: N_13  and  C_14
REMARK    5  A    between atoms: C_14  and  C_15
REMARK    6  A    between atoms: C_15  and  C_17
REMARK    7  A    between atoms: C_15  and  N_63
REMARK    8  A    between atoms: N_25  and  C_26
REMARK                            x       y       z     vdW  Elec       q    Type
REMARK                         _______ _______ _______ _____ _____    ______ ____
ROOT
ATOM      1  C   UNL     1      -3.458   6.356  -0.332  0.00  0.00    -0.020 C 
ENDROOT
BRANCH   1   2
ATOM      2  C   UNL     1      -2.658   5.170   0.139  0.00  0.00    -0.059 A 
ATOM      3  C   UNL     1      -2.199   5.117   1.442  0.00  0.00    +0.004 A 
ATOM      4  C   UNL     1      -1.468   4.031   1.879  0.00  0.00    +0.023 A 
ATOM      5  C   UNL     1      -1.188   2.979   1.008  0.00  0.00    +0.033 A 
ATOM      6  C   UNL     1      -1.649   3.045  -0.301  0.00  0.00    -0.025 A 
ATOM      7  C   UNL     1      -2.381   4.131  -0.732  0.00  0.00    +0.007 A 
ATOM      8  C   UNL     1      -1.197   1.789  -1.019  0.00  0.00    +0.056 C 
ATOM      9  C   UNL     1      -0.099   1.234  -0.082  0.00  0.00    +0.109 C 
ATOM     10  N   UNL     1      -0.482   1.788   1.235  0.00  0.00    -0.332 N 
ATOM     11  C   UNL     1       0.703   2.024   2.071  0.00  0.00    +0.129 C 
ENDBRANCH   1   2
BRANCH   1  17
ATOM     12  C   UNL     1      -5.660   7.240   0.151  0.00  0.00    -0.078 C 
ATOM     13  C   UNL     1      -6.657   7.520   1.277  0.00  0.00    -0.019 C 
ATOM     14  C   UNL     1      -6.074   8.578   2.218  0.00  0.00    -0.004 C 
ATOM     15  C   UNL     1      -4.732   8.081   2.764  0.00  0.00    -0.019 C 
ATOM     16  C   UNL     1      -3.791   7.784   1.594  0.00  0.00    -0.078 C 
ATOM     17  N   UNL     1      -4.399   6.742   0.740  0.00  0.00    +0.385 N 
ATOM     18  H   UNL     1      -4.603   5.917   1.317  0.00  0.00    -0.081 HD
ENDBRANCH   1  17
BRANCH   1  19
ATOM     19  C   UNL     1      -2.512   7.515  -0.654  0.00  0.00    +0.094 C 
BRANCH  19  22
ATOM     20  C   UNL     1      -2.672   9.823  -1.417  0.00  0.00    +0.299 C 
ATOM     21  O   UNL     1      -1.480   9.939  -1.224  0.00  0.00    -0.265 OA
ATOM     22  N   UNL     1      -3.285   8.650  -1.163  0.00  0.00    -0.309 N 
ATOM     23  H   UNL     1      -4.239   8.558  -1.317  0.00  0.00    +0.149 HD
BRANCH  20  25
ATOM     24  N   UNL     1      -2.848  12.154  -2.190  0.00  0.00    -0.278 N 
ATOM     25  C   UNL     1      -3.461  10.981  -1.936  0.00  0.00    +0.303 C 
ATOM     26  O   UNL     1      -4.654  10.865  -2.129  0.00  0.00    -0.265 OA
ATOM     27  H   UNL     1      -1.885  12.227  -2.102  0.00  0.00    +0.155 HD
BRANCH  24  33
ATOM     28  C   UNL     1      -3.623  17.005  -2.036  0.00  0.00    +0.044 C 
ATOM     29  C   UNL     1      -3.998  15.629  -2.522  0.00  0.00    -0.049 A 
ATOM     30  C   UNL     1      -5.088  15.464  -3.358  0.00  0.00    +0.003 A 
ATOM     31  C   UNL     1      -5.436  14.203  -3.806  0.00  0.00    +0.002 A 
ATOM     32  C   UNL     1      -4.692  13.104  -3.425  0.00  0.00    +0.023 A 
ATOM     33  C   UNL     1      -3.600  13.265  -2.582  0.00  0.00    +0.034 A 
ATOM     34  C   UNL     1      -3.253  14.533  -2.133  0.00  0.00    +0.026 A 
ENDBRANCH  24  33
ENDBRANCH  20  25
ENDBRANCH  19  22
ENDBRANCH   1  19
TORSDOF 6
