REMARK  Name = ZINC39926719
REMARK  6 active torsions:
REMARK  status: ('A' for Active; 'I' for Inactive)
REMARK    1  A    between atoms: C_7  and  C_10
REMARK    2  A    between atoms: C_11  and  C_12
REMARK    3  A    between atoms: C_11  and  C_14
REMARK    4  A    between atoms: N_16  and  C_17
REMARK    5  A    between atoms: C_21  and  C_23
REMARK    6  A    between atoms: C_23  and  C_24
REMARK                            x       y       z     vdW  Elec       q    Type
REMARK                         _______ _______ _______ _____ _____    ______ ____
ROOT
ATOM      1  C   UNL     1       0.211  -5.569  -0.031  0.00  0.00    +0.256 C 
ATOM      2  O   UNL     1      -0.989  -5.369  -0.019  0.00  0.00    -0.269 OA
ATOM      3  N   UNL     1       0.684  -6.831  -0.042  0.00  0.00    -0.281 N 
ATOM      4  H   UNL     1       1.641  -6.990  -0.052  0.00  0.00    +0.152 HD
ENDROOT
BRANCH   3   5
ATOM      5  C   UNL     1      -0.247  -7.962  -0.040  0.00  0.00    +0.251 C 
ATOM      6  N   UNL     1      -0.758  -8.229   1.320  0.00  0.00    -0.262 NA
ATOM      7  C   UNL     1      -0.763  -9.398   1.781  0.00  0.00    +0.095 C 
ATOM      8  C   UNL     1      -0.233 -10.530   0.912  0.00  0.00    +0.095 C 
ATOM      9  S   UNL     1       0.629  -9.548  -0.396  0.00  0.00    -0.106 S 
BRANCH   8  10
ATOM     10  C   UNL     1       0.750 -11.411   1.685  0.00  0.00    +0.056 C 
BRANCH  10  11
ATOM     11  C   UNL     1       1.181 -12.564   0.815  0.00  0.00    -0.026 A 
ATOM     12  C   UNL     1       0.526 -13.779   0.903  0.00  0.00    +0.005 A 
ATOM     13  C   UNL     1       0.921 -14.837   0.106  0.00  0.00    +0.002 A 
ATOM     14  C   UNL     1       1.972 -14.682  -0.779  0.00  0.00    +0.021 A 
ATOM     15  C   UNL     1       2.628 -13.468  -0.868  0.00  0.00    +0.060 A 
ATOM     16  C   UNL     1       2.228 -12.406  -0.074  0.00  0.00    +0.062 A 
ATOM     17 CL   UNL     1       3.046 -10.879  -0.190  0.00  0.00    -0.082 Cl
ATOM     18 CL   UNL     1       3.948 -13.273  -1.979  0.00  0.00    -0.082 Cl
ENDBRANCH  10  11
ENDBRANCH   8  10
ENDBRANCH   3   5
BRANCH   1  20
ATOM     19  C   UNL     1       0.661  -3.133  -0.022  0.00  0.00    +0.030 C 
ATOM     20  C   UNL     1       1.148  -4.431  -0.033  0.00  0.00    +0.114 C 
BRANCH  19  27
ATOM     21  C   UNL     1      -0.016   1.350   0.009  0.00  0.00    +0.001 A 
ATOM     22  C   UNL     1       1.157   2.116   0.002  0.00  0.00    +0.002 A 
ATOM     23  C   UNL     1       2.383   1.546  -0.012  0.00  0.00    +0.026 A 
ATOM     24  C   UNL     1       2.489   0.080  -0.021  0.00  0.00    +0.043 A 
ATOM     25  N   UNL     1       3.523  -0.719  -0.035  0.00  0.00    -0.380 N 
ATOM     26  C   UNL     1       3.062  -2.111  -0.039  0.00  0.00    +0.149 C 
ATOM     27  C   UNL     1       1.551  -2.052  -0.024  0.00  0.00    -0.018 C 
ATOM     28  C   UNL     1       1.231  -0.699  -0.013  0.00  0.00    +0.003 A 
ATOM     29  C   UNL     1       0.002  -0.004   0.002  0.00  0.00    +0.010 A 
ATOM     30  H   UNL     1       4.450  -0.435  -0.043  0.00  0.00    +0.160 HD
ENDBRANCH  19  27
BRANCH  20  31
ATOM     31  C   UNL     1       2.560  -4.666  -0.048  0.00  0.00    +0.104 C 
ATOM     32  N   UNL     1       3.681  -4.853  -0.059  0.00  0.00    -0.191 NA
ENDBRANCH  20  31
ENDBRANCH   1  20
TORSDOF 6
