REMARK  Name = ZINC37055529
REMARK  6 active torsions:
REMARK  status: ('A' for Active; 'I' for Inactive)
REMARK    1  A    between atoms: C_1  and  C_2
REMARK    2  A    between atoms: C_5  and  S_9
REMARK    3  A    between atoms: C_6  and  N_8
REMARK    4  A    between atoms: S_9  and  N_12
REMARK    5  A    between atoms: N_12  and  C_13
REMARK    6  A    between atoms: N_12  and  C_14
REMARK                            x       y       z     vdW  Elec       q    Type
REMARK                         _______ _______ _______ _____ _____    ______ ____
ROOT
ATOM      1  S   UNL     1       0.228  -4.320   0.025  0.00  0.00    +0.063 S 
ATOM      2  O   UNL     1      -0.699  -5.015   0.848  0.00  0.00    -0.153 OA
ATOM      3  O   UNL     1       0.173  -4.370  -1.394  0.00  0.00    -0.153 OA
ENDROOT
BRANCH   1   8
ATOM      4  C   UNL     1      -0.134   1.506   1.570  0.00  0.00    +0.044 C 
ATOM      5  C   UNL     1      -0.041   0.053   1.181  0.00  0.00    -0.049 A 
ATOM      6  C   UNL     1      -0.824  -0.886   1.828  0.00  0.00    +0.005 A 
ATOM      7  C   UNL     1      -0.742  -2.220   1.475  0.00  0.00    +0.030 A 
ATOM      8  C   UNL     1       0.123  -2.619   0.474  0.00  0.00    +0.126 A 
ATOM      9  C   UNL     1       0.910  -1.679  -0.177  0.00  0.00    +0.051 A 
ATOM     10  C   UNL     1       0.821  -0.338   0.177  0.00  0.00    +0.028 A 
BRANCH   9  11
ATOM     11  N   UNL     1       1.786  -2.079  -1.190  0.00  0.00    -0.356 N 
ATOM     12  H   UNL     1       1.763  -2.991  -1.518  0.00  0.00    +0.142 HD
ATOM     13  H   UNL     1       2.416  -1.444  -1.565  0.00  0.00    +0.142 HD
ENDBRANCH   9  11
ENDBRANCH   1   8
BRANCH   1  14
ATOM     14  N   UNL     1       1.736  -4.849   0.460  0.00  0.00    -0.177 NA
ATOM     15  C   UNL     1       1.996  -5.268   1.839  0.00  0.00    +0.132 C 
BRANCH  14  16
ATOM     16  C   UNL     1       2.809  -4.899  -0.536  0.00  0.00    +0.080 C 
ATOM     17  C   UNL     1       3.315  -6.337  -0.669  0.00  0.00    +0.020 C 
ATOM     18  C   UNL     1       4.436  -6.388  -1.709  0.00  0.00    +0.002 C 
ATOM     19  C   UNL     1       5.587  -5.483  -1.264  0.00  0.00    +0.000 C 
ATOM     20  C   UNL     1       5.081  -4.045  -1.130  0.00  0.00    +0.002 C 
ATOM     21  C   UNL     1       3.960  -3.993  -0.090  0.00  0.00    +0.020 C 
ENDBRANCH  14  16
ENDBRANCH   1  14
TORSDOF 4
