REMARK  Name = ZINC14258584
REMARK  5 active torsions:
REMARK  status: ('A' for Active; 'I' for Inactive)
REMARK    1  A    between atoms: C_10  and  O_11
REMARK    2  A    between atoms: O_11  and  C_12
REMARK    3  A    between atoms: C_12  and  C_13
REMARK    4  A    between atoms: N_15  and  C_16
REMARK    5  A    between atoms: C_17  and  C_24
REMARK                            x       y       z     vdW  Elec       q    Type
REMARK                         _______ _______ _______ _____ _____    ______ ____
ROOT
ATOM      1  C   UNL     1      -4.883   3.803   0.069  0.00  0.00    +0.255 C 
ATOM      2  O   UNL     1      -4.766   5.010   0.074  0.00  0.00    -0.272 OA
ATOM      3  N   UNL     1      -6.109   3.245   0.078  0.00  0.00    -0.276 N 
ATOM      4  H   UNL     1      -6.203   2.279   0.074  0.00  0.00    +0.155 HD
ENDROOT
BRANCH   3   5
ATOM      5  C   UNL     1      -7.239   4.051   0.092  0.00  0.00    +0.090 A 
ATOM      6  C   UNL     1      -8.568   3.669   0.098  0.00  0.00    +0.084 A 
ATOM      7  C   UNL     1      -9.578   4.726   0.118  0.00  0.00    -0.018 A 
ATOM      8  C   UNL     1      -9.091   5.981   0.119  0.00  0.00    -0.004 A 
ATOM      9  S   UNL     1      -7.326   5.780   0.101  0.00  0.00    -0.077 S 
ATOM     10  C   UNL     1     -10.187   7.011   0.138  0.00  0.00    +0.043 C 
ATOM     11  C   UNL     1     -11.445   6.233   0.584  0.00  0.00    +0.010 C 
ATOM     12  C   UNL     1     -11.105   4.799   0.131  0.00  0.00    +0.037 C 
BRANCH   6  13
ATOM     13  C   UNL     1      -8.942   2.286   0.088  0.00  0.00    +0.102 C 
ATOM     14  N   UNL     1      -9.239   1.190   0.081  0.00  0.00    -0.191 NA
ENDBRANCH   6  13
ENDBRANCH   3   5
BRANCH   1  15
ATOM     15  C   UNL     1      -3.656   2.927   0.053  0.00  0.00    +0.324 C 
BRANCH  15  16
ATOM     16  O   UNL     1      -2.486   3.747   0.046  0.00  0.00    -0.482 OA
BRANCH  16  26
ATOM     17  C   UNL     1       2.297   5.267   0.007  0.00  0.00    +0.001 A 
ATOM     18  C   UNL     1       1.077   5.940   0.022  0.00  0.00    +0.001 A 
ATOM     19  C   UNL     1      -0.100   5.256   0.030  0.00  0.00    +0.012 A 
ATOM     20  C   UNL     1      -0.088   3.852   0.024  0.00  0.00    +0.024 A 
ATOM     21  C   UNL     1       1.152   3.167   0.008  0.00  0.00    -0.014 A 
ATOM     22  C   UNL     1       2.347   3.907   0.000  0.00  0.00    +0.008 A 
ATOM     23  C   UNL     1       1.164   1.762   0.000  0.00  0.00    +0.009 A 
ATOM     24  C   UNL     1      -0.013   1.076   0.008  0.00  0.00    +0.004 A 
ATOM     25  C   UNL     1      -1.234   1.744   0.017  0.00  0.00    +0.046 A 
ATOM     26  C   UNL     1      -1.287   3.110   0.032  0.00  0.00    +0.129 A 
ENDBRANCH  16  26
ENDBRANCH  15  16
ENDBRANCH   1  15
TORSDOF 5
