REMARK  Name = ZINC49910987
REMARK  6 active torsions:
REMARK  status: ('A' for Active; 'I' for Inactive)
REMARK    1  A    between atoms: C_1  and  C_2
REMARK    2  A    between atoms: C_2  and  C_10
REMARK    3  A    between atoms: C_5  and  C_8
REMARK    4  A    between atoms: C_8  and  N_9
REMARK    5  A    between atoms: C_13  and  O_17
REMARK    6  A    between atoms: O_17  and  C_18
REMARK                            x       y       z     vdW  Elec       q    Type
REMARK                         _______ _______ _______ _____ _____    ______ ____
ROOT
ATOM      1  C   UNL     1      -0.019   1.526   0.010  0.00  0.00    +0.080 C 
ATOM      2  C   UNL     1       0.002  -0.004   0.002  0.00  0.00    +0.194 C 
ATOM      3  O   UNL     1      -1.342  -0.504   0.011  0.00  0.00    -0.342 OA
ATOM      4  C   UNL     1      -1.499  -1.290   1.210  0.00  0.00    +0.193 C 
ATOM      5  C   UNL     1      -0.372  -0.756   2.128  0.00  0.00    +0.130 C 
ATOM      6  O   UNL     1       0.682  -0.484   1.174  0.00  0.00    -0.341 OA
ENDROOT
BRANCH   2   7
ATOM      7  C   UNL     1       0.714  -0.494  -1.233  0.00  0.00    +0.012 A 
ATOM      8  C   UNL     1       2.076  -0.727  -1.198  0.00  0.00    +0.012 A 
ATOM      9  C   UNL     1       2.731  -1.175  -2.328  0.00  0.00    +0.047 A 
ATOM     10  C   UNL     1       2.021  -1.393  -3.500  0.00  0.00    +0.134 A 
ATOM     11  C   UNL     1       0.653  -1.159  -3.533  0.00  0.00    +0.060 A 
ATOM     12  C   UNL     1       0.002  -0.715  -2.397  0.00  0.00    +0.027 A 
ATOM     13 BR   UNL     1      -0.320  -1.454  -5.128  0.00  0.00    -0.047 Br
BRANCH  10  14
ATOM     14  O   UNL     1       2.663  -1.834  -4.614  0.00  0.00    -0.494 OA
ATOM     15  C   UNL     1       4.071  -2.053  -4.507  0.00  0.00    +0.277 C 
ENDBRANCH  10  14
ENDBRANCH   2   7
BRANCH   5  16
ATOM     16  C   UNL     1       0.063  -1.821   3.137  0.00  0.00    -0.052 C 
BRANCH  16  17
ATOM     17  N   UNL     1       1.044  -1.245   4.066  0.00  0.00    +0.380 N 
ATOM     18  H   UNL     1       1.849  -0.923   3.549  0.00  0.00    -0.090 HD
ATOM     19  H   UNL     1       0.627  -0.468   4.556  0.00  0.00    -0.090 HD
ATOM     20  H   UNL     1       1.331  -1.947   4.731  0.00  0.00    -0.090 HD
ENDBRANCH  16  17
ENDBRANCH   5  16
TORSDOF 4
