REMARK  Name = ZINC58019275
REMARK  8 active torsions:
REMARK  status: ('A' for Active; 'I' for Inactive)
REMARK    1  A    between atoms: C_1  and  C_2
REMARK    2  A    between atoms: C_2  and  C_3
REMARK    3  A    between atoms: C_2  and  C_4
REMARK    4  A    between atoms: C_7  and  C_10
REMARK    5  A    between atoms: C_12  and  C_15
REMARK    6  A    between atoms: C_15  and  N_16
REMARK    7  A    between atoms: N_19  and  C_22
REMARK    8  A    between atoms: C_25  and  O_28
REMARK                            x       y       z     vdW  Elec       q    Type
REMARK                         _______ _______ _______ _____ _____    ______ ____
ROOT
ATOM      1  C   UNL     1       5.507  -3.821  -6.126  0.00  0.00    +0.140 C 
ENDROOT
BRANCH   1   2
ATOM      2  N   UNL     1       6.698  -2.968  -6.021  0.00  0.00    -0.294 NA
ATOM      3  C   UNL     1       6.794  -2.358  -4.688  0.00  0.00    +0.103 C 
ATOM      4  C   UNL     1       7.939  -1.341  -4.675  0.00  0.00    +0.120 C 
ATOM      5  N   UNL     1       9.163  -2.009  -5.142  0.00  0.00    -0.327 N 
ATOM      6  C   UNL     1       9.107  -2.758  -6.407  0.00  0.00    +0.120 C 
ATOM      7  C   UNL     1       7.916  -3.720  -6.351  0.00  0.00    +0.103 C 
BRANCH   5   8
ATOM      8  C   UNL     1      10.349  -1.934  -4.404  0.00  0.00    +0.030 A 
ATOM      9  C   UNL     1      11.462  -2.663  -4.801  0.00  0.00    +0.027 A 
ATOM     10  C   UNL     1      12.633  -2.588  -4.071  0.00  0.00    +0.047 A 
ATOM     11  C   UNL     1      12.696  -1.786  -2.942  0.00  0.00    +0.117 A 
ATOM     12  C   UNL     1      11.585  -1.058  -2.544  0.00  0.00    +0.047 A 
ATOM     13  C   UNL     1      10.415  -1.127  -3.276  0.00  0.00    +0.027 A 
BRANCH  11  14
ATOM     14  O   UNL     1      13.849  -1.712  -2.224  0.00  0.00    -0.507 OA
ATOM     15  H   UNL     1      14.450  -1.012  -2.515  0.00  0.00    +0.292 HD
ENDBRANCH  11  14
ENDBRANCH   5   8
ENDBRANCH   1   2
BRANCH   1  18
ATOM     16  C   UNL     1       2.696  -1.905  -4.727  0.00  0.00    +0.109 A 
ATOM     17  N   UNL     1       3.784  -2.653  -4.846  0.00  0.00    -0.243 NA
ATOM     18  C   UNL     1       4.268  -2.969  -6.023  0.00  0.00    +0.063 A 
ATOM     19  C   UNL     1       3.651  -2.526  -7.151  0.00  0.00    +0.071 A 
ATOM     20  S   UNL     1       2.289  -1.608  -6.443  0.00  0.00    -0.075 S 
BRANCH  16  24
ATOM     21  C   UNL     1       0.701  -0.585  -1.217  0.00  0.00    -0.045 A 
ATOM     22  C   UNL     1       0.209  -0.235  -2.462  0.00  0.00    +0.004 A 
ATOM     23  C   UNL     1       0.852  -0.660  -3.606  0.00  0.00    +0.011 A 
ATOM     24  C   UNL     1       2.001  -1.446  -3.505  0.00  0.00    +0.007 A 
ATOM     25  C   UNL     1       2.492  -1.796  -2.247  0.00  0.00    +0.011 A 
ATOM     26  C   UNL     1       1.842  -1.360  -1.111  0.00  0.00    +0.004 A 
BRANCH  21  28
ATOM     27  C   UNL     1      -0.038   1.413   0.052  0.00  0.00    +0.012 C 
ATOM     28  C   UNL     1      -0.007  -0.117   0.028  0.00  0.00    +0.013 C 
ATOM     29  C   UNL     1      -1.439  -0.656   0.035  0.00  0.00    +0.012 C 
ENDBRANCH  21  28
ENDBRANCH  16  24
ENDBRANCH   1  18
TORSDOF 6
