REMARK  Name = ZINC04999187
REMARK  9 active torsions:
REMARK  status: ('A' for Active; 'I' for Inactive)
REMARK    1  A    between atoms: C_1  and  C_2
REMARK    2  A    between atoms: C_2  and  C_7
REMARK    3  A    between atoms: N_9  and  N_10
REMARK    4  A    between atoms: N_10  and  C_11
REMARK    5  A    between atoms: C_11  and  N_13
REMARK    6  A    between atoms: N_13  and  C_14
REMARK    7  A    between atoms: C_17  and  N_22
REMARK    8  A    between atoms: C_19  and  O_20
REMARK    9  A    between atoms: O_20  and  C_21
REMARK                            x       y       z     vdW  Elec       q    Type
REMARK                         _______ _______ _______ _____ _____    ______ ____
ROOT
ATOM      1  C   UNL     1      -3.619   3.135  -0.050  0.00  0.00    +0.151 C 
ATOM      2  S   UNL     1      -3.603   1.424  -0.059  0.00  0.00    -0.017 S 
ENDROOT
BRANCH   1   3
ATOM      3  N   UNL     1      -4.790   3.798  -0.137  0.00  0.00    -0.246 N 
ATOM      4  H   UNL     1      -5.622   3.305  -0.205  0.00  0.00    +0.172 HD
BRANCH   3   7
ATOM      5  C   UNL     1      -5.974   5.862  -0.217  0.00  0.00    +0.238 C 
ATOM      6  O   UNL     1      -7.015   5.246  -0.302  0.00  0.00    -0.274 OA
ATOM      7  N   UNL     1      -4.803   5.199  -0.130  0.00  0.00    -0.235 N 
ATOM      8  H   UNL     1      -3.971   5.692  -0.062  0.00  0.00    +0.173 HD
BRANCH   5  10
ATOM      9  C   UNL     1      -4.920   8.035   0.661  0.00  0.00    +0.024 C 
ATOM     10  C   UNL     1      -5.989   7.369  -0.209  0.00  0.00    +0.081 C 
ATOM     11  C   UNL     1      -6.388   8.078  -1.504  0.00  0.00    +0.058 C 
ATOM     12  C   UNL     1      -7.348   8.063  -0.313  0.00  0.00    +0.133 C 
ATOM     13 CL   UNL     1      -8.810   7.015  -0.435  0.00  0.00    -0.100 Cl
ATOM     14 CL   UNL     1      -7.569   9.602   0.599  0.00  0.00    -0.100 Cl
ENDBRANCH   5  10
ENDBRANCH   3   7
ENDBRANCH   1   3
BRANCH   1  15
ATOM     15  N   UNL     1      -2.462   3.820   0.045  0.00  0.00    -0.293 N 
ATOM     16  H   UNL     1      -2.476   4.786   0.130  0.00  0.00    +0.154 HD
BRANCH  15  17
ATOM     17  C   UNL     1      -1.240   3.137   0.020  0.00  0.00    +0.075 A 
ATOM     18  C   UNL     1      -1.027   2.125  -0.905  0.00  0.00    +0.029 A 
ATOM     19  C   UNL     1       0.178   1.448  -0.924  0.00  0.00    +0.035 A 
ATOM     20  C   UNL     1       1.177   1.785  -0.030  0.00  0.00    +0.130 A 
ATOM     21  C   UNL     1       0.975   2.796   0.891  0.00  0.00    +0.080 A 
ATOM     22  C   UNL     1      -0.232   3.475   0.920  0.00  0.00    +0.143 A 
BRANCH  20  23
ATOM     23  N   UNL     1       2.468   1.060  -0.060  0.00  0.00    +0.057 N 
ATOM     24  O   UNL     1       2.648   0.170  -0.871  0.00  0.00    -0.126 OA
ATOM     25  O   UNL     1       3.350   1.355   0.727  0.00  0.00    -0.126 OA
ENDBRANCH  20  23
BRANCH  22  26
ATOM     26  O   UNL     1      -0.432   4.470   1.825  0.00  0.00    -0.493 OA
ATOM     27  C   UNL     1       0.645   4.763   2.717  0.00  0.00    +0.277 C 
ENDBRANCH  22  26
ENDBRANCH  15  17
ENDBRANCH   1  15
TORSDOF 7
