REMARK  Name = ZINC21877205
REMARK  7 active torsions:
REMARK  status: ('A' for Active; 'I' for Inactive)
REMARK    1  A    between atoms: C_1  and  C_2
REMARK    2  A    between atoms: C_9  and  C_11
REMARK    3  A    between atoms: C_11  and  C_13
REMARK    4  A    between atoms: C_11  and  N_16
REMARK    5  A    between atoms: C_13  and  C_14
REMARK    6  A    between atoms: C_13  and  C_15
REMARK    7  A    between atoms: C_17  and  C_19
REMARK                            x       y       z     vdW  Elec       q    Type
REMARK                         _______ _______ _______ _____ _____    ______ ____
ROOT
ATOM      1  C   UNL     1      -1.855   7.316  -1.247  0.00  0.00    +0.162 C 
ENDROOT
BRANCH   1  10
ATOM      2  C   UNL     1      -7.081  11.393  -5.540  0.00  0.00    +0.045 C 
ATOM      3  C   UNL     1      -6.081  10.763  -4.604  0.00  0.00    -0.032 A 
ATOM      4  C   UNL     1      -6.126   9.399  -4.345  0.00  0.00    +0.008 A 
ATOM      5  C   UNL     1      -5.191   8.861  -3.480  0.00  0.00    +0.044 A 
ATOM      6  C   UNL     1      -4.242   9.698  -2.902  0.00  0.00    +0.125 A 
ATOM      7  N   UNL     1      -4.236  10.994  -3.171  0.00  0.00    -0.240 NA
ATOM      8  C   UNL     1      -5.112  11.535  -3.996  0.00  0.00    +0.116 A 
ATOM      9  N   UNL     1      -3.294   9.169  -2.029  0.00  0.00    -0.269 N 
ATOM     10  C   UNL     1      -2.983   7.859  -2.085  0.00  0.00    +0.239 C 
ATOM     11  O   UNL     1      -3.612   7.117  -2.810  0.00  0.00    -0.273 OA
ATOM     12  H   UNL     1      -2.799   9.821  -1.294  0.00  0.00    +0.156 HD
ENDBRANCH   1  10
BRANCH   1  13
ATOM     13  N   UNL     1      -1.849   5.853  -1.324  0.00  0.00    -0.303 N 
ATOM     14  C   UNL     1      -1.309   5.127  -0.325  0.00  0.00    +0.220 C 
ATOM     15  O   UNL     1      -0.827   5.685   0.637  0.00  0.00    -0.275 OA
ATOM     16  H   UNL     1      -2.287   5.346  -2.197  0.00  0.00    +0.149 HD
BRANCH  14  17
ATOM     17  C   UNL     1      -1.303   3.622  -0.405  0.00  0.00    +0.048 C 
ATOM     18  C   UNL     1      -0.525   3.180  -1.646  0.00  0.00    +0.019 C 
ATOM     19  C   UNL     1      -0.520   1.652  -1.727  0.00  0.00    -0.009 C 
ATOM     20  C   UNL     1       0.147   1.077  -0.476  0.00  0.00    +0.007 C 
ATOM     21  C   UNL     1      -0.631   1.520   0.765  0.00  0.00    -0.009 C 
ATOM     22  C   UNL     1      -0.636   3.047   0.846  0.00  0.00    +0.019 C 
ATOM     23  C   UNL     1      -2.070   1.008   0.674  0.00  0.00    +0.007 C 
ATOM     24  C   UNL     1      -2.737   1.583  -0.577  0.00  0.00    -0.009 C 
ATOM     25  C   UNL     1      -1.959   1.141  -1.818  0.00  0.00    +0.007 C 
ATOM     26  C   UNL     1      -2.742   3.111  -0.496  0.00  0.00    +0.019 C 
ENDBRANCH  14  17
ENDBRANCH   1  13
BRANCH   1  27
ATOM     27  C   UNL     1      -0.524   7.859  -1.770  0.00  0.00    +0.012 C 
ATOM     28  C   UNL     1       0.606   7.434  -0.829  0.00  0.00    +0.009 C 
ATOM     29  C   UNL     1      -0.259   7.300  -3.169  0.00  0.00    +0.009 C 
ENDBRANCH   1  27
TORSDOF 4
