REMARK  Name = ZINC02531634
REMARK  8 active torsions:
REMARK  status: ('A' for Active; 'I' for Inactive)
REMARK    1  A    between atoms: C_1  and  C_2
REMARK    2  A    between atoms: C_6  and  C_8
REMARK    3  A    between atoms: C_8  and  O_10
REMARK    4  A    between atoms: O_10  and  C_11
REMARK    5  A    between atoms: C_16  and  C_17
REMARK    6  A    between atoms: N_18  and  N_19
REMARK    7  A    between atoms: N_19  and  C_20
REMARK    8  A    between atoms: C_20  and  N_22
REMARK                            x       y       z     vdW  Elec       q    Type
REMARK                         _______ _______ _______ _____ _____    ______ ____
ROOT
ATOM      1  C   UNL     1       1.206   7.375   0.234  0.00  0.00    +0.141 A 
ATOM      2  C   UNL     1       0.013   8.076   0.305  0.00  0.00    +0.048 A 
ATOM      3  C   UNL     1       0.009   9.453   0.190  0.00  0.00    +0.019 A 
ATOM      4  C   UNL     1       1.195  10.142  -0.007  0.00  0.00    +0.019 A 
ATOM      5  C   UNL     1       2.392   9.460  -0.085  0.00  0.00    +0.028 A 
ATOM      6  C   UNL     1       2.408   8.068   0.035  0.00  0.00    +0.038 A 
ATOM      7 BR   UNL     1       1.173  12.026  -0.169  0.00  0.00    -0.050 Br
ENDROOT
BRANCH   6   8
ATOM      8  C   UNL     1       3.683   7.333  -0.046  0.00  0.00    +0.142 C 
ATOM      9  N   UNL     1       3.689   6.037   0.024  0.00  0.00    -0.188 NA
BRANCH   9  10
ATOM     10  N   UNL     1       4.907   5.343   0.051  0.00  0.00    -0.219 N 
ATOM     11  H   UNL     1       5.743   5.833   0.083  0.00  0.00    +0.176 HD
BRANCH  10  12
ATOM     12  C   UNL     1       4.915   3.995   0.032  0.00  0.00    +0.147 C 
ATOM     13  S   UNL     1       6.392   3.146   0.197  0.00  0.00    -0.017 S 
BRANCH  12  14
ATOM     14  N   UNL     1       3.760   3.317  -0.117  0.00  0.00    -0.339 N 
ATOM     15  H   UNL     1       2.935   3.796  -0.293  0.00  0.00    +0.144 HD
ATOM     16  H   UNL     1       3.754   2.349  -0.049  0.00  0.00    +0.144 HD
ENDBRANCH  12  14
ENDBRANCH  10  12
ENDBRANCH   9  10
ENDBRANCH   6   8
BRANCH   1  17
ATOM     17  O   UNL     1       1.210   6.022   0.352  0.00  0.00    -0.422 OA
BRANCH  17  18
ATOM     18  C   UNL     1       1.413   5.516   1.584  0.00  0.00    +0.344 C 
ATOM     19  O   UNL     1       1.679   6.257   2.509  0.00  0.00    -0.245 OA
BRANCH  18  25
ATOM     20  C   UNL     1       1.668   1.597   4.662  0.00  0.00    +0.044 C 
ATOM     21  C   UNL     1       1.433   2.170   3.288  0.00  0.00    -0.050 A 
ATOM     22  C   UNL     1       1.119   1.330   2.234  0.00  0.00    +0.003 A 
ATOM     23  C   UNL     1       0.896   1.848   0.971  0.00  0.00    +0.001 A 
ATOM     24  C   UNL     1       0.990   3.207   0.752  0.00  0.00    +0.015 A 
ATOM     25  C   UNL     1       1.311   4.060   1.810  0.00  0.00    +0.060 A 
ATOM     26  C   UNL     1       1.535   3.530   3.083  0.00  0.00    +0.018 A 
ENDBRANCH  18  25
ENDBRANCH  17  18
ENDBRANCH   1  17
TORSDOF 7
