REMARK  Name = ZINC04140899
REMARK  7 active torsions:
REMARK  status: ('A' for Active; 'I' for Inactive)
REMARK    1  A    between atoms: C_1  and  C_2
REMARK    2  A    between atoms: C_2  and  O_3
REMARK    3  A    between atoms: O_3  and  C_4
REMARK    4  A    between atoms: C_8  and  C_11
REMARK    5  A    between atoms: C_9  and  O_10
REMARK    6  A    between atoms: C_12  and  C_13
REMARK    7  A    between atoms: C_20  and  O_23
REMARK                            x       y       z     vdW  Elec       q    Type
REMARK                         _______ _______ _______ _____ _____    ______ ____
ROOT
ATOM      1  C   UNL     1       2.257  -4.315   3.723  0.00  0.00    +0.014 C 
ATOM      2  C   UNL     1       2.359  -5.649   3.857  0.00  0.00    +0.028 C 
ENDROOT
BRANCH   2   3
ATOM      3  C   UNL     1       3.050  -6.220   5.024  0.00  0.00    +0.065 A 
ATOM      4  C   UNL     1       3.153  -7.619   5.147  0.00  0.00    +0.028 A 
ATOM      5  C   UNL     1       3.790  -8.158   6.222  0.00  0.00    +0.012 A 
ATOM      6  C   UNL     1       4.332  -7.284   7.187  0.00  0.00    +0.004 A 
ATOM      7  C   UNL     1       5.002  -7.775   8.319  0.00  0.00    +0.010 A 
ATOM      8  C   UNL     1       5.515  -6.905   9.233  0.00  0.00    +0.004 A 
ATOM      9  C   UNL     1       5.384  -5.529   9.063  0.00  0.00    +0.047 A 
ATOM     10  C   UNL     1       4.739  -5.013   7.976  0.00  0.00    +0.143 A 
ATOM     11  C   UNL     1       4.196  -5.885   7.007  0.00  0.00    +0.113 A 
ATOM     12  N   UNL     1       3.566  -5.408   5.932  0.00  0.00    -0.244 NA
BRANCH  10  13
ATOM     13  O   UNL     1       4.621  -3.668   7.827  0.00  0.00    -0.505 OA
ATOM     14  H   UNL     1       5.351  -3.261   7.339  0.00  0.00    +0.292 HD
ENDBRANCH  10  13
ENDBRANCH   2   3
BRANCH   1  19
ATOM     15  C   UNL     1       0.802  -1.825   1.306  0.00  0.00    +0.162 A 
ATOM     16  C   UNL     1       0.260  -2.672   0.351  0.00  0.00    +0.049 A 
ATOM     17  C   UNL     1       0.367  -4.045   0.492  0.00  0.00    +0.004 A 
ATOM     18  C   UNL     1       1.013  -4.584   1.584  0.00  0.00    +0.012 A 
ATOM     19  C   UNL     1       1.565  -3.743   2.555  0.00  0.00    +0.020 A 
ATOM     20  C   UNL     1       1.462  -2.353   2.409  0.00  0.00    +0.166 A 
BRANCH  20  21
ATOM     21  O   UNL     1       2.000  -1.526   3.343  0.00  0.00    -0.503 OA
ATOM     22  H   UNL     1       1.394  -1.300   4.063  0.00  0.00    +0.292 HD
ENDBRANCH  20  21
BRANCH  15  23
ATOM     23  O   UNL     1       0.693  -0.477   1.160  0.00  0.00    -0.489 OA
BRANCH  23  25
ATOM     24  C   UNL     1      -0.019   1.526   0.010  0.00  0.00    +0.048 C 
ATOM     25  C   UNL     1       0.002  -0.004   0.002  0.00  0.00    +0.226 C 
ENDBRANCH  23  25
ENDBRANCH  15  23
ENDBRANCH   1  19
TORSDOF 6
