REMARK  Name = ZINC12621793
REMARK  11 active torsions:
REMARK  status: ('A' for Active; 'I' for Inactive)
REMARK    1  A    between atoms: C_1  and  C_2
REMARK    2  A    between atoms: C_2  and  C_25
REMARK    3  A    between atoms: N_3  and  N_4
REMARK    4  A    between atoms: N_4  and  C_5
REMARK    5  A    between atoms: C_8  and  N_22
REMARK    6  A    between atoms: C_10  and  S_11
REMARK    7  A    between atoms: S_11  and  N_14
REMARK    8  A    between atoms: N_14  and  C_15
REMARK    9  A    between atoms: C_28  and  O_32
REMARK   10  A    between atoms: C_30  and  O_31
REMARK   11  A    between atoms: O_32  and  C_33
REMARK                            x       y       z     vdW  Elec       q    Type
REMARK                         _______ _______ _______ _____ _____    ______ ____
ROOT
ATOM      1  C   UNL     1       0.045  -0.737   3.469  0.00  0.00    +0.075 A 
ATOM      2  C   UNL     1       0.070  -2.137   3.465  0.00  0.00    +0.029 A 
ATOM      3  C   UNL     1       0.090  -2.825   4.658  0.00  0.00    +0.035 A 
ATOM      4  C   UNL     1       0.086  -2.135   5.861  0.00  0.00    +0.128 A 
ATOM      5  C   UNL     1       0.062  -0.749   5.872  0.00  0.00    +0.063 A 
ATOM      6  C   UNL     1       0.047  -0.046   4.687  0.00  0.00    +0.135 A 
ENDROOT
BRANCH   6   7
ATOM      7  S   UNL     1       0.024   1.715   4.705  0.00  0.00    +0.094 S 
ATOM      8  O   UNL     1      -1.015   2.117   3.823  0.00  0.00    -0.148 OA
ATOM      9  O   UNL     1       0.058   2.108   6.070  0.00  0.00    -0.148 OA
BRANCH   7  10
ATOM     10  N   UNL     1       1.445   2.230   4.028  0.00  0.00    -0.096 NA
BRANCH  10  11
ATOM     11  C   UNL     1       1.706   3.598   3.908  0.00  0.00    +0.093 A 
ATOM     12  C   UNL     1       0.778   4.527   4.361  0.00  0.00    +0.028 A 
ATOM     13  C   UNL     1       1.040   5.877   4.242  0.00  0.00    +0.002 A 
ATOM     14  C   UNL     1       2.224   6.306   3.671  0.00  0.00    +0.002 A 
ATOM     15  C   UNL     1       3.151   5.386   3.219  0.00  0.00    +0.022 A 
ATOM     16  C   UNL     1       2.898   4.032   3.340  0.00  0.00    +0.065 A 
ATOM     17 CL   UNL     1       4.065   2.876   2.778  0.00  0.00    -0.082 Cl
ENDBRANCH  10  11
ENDBRANCH   7  10
ENDBRANCH   6   7
BRANCH   4  18
ATOM     18  N   UNL     1       0.108  -2.882   7.139  0.00  0.00    +0.056 N 
ATOM     19  O   UNL     1       0.131  -4.199   7.132  0.00  0.00    -0.126 OA
ATOM     20  O   UNL     1       0.105  -2.230   8.283  0.00  0.00    -0.126 OA
ENDBRANCH   4  18
BRANCH   1  21
ATOM     21  N   UNL     1       0.024  -0.044   2.284  0.00  0.00    -0.236 N 
ATOM     22  H   UNL     1       0.011   0.926   2.290  0.00  0.00    +0.174 HD
BRANCH  21  25
ATOM     23  C   UNL     1      -0.018   1.503   0.010  0.00  0.00    +0.068 C 
ATOM     24  C   UNL     1       0.002  -0.004   0.002  0.00  0.00    +0.067 C 
ATOM     25  N   UNL     1       0.022  -0.683   1.164  0.00  0.00    -0.187 NA
BRANCH  24  26
ATOM     26  C   UNL     1       0.000  -0.692  -1.205  0.00  0.00    +0.039 A 
ATOM     27  C   UNL     1      -0.016   0.030  -2.482  0.00  0.00    +0.017 A 
ATOM     28  C   UNL     1      -0.018  -0.671  -3.639  0.00  0.00    +0.046 A 
ATOM     29  C   UNL     1      -0.005  -2.079  -3.638  0.00  0.00    +0.124 A 
ATOM     30  C   UNL     1       0.011  -2.809  -2.455  0.00  0.00    +0.091 A 
ATOM     31  C   UNL     1       0.020  -2.168  -1.234  0.00  0.00    +0.129 A 
BRANCH  31  32
ATOM     32  O   UNL     1       0.041  -2.878  -0.085  0.00  0.00    -0.506 OA
ATOM     33  H   UNL     1      -0.836  -3.097   0.259  0.00  0.00    +0.292 HD
ENDBRANCH  31  32
BRANCH  29  34
ATOM     34  O   UNL     1      -0.008  -2.737  -4.817  0.00  0.00    -0.495 OA
ATOM     35  C   UNL     1      -0.024  -1.942  -6.004  0.00  0.00    +0.277 C 
ENDBRANCH  29  34
ENDBRANCH  24  26
ENDBRANCH  21  25
ENDBRANCH   1  21
TORSDOF 9
