REMARK  Name = ZINC36609325
REMARK  13 active torsions:
REMARK  status: ('A' for Active; 'I' for Inactive)
REMARK    1  A    between atoms: C_1  and  C_2
REMARK    2  A    between atoms: C_5  and  C_9
REMARK    3  A    between atoms: C_6  and  C_8
REMARK    4  A    between atoms: C_9  and  C_11
REMARK    5  A    between atoms: C_9  and  N_18
REMARK    6  A    between atoms: N_13  and  C_14
REMARK    7  A    between atoms: C_14  and  C_15
REMARK    8  A    between atoms: C_14  and  C_16
REMARK    9  A    between atoms: C_14  and  C_17
REMARK   10  A    between atoms: N_18  and  C_19
REMARK   11  A    between atoms: C_25  and  C_27
REMARK   12  A    between atoms: C_29  and  N_34
REMARK   13  A    between atoms: C_32  and  O_33
REMARK                            x       y       z     vdW  Elec       q    Type
REMARK                         _______ _______ _______ _____ _____    ______ ____
ROOT
ATOM      1  N   UNL     1      -0.329  -5.544  -0.983  0.00  0.00    -0.251 N 
ATOM      2  C   UNL     1      -1.671  -5.673  -0.989  0.00  0.00    +0.255 C 
ATOM      3  O   UNL     1      -2.322  -5.298  -0.033  0.00  0.00    -0.269 OA
ENDROOT
BRANCH   1   4
ATOM      4  C   UNL     1       0.409  -5.868  -2.126  0.00  0.00    +0.038 A 
ATOM      5  C   UNL     1       1.243  -4.921  -2.707  0.00  0.00    +0.023 A 
ATOM      6  C   UNL     1       1.972  -5.244  -3.835  0.00  0.00    +0.002 A 
ATOM      7  C   UNL     1       1.871  -6.508  -4.386  0.00  0.00    +0.000 A 
ATOM      8  C   UNL     1       1.042  -7.453  -3.810  0.00  0.00    +0.002 A 
ATOM      9  C   UNL     1       0.316  -7.138  -2.679  0.00  0.00    +0.023 A 
ENDBRANCH   1   4
BRANCH   2  10
ATOM     10  C   UNL     1      -2.349  -6.268  -2.156  0.00  0.00    +0.081 A 
ATOM     11  C   UNL     1      -1.846  -6.060  -3.443  0.00  0.00    +0.049 A 
ATOM     12  C   UNL     1      -2.485  -6.619  -4.528  0.00  0.00    +0.127 A 
ATOM     13  C   UNL     1      -3.625  -7.386  -4.350  0.00  0.00    +0.036 A 
ATOM     14  C   UNL     1      -4.133  -7.599  -3.084  0.00  0.00    +0.048 A 
ATOM     15  C   UNL     1      -3.499  -7.049  -1.979  0.00  0.00    +0.129 A 
BRANCH  12  16
ATOM     16  N   UNL     1      -1.951  -6.398  -5.891  0.00  0.00    +0.056 N 
ATOM     17  O   UNL     1      -0.912  -5.799  -6.044  0.00  0.00    -0.126 OA
ATOM     18  O   UNL     1      -2.554  -6.816  -6.852  0.00  0.00    -0.126 OA
ENDBRANCH  12  16
BRANCH  15  19
ATOM     19  O   UNL     1      -3.994  -7.262  -0.734  0.00  0.00    -0.506 OA
ATOM     20  H   UNL     1      -4.640  -6.602  -0.449  0.00  0.00    +0.292 HD
ENDBRANCH  15  19
ENDBRANCH   2  10
BRANCH   1  21
ATOM     21  C   UNL     1       0.356  -5.066   0.221  0.00  0.00    +0.198 C 
BRANCH  21  26
ATOM     22  C   UNL     1       3.600  -0.473  -1.109  0.00  0.00    +0.044 C 
ATOM     23  C   UNL     1       2.754  -1.671  -0.762  0.00  0.00    -0.050 A 
ATOM     24  C   UNL     1       3.343  -2.911  -0.607  0.00  0.00    +0.004 A 
ATOM     25  C   UNL     1       2.567  -4.010  -0.288  0.00  0.00    +0.006 A 
ATOM     26  C   UNL     1       1.202  -3.868  -0.125  0.00  0.00    -0.015 A 
ATOM     27  C   UNL     1       0.613  -2.627  -0.280  0.00  0.00    -0.045 A 
ATOM     28  C   UNL     1       1.389  -1.528  -0.594  0.00  0.00    +0.007 A 
ATOM     29  C   UNL     1      -0.876  -2.473  -0.102  0.00  0.00    +0.044 C 
ENDBRANCH  21  26
BRANCH  21  30
ATOM     30  C   UNL     1       1.235  -6.161   0.767  0.00  0.00    +0.239 C 
ATOM     31  O   UNL     1       1.402  -7.179   0.130  0.00  0.00    -0.273 OA
ATOM     32  N   UNL     1       1.835  -6.009   1.964  0.00  0.00    -0.309 N 
ATOM     33  H   UNL     1       1.646  -5.227   2.506  0.00  0.00    +0.149 HD
BRANCH  32  34
ATOM     34  C   UNL     1       2.774  -7.025   2.447  0.00  0.00    +0.026 C 
ATOM     35  C   UNL     1       3.939  -7.152   1.463  0.00  0.00    +0.031 C 
ATOM     36  C   UNL     1       3.309  -6.614   3.820  0.00  0.00    +0.031 C 
ATOM     37  C   UNL     1       2.055  -8.371   2.562  0.00  0.00    +0.031 C 
ENDBRANCH  32  34
ENDBRANCH  21  30
ENDBRANCH   1  21
TORSDOF 8
