REMARK  Name = ZINC30822045
REMARK  13 active torsions:
REMARK  status: ('A' for Active; 'I' for Inactive)
REMARK    1  A    between atoms: C_1  and  C_2
REMARK    2  A    between atoms: C_2  and  C_3
REMARK    3  A    between atoms: C_3  and  C_5
REMARK    4  A    between atoms: C_3  and  C_6
REMARK    5  A    between atoms: C_9  and  O_12
REMARK    6  A    between atoms: O_12  and  C_13
REMARK    7  A    between atoms: C_13  and  C_14
REMARK    8  A    between atoms: N_16  and  N_17
REMARK    9  A    between atoms: C_18  and  C_19
REMARK   10  A    between atoms: C_21  and  O_27
REMARK   11  A    between atoms: C_22  and  O_26
REMARK   12  A    between atoms: O_27  and  C_28
REMARK   13  A    between atoms: C_28  and  C_29
REMARK                            x       y       z     vdW  Elec       q    Type
REMARK                         _______ _______ _______ _____ _____    ______ ____
ROOT
ATOM      1  C   UNL     1      -5.675   3.106   8.079  0.00  0.00    +0.270 C 
ATOM      2  O   UNL     1      -6.268   4.077   7.660  0.00  0.00    -0.270 OA
ATOM      3  N   UNL     1      -5.440   2.977   9.400  0.00  0.00    -0.204 N 
ATOM      4  H   UNL     1      -4.902   2.096   9.780  0.00  0.00    +0.177 HD
ENDROOT
BRANCH   3   5
ATOM      5  N   UNL     1      -5.882   3.965  10.289  0.00  0.00    -0.188 NA
ATOM      6  C   UNL     1      -5.555   3.902  11.544  0.00  0.00    +0.138 C 
BRANCH   6   7
ATOM      7  C   UNL     1      -4.378   3.119  11.960  0.00  0.00    -0.001 A 
ATOM      8  C   UNL     1      -4.180   2.817  13.311  0.00  0.00    +0.059 A 
ATOM      9  C   UNL     1      -3.077   2.078  13.695  0.00  0.00    +0.163 A 
ATOM     10  C   UNL     1      -2.161   1.644  12.740  0.00  0.00    +0.172 A 
ATOM     11  C   UNL     1      -2.355   1.947  11.400  0.00  0.00    +0.059 A 
ATOM     12  C   UNL     1      -3.456   2.680  11.007  0.00  0.00    +0.027 A 
ATOM     13  I   UNL     1      -0.973   1.289   9.969  0.00  0.00    -0.040 I 
BRANCH  10  14
ATOM     14  O   UNL     1      -1.075   0.921  13.121  0.00  0.00    -0.503 OA
ATOM     15  H   UNL     1      -0.351   0.577  12.367  0.00  0.00    +0.292 HD
ENDBRANCH  10  14
BRANCH   9  16
ATOM     16  O   UNL     1      -2.884   1.779  15.008  0.00  0.00    -0.489 OA
BRANCH  16  17
ATOM     17  C   UNL     1      -3.862   2.256  15.933  0.00  0.00    +0.226 C 
ATOM     18  C   UNL     1      -3.478   1.825  17.350  0.00  0.00    +0.048 C 
ENDBRANCH  16  17
ENDBRANCH   9  16
ENDBRANCH   6   7
ENDBRANCH   3   5
BRANCH   1  19
ATOM     19  C   UNL     1      -5.199   2.043   7.122  0.00  0.00    +0.326 C 
BRANCH  19  20
ATOM     20  O   UNL     1      -5.564   2.404   5.789  0.00  0.00    -0.483 OA
BRANCH  20  24
ATOM     21  C   UNL     1      -4.482  -0.201   2.779  0.00  0.00    -0.044 A 
ATOM     22  C   UNL     1      -4.164  -0.494   4.093  0.00  0.00    +0.007 A 
ATOM     23  C   UNL     1      -4.520   0.380   5.101  0.00  0.00    +0.046 A 
ATOM     24  C   UNL     1      -5.207   1.546   4.797  0.00  0.00    +0.121 A 
ATOM     25  C   UNL     1      -5.530   1.834   3.479  0.00  0.00    +0.046 A 
ATOM     26  C   UNL     1      -5.167   0.960   2.473  0.00  0.00    +0.007 A 
BRANCH  21  27
ATOM     27  C   UNL     1      -4.087  -1.153   1.680  0.00  0.00    +0.016 C 
ATOM     28  C   UNL     1      -4.735  -2.517   1.928  0.00  0.00    +0.012 C 
BRANCH  27  30
ATOM     29  C   UNL     1      -2.155  -2.174   0.469  0.00  0.00    +0.004 C 
ATOM     30  C   UNL     1      -2.565  -1.308   1.661  0.00  0.00    +0.004 C 
ENDBRANCH  27  30
ENDBRANCH  21  27
ENDBRANCH  20  24
ENDBRANCH  19  20
ENDBRANCH   1  19
TORSDOF 10
