REMARK  Name = ZINC35890880
REMARK  11 active torsions:
REMARK  status: ('A' for Active; 'I' for Inactive)
REMARK    1  A    between atoms: C_5  and  O_7
REMARK    2  A    between atoms: O_7  and  C_8
REMARK    3  A    between atoms: C_8  and  C_10
REMARK    4  A    between atoms: C_8  and  C_29
REMARK    5  A    between atoms: C_10  and  N_11
REMARK    6  A    between atoms: N_11  and  C_12
REMARK    7  A    between atoms: N_11  and  C_22
REMARK    8  A    between atoms: C_12  and  C_13
REMARK    9  A    between atoms: C_22  and  C_23
REMARK   10  A    between atoms: N_31  and  C_32
REMARK   11  A    between atoms: C_32  and  C_33
REMARK                            x       y       z     vdW  Elec       q    Type
REMARK                         _______ _______ _______ _____ _____    ______ ____
ROOT
ATOM      1  C   UNL     1      -0.549  -2.593  -0.112  0.00  0.00    +0.242 C 
ENDROOT
BRANCH   1   2
ATOM      2  C   UNL     1      -1.322  -2.812   1.163  0.00  0.00    +0.252 C 
ATOM      3  O   UNL     1      -0.879  -2.408   2.217  0.00  0.00    -0.272 OA
ATOM      4  N   UNL     1      -2.506  -3.455   1.132  0.00  0.00    -0.308 N 
ATOM      5  H   UNL     1      -2.861  -3.777   0.289  0.00  0.00    +0.149 HD
BRANCH   4   6
ATOM      6  C   UNL     1      -3.257  -3.668   2.372  0.00  0.00    +0.139 C 
BRANCH   6   7
ATOM      7  C   UNL     1      -4.535  -4.405   2.065  0.00  0.00    -0.028 A 
ATOM      8  C   UNL     1      -5.683  -3.699   1.756  0.00  0.00    +0.005 A 
ATOM      9  C   UNL     1      -6.856  -4.373   1.474  0.00  0.00    +0.003 A 
ATOM     10  C   UNL     1      -6.883  -5.755   1.501  0.00  0.00    +0.038 A 
ATOM     11  C   UNL     1      -5.734  -6.463   1.810  0.00  0.00    +0.124 A 
ATOM     12  C   UNL     1      -4.558  -5.786   2.086  0.00  0.00    +0.043 A 
ATOM     13  F   UNL     1      -5.759  -7.814   1.837  0.00  0.00    -0.205 F 
ENDBRANCH   6   7
ENDBRANCH   4   6
ENDBRANCH   1   2
BRANCH   1  14
ATOM     14  O   UNL     1       0.603  -1.794   0.160  0.00  0.00    -0.479 OA
BRANCH  14  19
ATOM     15  C   UNL     1      -0.994   1.468  -0.052  0.00  0.00    +0.004 A 
ATOM     16  C   UNL     1       0.062   2.296   0.283  0.00  0.00    +0.003 A 
ATOM     17  C   UNL     1       1.300   1.756   0.577  0.00  0.00    +0.042 A 
ATOM     18  C   UNL     1       1.485   0.386   0.537  0.00  0.00    +0.165 A 
ATOM     19  C   UNL     1       0.425  -0.447   0.201  0.00  0.00    +0.157 A 
ATOM     20  C   UNL     1      -0.815   0.099  -0.093  0.00  0.00    +0.048 A 
ATOM     21  F   UNL     1       2.696  -0.142   0.823  0.00  0.00    -0.202 F 
ENDBRANCH  14  19
ENDBRANCH   1  14
BRANCH   1  22
ATOM     22  C   UNL     1      -0.111  -3.944  -0.681  0.00  0.00    -0.023 C 
BRANCH  22  23
ATOM     23  N   UNL     1       0.461  -3.749  -2.020  0.00  0.00    +0.387 N 
ATOM     24  H   UNL     1      -0.185  -3.223  -2.588  0.00  0.00    -0.081 HD
BRANCH  23  25
ATOM     25  C   UNL     1       1.727  -3.013  -1.909  0.00  0.00    -0.043 C 
BRANCH  25  26
ATOM     26  C   UNL     1       2.297  -2.783  -3.285  0.00  0.00    -0.060 A 
ATOM     27  C   UNL     1       3.149  -3.717  -3.844  0.00  0.00    +0.005 A 
ATOM     28  C   UNL     1       3.674  -3.511  -5.106  0.00  0.00    +0.050 A 
ATOM     29  C   UNL     1       3.346  -2.367  -5.815  0.00  0.00    +0.166 A 
ATOM     30  C   UNL     1       2.487  -1.426  -5.252  0.00  0.00    +0.166 A 
ATOM     31  C   UNL     1       1.961  -1.642  -3.989  0.00  0.00    +0.051 A 
ATOM     32  O   UNL     1       2.323  -0.400  -6.138  0.00  0.00    -0.453 OA
ATOM     33  C   UNL     1       3.408  -0.525  -7.076  0.00  0.00    +0.466 C 
ATOM     34  O   UNL     1       3.720  -1.931  -7.053  0.00  0.00    -0.453 OA
ENDBRANCH  25  26
ENDBRANCH  23  25
BRANCH  23  35
ATOM     35  C   UNL     1       0.708  -5.057  -2.642  0.00  0.00    -0.046 C 
BRANCH  35  36
ATOM     36  C   UNL     1      -0.626  -5.764  -2.890  0.00  0.00    +0.102 C 
ATOM     37  C   UNL     1      -0.374  -7.162  -3.494  0.00  0.00    +0.032 C 
ATOM     38  C   UNL     1      -1.514  -7.279  -4.541  0.00  0.00    +0.030 C 
ATOM     39  C   UNL     1      -1.635  -5.808  -5.012  0.00  0.00    +0.160 C 
ATOM     40  O   UNL     1      -1.403  -5.017  -3.833  0.00  0.00    -0.378 OA
ENDBRANCH  35  36
ENDBRANCH  23  35
ENDBRANCH  22  23
ENDBRANCH   1  22
TORSDOF 11
