REMARK  Name = ZINC14957341
REMARK  7 active torsions:
REMARK  status: ('A' for Active; 'I' for Inactive)
REMARK    1  A    between atoms: C_1  and  O_2
REMARK    2  A    between atoms: O_2  and  C_3
REMARK    3  A    between atoms: C_8  and  C_9
REMARK    4  A    between atoms: C_20  and  C_21
REMARK    5  A    between atoms: C_20  and  N_61
REMARK    6  A    between atoms: C_21  and  N_22
REMARK    7  A    between atoms: C_23  and  C_25
REMARK                            x       y       z     vdW  Elec       q    Type
REMARK                         _______ _______ _______ _____ _____    ______ ____
ROOT
ATOM      1  C   UNL     1      -0.002   5.365   0.017  0.00  0.00    +0.191 C 
ATOM      2  C   UNL     1      -0.180   5.869  -1.399  0.00  0.00    -0.028 C 
ATOM      3  C   UNL     1       0.866   8.053  -1.139  0.00  0.00    -0.039 C 
ATOM      4  C   UNL     1       0.929   8.208   0.368  0.00  0.00    -0.022 A 
ATOM      5  C   UNL     1       0.809   9.457   0.942  0.00  0.00    +0.005 A 
ATOM      6  C   UNL     1       0.918   9.593   2.315  0.00  0.00    +0.000 A 
ATOM      7  C   UNL     1       1.146   8.482   3.106  0.00  0.00    +0.004 A 
ATOM      8  C   UNL     1       1.254   7.229   2.532  0.00  0.00    +0.046 A 
ATOM      9  C   UNL     1       1.136   7.092   1.156  0.00  0.00    +0.123 A 
ATOM     10  O   UNL     1       1.218   5.861   0.582  0.00  0.00    -0.486 OA
ATOM     11  N   UNL     1      -0.386   7.332  -1.469  0.00  0.00    +0.386 N 
ATOM     12  H   UNL     1      -1.108   7.596  -0.788  0.00  0.00    -0.081 HD
ENDROOT
BRANCH   1  18
ATOM     13  C   UNL     1      -1.153   3.138   0.010  0.00  0.00    +0.127 A 
ATOM     14  C   UNL     1      -1.118   1.750  -0.005  0.00  0.00    +0.046 A 
ATOM     15  C   UNL     1       0.095   1.091  -0.014  0.00  0.00    +0.004 A 
ATOM     16  C   UNL     1       1.275   1.812  -0.018  0.00  0.00    +0.001 A 
ATOM     17  C   UNL     1       1.244   3.194  -0.008  0.00  0.00    +0.011 A 
ATOM     18  C   UNL     1       0.032   3.859   0.006  0.00  0.00    +0.032 A 
BRANCH  13  20
ATOM     19  C   UNL     1      -3.525   2.982   0.027  0.00  0.00    +0.277 C 
ATOM     20  O   UNL     1      -2.346   3.789   0.024  0.00  0.00    -0.495 OA
ENDBRANCH  13  20
ENDBRANCH   1  18
BRANCH  11  21
ATOM     21  C   UNL     1      -0.843   7.708  -2.817  0.00  0.00    -0.059 C 
BRANCH  21  22
ATOM     22  C   UNL     1      -1.297   9.169  -2.783  0.00  0.00    +0.086 C 
BRANCH  22  23
ATOM     23  N   UNL     1      -1.785   9.559  -4.108  0.00  0.00    -0.313 N 
ATOM     24  C   UNL     1      -2.238  10.810  -4.318  0.00  0.00    +0.251 C 
ATOM     25  O   UNL     1      -2.331  11.588  -3.386  0.00  0.00    -0.270 OA
ATOM     26  H   UNL     1      -1.781   8.916  -4.835  0.00  0.00    +0.149 HD
BRANCH  24  27
ATOM     27  C   UNL     1      -2.621  11.236  -5.669  0.00  0.00    +0.119 A 
ATOM     28  C   UNL     1      -2.981  12.566  -5.927  0.00  0.00    +0.131 A 
ATOM     29  N   UNL     1      -3.321  12.927  -7.147  0.00  0.00    -0.237 NA
ATOM     30  C   UNL     1      -3.334  12.056  -8.159  0.00  0.00    +0.140 A 
ATOM     31  C   UNL     1      -3.706  12.497  -9.440  0.00  0.00    +0.047 A 
ATOM     32  C   UNL     1      -3.723  11.612 -10.478  0.00  0.00    +0.005 A 
ATOM     33  C   UNL     1      -3.370  10.275 -10.251  0.00  0.00    +0.018 A 
ATOM     34  C   UNL     1      -3.015   9.869  -9.010  0.00  0.00    +0.096 A 
ATOM     35  N   UNL     1      -2.995  10.746  -7.969  0.00  0.00    -0.268 N 
ATOM     36  C   UNL     1      -2.631  10.313  -6.743  0.00  0.00    +0.270 A 
ATOM     37  O   UNL     1      -2.321   9.148  -6.563  0.00  0.00    -0.266 OA
ENDBRANCH  24  27
ENDBRANCH  22  23
ENDBRANCH  21  22
ENDBRANCH  11  21
TORSDOF 6
