REMARK  Name = ZINC09829965
REMARK  6 active torsions:
REMARK  status: ('A' for Active; 'I' for Inactive)
REMARK    1  A    between atoms: C_1  and  C_2
REMARK    2  A    between atoms: C_2  and  C_3
REMARK    3  A    between atoms: C_6  and  S_9
REMARK    4  A    between atoms: S_9  and  C_12
REMARK    5  A    between atoms: N_25  and  C_26
REMARK    6  A    between atoms: C_29  and  C_32
REMARK                            x       y       z     vdW  Elec       q    Type
REMARK                         _______ _______ _______ _____ _____    ______ ____
ROOT
ATOM      1  C   UNL     1       2.544   5.068   0.004  0.00  0.00    +0.249 A 
ATOM      2  C   UNL     1       2.305   3.705  -0.001  0.00  0.00    +0.204 A 
ATOM      3  N   UNL     1       1.167   2.988   0.001  0.00  0.00    -0.209 NA
ATOM      4  C   UNL     1       1.175   1.672  -0.000  0.00  0.00    +0.131 A 
ATOM      5  C   UNL     1       2.463   0.965  -0.016  0.00  0.00    +0.040 A 
ATOM      6  C   UNL     1       2.536  -0.428  -0.025  0.00  0.00    +0.013 A 
ATOM      7  C   UNL     1       3.768  -1.044  -0.040  0.00  0.00    +0.001 A 
ATOM      8  C   UNL     1       4.932  -0.289  -0.047  0.00  0.00    +0.002 A 
ATOM      9  C   UNL     1       4.876   1.089  -0.039  0.00  0.00    +0.028 A 
ATOM     10  C   UNL     1       3.645   1.729  -0.024  0.00  0.00    +0.080 A 
ATOM     11  N   UNL     1       3.539   3.108  -0.016  0.00  0.00    -0.192 N 
ATOM     12  N   UNL     1       4.482   4.142  -0.020  0.00  0.00    -0.057 NA
ATOM     13  N   UNL     1       3.856   5.267  -0.008  0.00  0.00    -0.108 NA
ATOM     14  N   UNL     1      -0.011   0.966   0.007  0.00  0.00    -0.326 N 
ATOM     15  H   UNL     1       0.002  -0.004   0.002  0.00  0.00    +0.148 HD
ENDROOT
BRANCH  14  16
ATOM     16  C   UNL     1      -1.290   1.681   0.017  0.00  0.00    +0.072 C 
ATOM     17  C   UNL     1      -1.667   2.032   1.458  0.00  0.00    +0.022 C 
ATOM     18  C   UNL     1      -1.794   0.747   2.279  0.00  0.00    +0.005 C 
ATOM     19  C   UNL     1      -2.881  -0.141   1.670  0.00  0.00    -0.014 C 
ATOM     20  C   UNL     1      -2.504  -0.492   0.229  0.00  0.00    +0.005 C 
ATOM     21  C   UNL     1      -2.376   0.792  -0.592  0.00  0.00    +0.022 C 
ATOM     22  C   UNL     1      -3.008  -1.426   2.491  0.00  0.00    +0.007 C 
ENDBRANCH  14  16
BRANCH   1  23
ATOM     23  S   UNL     1       1.312   6.328   0.022  0.00  0.00    +0.047 S 
ATOM     24  O   UNL     1       1.913   7.491  -0.529  0.00  0.00    -0.163 OA
ATOM     25  O   UNL     1       0.132   5.750  -0.521  0.00  0.00    -0.163 OA
BRANCH  23  29
ATOM     26  C   UNL     1       0.418   7.263   4.359  0.00  0.00    -0.048 A 
ATOM     27  C   UNL     1       1.411   7.957   3.693  0.00  0.00    +0.005 A 
ATOM     28  C   UNL     1       1.684   7.672   2.368  0.00  0.00    +0.028 A 
ATOM     29  C   UNL     1       0.964   6.692   1.710  0.00  0.00    +0.095 A 
ATOM     30  C   UNL     1      -0.032   6.002   2.375  0.00  0.00    +0.028 A 
ATOM     31  C   UNL     1      -0.302   6.284   3.701  0.00  0.00    +0.005 A 
BRANCH  26  33
ATOM     32  C   UNL     1      -0.946   8.668   5.881  0.00  0.00    +0.009 C 
ATOM     33  C   UNL     1       0.121   7.574   5.804  0.00  0.00    +0.032 C 
ENDBRANCH  26  33
ENDBRANCH  23  29
ENDBRANCH   1  23
TORSDOF 4
