REMARK  Name = ZINC12979574
REMARK  7 active torsions:
REMARK  status: ('A' for Active; 'I' for Inactive)
REMARK    1  A    between atoms: C_1  and  C_2
REMARK    2  A    between atoms: C_3  and  C_31
REMARK    3  A    between atoms: C_11  and  C_13
REMARK    4  A    between atoms: C_13  and  O_14
REMARK    5  A    between atoms: O_14  and  C_15
REMARK    6  A    between atoms: C_15  and  C_17
REMARK    7  A    between atoms: C_17  and  N_18
REMARK                            x       y       z     vdW  Elec       q    Type
REMARK                         _______ _______ _______ _____ _____    ______ ____
ROOT
ATOM      1  C   UNL     1      -0.014   1.204   0.009  0.00  0.00    +0.326 C 
ATOM      2  O   UNL     1       0.002  -0.004   0.002  0.00  0.00    -0.249 OA
ENDROOT
BRANCH   1   3
ATOM      3  O   UNL     1      -1.186   1.859   0.018  0.00  0.00    -0.456 OA
BRANCH   3   4
ATOM      4  C   UNL     1      -2.393   1.052   0.019  0.00  0.00    +0.306 C 
BRANCH   4  15
ATOM      5  C   UNL     1      -8.282   4.256   0.064  0.00  0.00    +0.045 C 
ATOM      6  C   UNL     1      -6.822   4.630   0.060  0.00  0.00    -0.026 A 
ATOM      7  C   UNL     1      -6.451   5.920   0.065  0.00  0.00    -0.008 A 
ATOM      8  S   UNL     1      -4.670   5.838   0.056  0.00  0.00    -0.073 S 
ATOM      9  C   UNL     1      -4.476   4.074   0.045  0.00  0.00    +0.116 A 
ATOM     10  C   UNL     1      -5.800   3.599   0.049  0.00  0.00    +0.075 A 
ATOM     11  C   UNL     1      -5.947   2.174   0.043  0.00  0.00    +0.260 A 
ATOM     12  O   UNL     1      -7.055   1.665   0.045  0.00  0.00    -0.267 OA
ATOM     13  N   UNL     1      -4.842   1.405   0.027  0.00  0.00    -0.308 N 
ATOM     14  H   UNL     1      -4.935   0.440   0.018  0.00  0.00    +0.170 HD
ATOM     15  C   UNL     1      -3.600   1.954   0.030  0.00  0.00    +0.149 A 
ATOM     16  N   UNL     1      -3.433   3.249   0.036  0.00  0.00    -0.223 NA
ATOM     17  C   UNL     1      -7.329   7.144   0.075  0.00  0.00    +0.052 C 
ENDBRANCH   4  15
ENDBRANCH   3   4
ENDBRANCH   1   3
BRANCH   1  18
ATOM     18  C   UNL     1       1.280   1.975   0.000  0.00  0.00    +0.237 C 
BRANCH  18  19
ATOM     19  N   UNL     1       2.407   1.038  -0.015  0.00  0.00    -0.223 N 
ATOM     20  C   UNL     1       3.006   0.550   1.086  0.00  0.00    +0.254 C 
ATOM     21  O   UNL     1       2.704   0.813   2.232  0.00  0.00    -0.270 OA
ATOM     22  C   UNL     1       4.091  -0.361   0.666  0.00  0.00    +0.051 A 
ATOM     23  C   UNL     1       5.022  -1.133   1.343  0.00  0.00    +0.035 A 
ATOM     24  C   UNL     1       5.934  -1.894   0.628  0.00  0.00    +0.060 A 
ATOM     25  C   UNL     1       5.922  -1.886  -0.757  0.00  0.00    +0.060 A 
ATOM     26  C   UNL     1       4.995  -1.118  -1.446  0.00  0.00    +0.035 A 
ATOM     27  C   UNL     1       4.078  -0.353  -0.744  0.00  0.00    +0.051 A 
ATOM     28  C   UNL     1       2.981   0.558  -1.133  0.00  0.00    +0.254 C 
ATOM     29  O   UNL     1       2.654   0.828  -2.271  0.00  0.00    -0.270 OA
ATOM     30 CL   UNL     1       7.072  -2.844  -1.636  0.00  0.00    -0.082 Cl
ATOM     31 CL   UNL     1       7.101  -2.862   1.474  0.00  0.00    -0.082 Cl
ENDBRANCH  18  19
ENDBRANCH   1  18
TORSDOF 5
