REMARK  Name = ZINC64518860
REMARK  9 active torsions:
REMARK  status: ('A' for Active; 'I' for Inactive)
REMARK    1  A    between atoms: C_1  and  C_2
REMARK    2  A    between atoms: C_2  and  C_3
REMARK    3  A    between atoms: C_3  and  N_4
REMARK    4  A    between atoms: C_12  and  C_14
REMARK    5  A    between atoms: C_14  and  C_15
REMARK    6  A    between atoms: C_15  and  C_16
REMARK    7  A    between atoms: C_21  and  N_22
REMARK    8  A    between atoms: N_22  and  S_23
REMARK    9  A    between atoms: S_23  and  C_26
REMARK                            x       y       z     vdW  Elec       q    Type
REMARK                         _______ _______ _______ _____ _____    ______ ____
ROOT
ATOM      1  C   UNL     1      -4.661  -4.548  -2.794  0.00  0.00    -0.023 A 
ATOM      2  C   UNL     1      -4.913  -4.004  -4.038  0.00  0.00    +0.005 A 
ATOM      3  C   UNL     1      -5.031  -4.827  -5.143  0.00  0.00    +0.000 A 
ATOM      4  C   UNL     1      -4.898  -6.196  -5.007  0.00  0.00    +0.002 A 
ATOM      5  C   UNL     1      -4.646  -6.747  -3.766  0.00  0.00    +0.027 A 
ATOM      6  C   UNL     1      -4.521  -5.923  -2.655  0.00  0.00    +0.078 A 
ENDROOT
BRANCH   1   7
ATOM      7  C   UNL     1      -4.533  -3.651  -1.590  0.00  0.00    +0.040 C 
BRANCH   7   8
ATOM      8  C   UNL     1      -3.057  -3.328  -1.350  0.00  0.00    +0.045 C 
BRANCH   8  17
ATOM      9  N   UNL     1      -1.526  -1.999   0.049  0.00  0.00    -0.377 NA
ATOM     10  C   UNL     1      -1.107  -2.473   1.298  0.00  0.00    +0.036 A 
ATOM     11  C   UNL     1       0.116  -2.351   1.938  0.00  0.00    +0.023 A 
ATOM     12  C   UNL     1       0.306  -2.908   3.187  0.00  0.00    +0.002 A 
ATOM     13  C   UNL     1      -0.726  -3.590   3.806  0.00  0.00    +0.002 A 
ATOM     14  C   UNL     1      -1.946  -3.716   3.176  0.00  0.00    +0.025 A 
ATOM     15  C   UNL     1      -2.143  -3.156   1.916  0.00  0.00    +0.048 A 
ATOM     16  N   UNL     1      -3.274  -3.154   1.094  0.00  0.00    -0.326 N 
ATOM     17  C   UNL     1      -2.926  -2.417  -0.128  0.00  0.00    +0.142 C 
ATOM     18  H   UNL     1      -4.130  -3.563   1.294  0.00  0.00    +0.148 HD
ATOM     19  H   UNL     1      -0.954  -2.398  -0.681  0.00  0.00    +0.128 HD
BRANCH   9  20
ATOM     20  C   UNL     1      -1.433  -0.534   0.013  0.00  0.00    +0.086 C 
BRANCH  20  22
ATOM     21  C   UNL     1      -1.586   1.479  -1.460  0.00  0.00    +0.005 C 
ATOM     22  C   UNL     1      -1.807  -0.033  -1.384  0.00  0.00    +0.014 C 
ENDBRANCH  20  22
ENDBRANCH   9  20
ENDBRANCH   8  17
ENDBRANCH   7   8
ENDBRANCH   1   7
BRANCH   6  23
ATOM     23  N   UNL     1      -4.261  -6.476  -1.399  0.00  0.00    -0.096 NA
BRANCH  23  24
ATOM     24  S   UNL     1      -4.095  -8.116  -1.235  0.00  0.00    +0.108 S 
ATOM     25  O   UNL     1      -5.364  -8.684  -1.527  0.00  0.00    -0.147 OA
ATOM     26  O   UNL     1      -2.917  -8.477  -1.942  0.00  0.00    -0.147 OA
BRANCH  24  27
ATOM     27  C   UNL     1      -3.778  -8.439   0.468  0.00  0.00    +0.194 A 
ATOM     28  H   UNL     1      -5.674  -8.696   1.322  0.00  0.00    +0.168 HD
ATOM     29  C   UNL     1      -2.572  -8.497   1.064  0.00  0.00    +0.131 A 
ATOM     30  N   UNL     1      -2.763  -8.765   2.364  0.00  0.00    -0.351 N 
ATOM     31  C   UNL     1      -4.042  -8.876   2.597  0.00  0.00    +0.172 A 
ATOM     32  N   UNL     1      -4.712  -8.675   1.441  0.00  0.00    -0.330 N 
ATOM     33  H   UNL     1      -2.061  -8.861   3.027  0.00  0.00    +0.166 HD
ENDBRANCH  24  27
ENDBRANCH  23  24
ENDBRANCH   6  23
TORSDOF 8
