REMARK  Name = ZINC09259312
REMARK  7 active torsions:
REMARK  status: ('A' for Active; 'I' for Inactive)
REMARK    1  A    between atoms: C_9  and  S_11
REMARK    2  A    between atoms: S_11  and  C_12
REMARK    3  A    between atoms: C_15  and  C_17
REMARK    4  A    between atoms: N_18  and  N_19
REMARK    5  A    between atoms: C_20  and  C_22
REMARK    6  A    between atoms: C_22  and  O_23
REMARK    7  A    between atoms: O_23  and  C_24
REMARK                            x       y       z     vdW  Elec       q    Type
REMARK                         _______ _______ _______ _____ _____    ______ ____
ROOT
ATOM      1  C   UNL     1      -8.386   4.361   0.100  0.00  0.00    +0.176 C 
ATOM      2  N   UNL     1      -7.189   4.875   0.091  0.00  0.00    -0.185 NA
ENDROOT
BRANCH   1   6
ATOM      3  C   UNL     1     -10.797   7.053   0.133  0.00  0.00    +0.169 A 
ATOM      4  C   UNL     1     -11.649   5.993   0.136  0.00  0.00    +0.057 A 
ATOM      5  C   UNL     1     -10.862   4.831   0.124  0.00  0.00    +0.052 A 
ATOM      6  C   UNL     1      -9.557   5.238   0.114  0.00  0.00    +0.149 A 
ATOM      7  O   UNL     1      -9.536   6.588   0.126  0.00  0.00    -0.447 OA
BRANCH   3   8
ATOM      8  S   UNL     1     -11.268   8.751   0.145  0.00  0.00    -0.014 S 
BRANCH   8  17
ATOM      9  C   UNL     1      -5.886  12.005   0.113  0.00  0.00    +0.002 A 
ATOM     10  C   UNL     1      -5.321  10.739   0.102  0.00  0.00    +0.002 A 
ATOM     11  C   UNL     1      -6.120   9.617   0.104  0.00  0.00    +0.030 A 
ATOM     12  C   UNL     1      -7.510   9.755   0.116  0.00  0.00    +0.090 A 
ATOM     13  C   UNL     1      -8.077  11.041   0.127  0.00  0.00    +0.067 A 
ATOM     14  C   UNL     1      -7.257  12.159   0.125  0.00  0.00    +0.028 A 
ATOM     15  N   UNL     1      -9.450  10.856   0.138  0.00  0.00    -0.333 N 
ATOM     16  H   UNL     1     -10.145  11.575   0.147  0.00  0.00    +0.168 HD
ATOM     17  C   UNL     1      -9.677   9.509   0.134  0.00  0.00    +0.175 A 
ATOM     18  N   UNL     1      -8.536   8.865   0.126  0.00  0.00    -0.222 NA
ENDBRANCH   8  17
ENDBRANCH   3   8
ENDBRANCH   1   6
BRANCH   2  19
ATOM     19  N   UNL     1      -6.067   4.035   0.077  0.00  0.00    -0.204 N 
ATOM     20  C   UNL     1      -4.828   4.566   0.069  0.00  0.00    +0.270 C 
ATOM     21  O   UNL     1      -4.684   5.771   0.072  0.00  0.00    -0.270 OA
ATOM     22  H   UNL     1      -6.181   3.072   0.074  0.00  0.00    +0.177 HD
BRANCH  20  23
ATOM     23  C   UNL     1      -3.621   3.664   0.054  0.00  0.00    +0.326 C 
BRANCH  23  24
ATOM     24  O   UNL     1      -2.433   4.457   0.046  0.00  0.00    -0.481 OA
BRANCH  24  25
ATOM     25  C   UNL     1      -1.247   3.793   0.033  0.00  0.00    +0.142 A 
ATOM     26  C   UNL     1      -1.228   2.406   0.021  0.00  0.00    +0.067 A 
ATOM     27  C   UNL     1      -0.021   1.732   0.012  0.00  0.00    +0.046 A 
ATOM     28  C   UNL     1       1.168   2.439   0.004  0.00  0.00    +0.041 A 
ATOM     29  C   UNL     1       1.152   3.823   0.011  0.00  0.00    +0.064 A 
ATOM     30  C   UNL     1      -0.054   4.501   0.025  0.00  0.00    +0.101 A 
ATOM     31 CL   UNL     1      -0.074   6.237   0.034  0.00  0.00    -0.078 Cl
ATOM     32 CL   UNL     1       2.646   4.707   0.002  0.00  0.00    -0.082 Cl
ATOM     33 CL   UNL     1       0.002  -0.004   0.002  0.00  0.00    -0.083 Cl
ENDBRANCH  24  25
ENDBRANCH  23  24
ENDBRANCH  20  23
ENDBRANCH   2  19
TORSDOF 7
