REMARK  Name = ZINC14704510
REMARK  5 active torsions:
REMARK  status: ('A' for Active; 'I' for Inactive)
REMARK    1  A    between atoms: C_8  and  C_12
REMARK    2  A    between atoms: C_12  and  O_13
REMARK    3  A    between atoms: O_13  and  C_14
REMARK    4  A    between atoms: C_14  and  C_16
REMARK    5  A    between atoms: C_18  and  N_24
REMARK                            x       y       z     vdW  Elec       q    Type
REMARK                         _______ _______ _______ _____ _____    ______ ____
ROOT
ATOM      1  C   UNL     1       7.207   3.916  -0.046  0.00  0.00    +0.360 C 
ATOM      2  O   UNL     1       7.315   5.125  -0.041  0.00  0.00    -0.243 OA
ENDROOT
BRANCH   1   3
ATOM      3  C   UNL     1       8.418   3.066  -0.063  0.00  0.00    +0.169 A 
ATOM      4  C   UNL     1       9.677   3.659  -0.078  0.00  0.00    +0.095 A 
ATOM      5  C   UNL     1      10.809   2.843  -0.088  0.00  0.00    +0.067 A 
ATOM      6  C   UNL     1      10.628   1.461  -0.094  0.00  0.00    +0.100 A 
ATOM      7  C   UNL     1       9.341   0.946  -0.084  0.00  0.00    +0.150 A 
ATOM      8  N   UNL     1       8.293   1.742  -0.069  0.00  0.00    -0.226 NA
ATOM      9 CL   UNL     1       9.109  -0.774  -0.091  0.00  0.00    -0.060 Cl
ATOM     10 CL   UNL     1      11.999   0.397  -0.114  0.00  0.00    -0.078 Cl
ATOM     11 CL   UNL     1       9.837   5.388  -0.078  0.00  0.00    -0.079 Cl
BRANCH   5  12
ATOM     12  N   UNL     1      12.088   3.396  -0.098  0.00  0.00    -0.356 N 
ATOM     13  H   UNL     1      12.971   2.740  -0.106  0.00  0.00    +0.142 HD
ATOM     14  H   UNL     1      12.215   4.489  -0.098  0.00  0.00    +0.142 HD
ENDBRANCH   5  12
ENDBRANCH   1   3
BRANCH   1  15
ATOM     15  O   UNL     1       5.986   3.348  -0.037  0.00  0.00    -0.455 OA
BRANCH  15  16
ATOM     16  C   UNL     1       4.843   4.243  -0.021  0.00  0.00    +0.271 C 
BRANCH  16  24
ATOM     17  C   UNL     1       1.205  -0.707  -0.014  0.00  0.00    +0.001 A 
ATOM     18  C   UNL     1       0.002  -0.004   0.002  0.00  0.00    +0.002 A 
ATOM     19  C   UNL     1      -0.016   1.357   0.009  0.00  0.00    +0.028 A 
ATOM     20  C   UNL     1       1.195   2.071   0.002  0.00  0.00    +0.073 A 
ATOM     21  C   UNL     1       2.417   1.354  -0.013  0.00  0.00    +0.001 A 
ATOM     22  C   UNL     1       2.398  -0.050  -0.021  0.00  0.00    +0.010 A 
ATOM     23  C   UNL     1       3.629   2.071  -0.021  0.00  0.00    +0.020 A 
ATOM     24  C   UNL     1       3.571   3.435  -0.013  0.00  0.00    +0.027 A 
ATOM     25  C   UNL     1       2.334   4.079   0.002  0.00  0.00    +0.136 A 
ATOM     26  N   UNL     1       1.207   3.408   0.010  0.00  0.00    -0.235 NA
ATOM     27 CL   UNL     1       2.285   5.814   0.012  0.00  0.00    -0.062 Cl
ENDBRANCH  16  24
ENDBRANCH  15  16
ENDBRANCH   1  15
TORSDOF 5
