REMARK  Name = ZINC08649369
REMARK  9 active torsions:
REMARK  status: ('A' for Active; 'I' for Inactive)
REMARK    1  A    between atoms: C_1  and  C_2
REMARK    2  A    between atoms: C_5  and  C_8
REMARK    3  A    between atoms: N_15  and  C_30
REMARK    4  A    between atoms: C_16  and  S_18
REMARK    5  A    between atoms: S_18  and  C_19
REMARK    6  A    between atoms: C_19  and  C_20
REMARK    7  A    between atoms: N_22  and  C_23
REMARK    8  A    between atoms: C_23  and  C_28
REMARK    9  A    between atoms: C_30  and  C_31
REMARK                            x       y       z     vdW  Elec       q    Type
REMARK                         _______ _______ _______ _____ _____    ______ ____
ROOT
ATOM      1  C   UNL     1       0.968   3.531   0.011  0.00  0.00    +0.004 A 
ATOM      2  C   UNL     1      -0.296   4.016   0.026  0.00  0.00    +0.056 A 
ATOM      3  S   UNL     1      -1.303   2.545   0.021  0.00  0.00    -0.076 S 
ATOM      4  C   UNL     1      -0.016   1.324   0.009  0.00  0.00    +0.117 A 
ATOM      5  C   UNL     1       1.166   2.085   0.002  0.00  0.00    +0.080 A 
ATOM      6  C   UNL     1       2.386   1.342  -0.013  0.00  0.00    +0.264 A 
ATOM      7  O   UNL     1       3.460   1.919  -0.019  0.00  0.00    -0.267 OA
ATOM      8  N   UNL     1       2.335  -0.003  -0.020  0.00  0.00    -0.283 N 
ATOM      9  C   UNL     1       1.142  -0.665  -0.012  0.00  0.00    +0.173 A 
ATOM     10  N   UNL     1       0.002  -0.004   0.002  0.00  0.00    -0.216 NA
ENDROOT
BRANCH   1  15
ATOM     11  C   UNL     1       5.478   7.110  -0.014  0.00  0.00    +0.044 C 
ATOM     12  C   UNL     1       4.298   6.173  -0.007  0.00  0.00    -0.050 A 
ATOM     13  C   UNL     1       3.270   6.354  -0.916  0.00  0.00    +0.004 A 
ATOM     14  C   UNL     1       2.187   5.499  -0.914  0.00  0.00    +0.009 A 
ATOM     15  C   UNL     1       2.129   4.452   0.005  0.00  0.00    -0.017 A 
ATOM     16  C   UNL     1       3.165   4.279   0.921  0.00  0.00    +0.009 A 
ATOM     17  C   UNL     1       4.246   5.136   0.907  0.00  0.00    +0.004 A 
ENDBRANCH   1  15
BRANCH   9  18
ATOM     18  S   UNL     1       1.125  -2.427  -0.022  0.00  0.00    -0.078 S 
BRANCH  18  19
ATOM     19  C   UNL     1      -0.660  -2.725  -0.006  0.00  0.00    +0.173 C 
BRANCH  19  20
ATOM     20  C   UNL     1      -0.922  -4.209  -0.012  0.00  0.00    +0.224 C 
ATOM     21  O   UNL     1       0.007  -4.988  -0.025  0.00  0.00    -0.275 OA
ATOM     22  N   UNL     1      -2.189  -4.669  -0.002  0.00  0.00    -0.297 N 
ATOM     23  H   UNL     1      -2.932  -4.046   0.008  0.00  0.00    +0.150 HD
BRANCH  22  24
ATOM     24  C   UNL     1      -2.443  -6.112  -0.007  0.00  0.00    +0.121 C 
ATOM     25  C   UNL     1      -1.879  -6.744  -1.297  0.00  0.00    +0.041 C 
ATOM     26  C   UNL     1      -2.916  -7.834  -1.670  0.00  0.00    +0.003 C 
ATOM     27  C   UNL     1      -4.264  -7.164  -1.304  0.00  0.00    +0.003 C 
ATOM     28  C   UNL     1      -3.959  -6.380  -0.012  0.00  0.00    +0.041 C 
BRANCH  24  29
ATOM     29  C   UNL     1      -1.824  -6.737   1.173  0.00  0.00    +0.088 C 
ATOM     30  N   UNL     1      -1.346  -7.220   2.083  0.00  0.00    -0.194 NA
ENDBRANCH  24  29
ENDBRANCH  22  24
ENDBRANCH  19  20
ENDBRANCH  18  19
ENDBRANCH   9  18
BRANCH   8  31
ATOM     31  C   UNL     1       3.583  -0.769  -0.035  0.00  0.00    +0.154 C 
BRANCH  31  32
ATOM     32  C   UNL     1       3.998  -1.025  -1.462  0.00  0.00    -0.013 C 
ATOM     33  C   UNL     1       5.189  -0.666  -1.871  0.00  0.00    +0.005 C 
ENDBRANCH  31  32
ENDBRANCH   8  31
TORSDOF 8
