REMARK  Name = ZINC51943338
REMARK  5 active torsions:
REMARK  status: ('A' for Active; 'I' for Inactive)
REMARK    1  A    between atoms: C_1  and  C_2
REMARK    2  A    between atoms: C_2  and  C_3
REMARK    3  A    between atoms: C_2  and  C_4
REMARK    4  A    between atoms: C_2  and  O_5
REMARK    5  A    between atoms: O_5  and  C_6
REMARK                            x       y       z     vdW  Elec       q    Type
REMARK                         _______ _______ _______ _____ _____    ______ ____
ROOT
ATOM      1  C   UNL     1       1.952  -0.085  -1.337  0.00  0.00    +0.403 C 
ATOM      2  O   UNL     1       2.488   0.619  -0.503  0.00  0.00    -0.226 OA
ATOM      3  N   UNL     1       2.641  -0.485  -2.424  0.00  0.00    -0.267 N 
ATOM      4  C   UNL     1       2.005  -1.331  -3.443  0.00  0.00    +0.111 C 
ATOM      5  C   UNL     1       2.873  -2.573  -3.665  0.00  0.00    +0.028 C 
ATOM      6  C   UNL     1       4.299  -2.138  -4.008  0.00  0.00    -0.007 C 
ATOM      7  C   UNL     1       4.888  -1.339  -2.843  0.00  0.00    +0.028 C 
ATOM      8  C   UNL     1       4.040  -0.078  -2.615  0.00  0.00    +0.111 C 
ATOM      9  C   UNL     1       4.284  -1.274  -5.268  0.00  0.00    +0.045 C 
ATOM     10  C   UNL     1       3.916  -2.103  -6.470  0.00  0.00    -0.026 A 
ATOM     11  C   UNL     1       3.428  -1.466  -7.599  0.00  0.00    +0.005 A 
ATOM     12  C   UNL     1       3.086  -2.198  -8.720  0.00  0.00    +0.000 A 
ATOM     13  C   UNL     1       3.229  -3.574  -8.721  0.00  0.00    +0.002 A 
ATOM     14  C   UNL     1       3.712  -4.217  -7.599  0.00  0.00    +0.023 A 
ATOM     15  C   UNL     1       4.055  -3.482  -6.469  0.00  0.00    +0.030 A 
ATOM     16  N   UNL     1       4.532  -4.155  -5.339  0.00  0.00    -0.343 N 
ATOM     17  C   UNL     1       5.164  -3.378  -4.263  0.00  0.00    +0.108 C 
ATOM     18  H   UNL     1       4.447  -5.118  -5.266  0.00  0.00    +0.146 HD
ENDROOT
BRANCH   1  19
ATOM     19  O   UNL     1       0.671  -0.465  -1.174  0.00  0.00    -0.445 OA
BRANCH  19  21
ATOM     20  C   UNL     1      -0.019   1.526   0.010  0.00  0.00    +0.055 C 
ATOM     21  C   UNL     1       0.002  -0.004   0.002  0.00  0.00    +0.107 C 
ATOM     22  C   UNL     1       0.742  -0.511   1.242  0.00  0.00    +0.055 C 
ATOM     23  C   UNL     1      -1.433  -0.534   0.013  0.00  0.00    +0.055 C 
ENDBRANCH  19  21
ENDBRANCH   1  19
TORSDOF 2
