REMARK  Name = ZINC44452569
REMARK  3 active torsions:
REMARK  status: ('A' for Active; 'I' for Inactive)
REMARK    1  A    between atoms: C_6  and  C_7
REMARK    2  A    between atoms: N_9  and  C_10
REMARK    3  A    between atoms: C_11  and  C_18
REMARK                            x       y       z     vdW  Elec       q    Type
REMARK                         _______ _______ _______ _____ _____    ______ ____
ROOT
ATOM      1  C   UNL     1      -2.432  -2.822   0.011  0.00  0.00    +0.085 A 
ATOM      2  C   UNL     1      -2.602  -4.195   0.011  0.00  0.00    +0.069 A 
ATOM      3  C   UNL     1      -3.974  -4.700   0.020  0.00  0.00    -0.023 A 
ATOM      4  C   UNL     1      -4.913  -3.737   0.027  0.00  0.00    -0.004 A 
ATOM      5  S   UNL     1      -3.996  -2.217   0.030  0.00  0.00    -0.077 S 
ATOM      6  C   UNL     1      -6.304  -4.310   0.032  0.00  0.00    +0.043 C 
ATOM      7  C   UNL     1      -6.122  -5.781  -0.405  0.00  0.00    +0.010 C 
ATOM      8  C   UNL     1      -4.669  -6.060   0.028  0.00  0.00    +0.037 C 
ENDROOT
BRANCH   2   9
ATOM      9  C   UNL     1      -1.454  -5.106   0.001  0.00  0.00    +0.254 C 
ATOM     10  O   UNL     1      -0.970  -5.485   1.051  0.00  0.00    -0.270 OA
ATOM     11  N   UNL     1      -0.935  -5.523  -1.170  0.00  0.00    -0.236 N 
ATOM     12  C   UNL     1       0.121  -6.361  -1.179  0.00  0.00    +0.304 C 
ATOM     13  O   UNL     1       0.605  -6.740  -0.130  0.00  0.00    -0.253 OA
ATOM     14  N   UNL     1       0.640  -6.778  -2.351  0.00  0.00    -0.313 N 
ATOM     15  H   UNL     1      -1.321  -5.220  -2.007  0.00  0.00    +0.159 HD
ATOM     16  H   UNL     1       0.254  -6.475  -3.188  0.00  0.00    +0.146 HD
ATOM     17  H   UNL     1       1.400  -7.380  -2.357  0.00  0.00    +0.146 HD
ENDBRANCH   2   9
BRANCH   1  20
ATOM     18  C   UNL     1      -1.265  -0.763   0.011  0.00  0.00    +0.249 C 
ATOM     19  O   UNL     1      -2.328  -0.172   0.024  0.00  0.00    -0.270 OA
ATOM     20  N   UNL     1      -1.244  -2.111   0.003  0.00  0.00    -0.275 N 
ATOM     21  H   UNL     1      -0.396  -2.582  -0.008  0.00  0.00    +0.156 HD
BRANCH  18  27
ATOM     22  C   UNL     1      -0.017   1.392   0.010  0.00  0.00    +0.014 A 
ATOM     23  C   UNL     1       1.169   2.095   0.002  0.00  0.00    +0.021 A 
ATOM     24  C   UNL     1       2.378   1.419  -0.013  0.00  0.00    +0.041 A 
ATOM     25  C   UNL     1       2.404   0.034  -0.022  0.00  0.00    +0.021 A 
ATOM     26  C   UNL     1       1.224  -0.680  -0.014  0.00  0.00    +0.014 A 
ATOM     27  C   UNL     1       0.002  -0.004   0.002  0.00  0.00    +0.037 A 
ATOM     28 CL   UNL     1       3.868   2.311  -0.024  0.00  0.00    -0.084 Cl
ENDBRANCH  18  27
ENDBRANCH   1  20
TORSDOF 3
