REMARK  Name = ZINC36146767
REMARK  11 active torsions:
REMARK  status: ('A' for Active; 'I' for Inactive)
REMARK    1  A    between atoms: C_4  and  O_7
REMARK    2  A    between atoms: O_7  and  C_8
REMARK    3  A    between atoms: C_8  and  C_9
REMARK    4  A    between atoms: C_9  and  C_11
REMARK    5  A    between atoms: C_9  and  O_36
REMARK    6  A    between atoms: C_11  and  N_12
REMARK    7  A    between atoms: N_12  and  C_13
REMARK    8  A    between atoms: N_12  and  C_21
REMARK    9  A    between atoms: C_13  and  C_14
REMARK   10  A    between atoms: C_21  and  C_22
REMARK   11  A    between atoms: C_25  and  C_28
REMARK                            x       y       z     vdW  Elec       q    Type
REMARK                         _______ _______ _______ _____ _____    ______ ____
ROOT
ATOM      1  N   UNL     1       6.480  -4.550   0.278  0.00  0.00    +0.387 N 
ATOM      2  H   UNL     1       6.956  -4.028   0.998  0.00  0.00    -0.081 HD
ENDROOT
BRANCH   1   3
ATOM      3  C   UNL     1       5.048  -4.224   0.301  0.00  0.00    -0.043 C 
BRANCH   3   4
ATOM      4  C   UNL     1       4.497  -4.451   1.711  0.00  0.00    +0.135 C 
BRANCH   4   5
ATOM      5  O   UNL     1       5.188  -3.609   2.634  0.00  0.00    -0.390 OA
ATOM      6  H   UNL     1       5.043  -2.664   2.489  0.00  0.00    +0.210 HD
ENDBRANCH   4   5
BRANCH   4   7
ATOM      7  C   UNL     1       3.004  -4.117   1.734  0.00  0.00    +0.258 C 
BRANCH   7   8
ATOM      8  O   UNL     1       2.464  -4.439   3.018  0.00  0.00    -0.489 OA
BRANCH   8  12
ATOM      9  C   UNL     1      -1.556  -3.714   3.594  0.00  0.00    +0.000 A 
ATOM     10  C   UNL     1      -0.797  -4.246   4.619  0.00  0.00    +0.004 A 
ATOM     11  C   UNL     1       0.549  -4.490   4.429  0.00  0.00    +0.045 A 
ATOM     12  C   UNL     1       1.139  -4.201   3.207  0.00  0.00    +0.121 A 
ATOM     13  C   UNL     1       0.375  -3.667   2.179  0.00  0.00    +0.045 A 
ATOM     14  C   UNL     1      -0.971  -3.425   2.375  0.00  0.00    +0.004 A 
ENDBRANCH   8  12
ENDBRANCH   7   8
ENDBRANCH   4   7
ENDBRANCH   3   4
ENDBRANCH   1   3
BRANCH   1  15
ATOM     15  C   UNL     1       7.040  -4.198  -1.034  0.00  0.00    -0.040 C 
BRANCH  15  16
ATOM     16  C   UNL     1       6.975  -2.705  -1.224  0.00  0.00    -0.029 A 
ATOM     17  C   UNL     1       6.003  -2.153  -2.038  0.00  0.00    +0.004 A 
ATOM     18  C   UNL     1       5.943  -0.783  -2.212  0.00  0.00    +0.000 A 
ATOM     19  C   UNL     1       6.854   0.037  -1.572  0.00  0.00    +0.003 A 
ATOM     20  C   UNL     1       7.826  -0.512  -0.758  0.00  0.00    +0.038 A 
ATOM     21  C   UNL     1       7.884  -1.884  -0.578  0.00  0.00    +0.125 A 
ATOM     22  F   UNL     1       8.831  -2.422   0.222  0.00  0.00    -0.205 F 
ENDBRANCH  15  16
ENDBRANCH   1  15
BRANCH   1  23
ATOM     23  C   UNL     1       6.659  -5.989   0.516  0.00  0.00    -0.030 C 
BRANCH  23  24
ATOM     24  C   UNL     1       8.152  -6.308   0.615  0.00  0.00    +0.194 C 
ATOM     25  C   UNL     1       8.382  -7.824   0.820  0.00  0.00    +0.104 C 
ATOM     26  C   UNL     1       9.554  -7.853   1.782  0.00  0.00    +0.091 C 
ATOM     27  N   UNL     1       9.684  -6.677   2.297  0.00  0.00    -0.089 NA
ATOM     28  O   UNL     1       8.718  -5.759   1.823  0.00  0.00    -0.392 OA
BRANCH  26  29
ATOM     29  C   UNL     1      10.401  -9.025   2.078  0.00  0.00    +0.001 A 
ATOM     30  C   UNL     1      10.155 -10.246   1.445  0.00  0.00    +0.011 A 
ATOM     31  C   UNL     1      10.949 -11.338   1.726  0.00  0.00    +0.022 A 
ATOM     32  C   UNL     1      11.989 -11.226   2.634  0.00  0.00    +0.059 A 
ATOM     33  C   UNL     1      12.239 -10.018   3.265  0.00  0.00    +0.060 A 
ATOM     34  C   UNL     1      11.454  -8.917   2.989  0.00  0.00    +0.031 A 
ATOM     35 CL   UNL     1      13.544  -9.888   4.402  0.00  0.00    -0.082 Cl
ATOM     36 CL   UNL     1      12.984 -12.606   2.982  0.00  0.00    -0.082 Cl
ENDBRANCH  26  29
ENDBRANCH  23  24
ENDBRANCH   1  23
TORSDOF 11
