REMARK  Name = ZINC18493597
REMARK  5 active torsions:
REMARK  status: ('A' for Active; 'I' for Inactive)
REMARK    1  A    between atoms: N_13  and  C_17
REMARK    2  A    between atoms: C_17  and  C_18
REMARK    3  A    between atoms: N_20  and  C_21
REMARK    4  A    between atoms: C_21  and  C_22
REMARK    5  A    between atoms: N_24  and  C_25
REMARK                            x       y       z     vdW  Elec       q    Type
REMARK                         _______ _______ _______ _____ _____    ______ ____
ROOT
ATOM      1  C   UNL     1       7.580  -3.398   1.994  0.00  0.00    +0.001 A 
ATOM      2  C   UNL     1       8.680  -4.058   2.510  0.00  0.00    +0.004 A 
ATOM      3  C   UNL     1       9.916  -3.446   2.503  0.00  0.00    +0.046 A 
ATOM      4  C   UNL     1      10.061  -2.165   1.980  0.00  0.00    +0.126 A 
ATOM      5  C   UNL     1       8.958  -1.508   1.460  0.00  0.00    +0.027 A 
ATOM      6  C   UNL     1       7.720  -2.127   1.471  0.00  0.00    +0.010 A 
ATOM      7  C   UNL     1       9.080  -0.127   0.880  0.00  0.00    +0.144 C 
ATOM      8  C   UNL     1      10.381   0.533   1.327  0.00  0.00    +0.081 C 
ATOM      9  C   UNL     1      11.523  -0.474   1.135  0.00  0.00    +0.232 C 
ATOM     10  O   UNL     1      11.291  -1.590   1.995  0.00  0.00    -0.492 OA
ATOM     11  C   UNL     1       7.898   0.725   1.278  0.00  0.00    +0.252 C 
ATOM     12  O   UNL     1       7.564   1.040   2.400  0.00  0.00    -0.272 OA
ATOM     13  N   UNL     1       7.289   1.060   0.121  0.00  0.00    -0.215 N 
ATOM     14  C   UNL     1       7.927   0.546  -0.938  0.00  0.00    +0.310 C 
ATOM     15  O   UNL     1       7.570   0.712  -2.088  0.00  0.00    -0.252 OA
ATOM     16  N   UNL     1       9.007  -0.177  -0.586  0.00  0.00    -0.281 N 
ATOM     17  H   UNL     1       9.616  -0.640  -1.183  0.00  0.00    +0.152 HD
ENDROOT
BRANCH  13  18
ATOM     18  C   UNL     1       6.083   1.887   0.034  0.00  0.00    +0.213 C 
BRANCH  18  19
ATOM     19  C   UNL     1       4.863   1.004   0.085  0.00  0.00    +0.231 C 
ATOM     20  O   UNL     1       4.988  -0.198   0.184  0.00  0.00    -0.274 OA
ATOM     21  N   UNL     1       3.633   1.551   0.021  0.00  0.00    -0.305 N 
ATOM     22  H   UNL     1       3.533   2.512  -0.059  0.00  0.00    +0.149 HD
BRANCH  21  23
ATOM     23  C   UNL     1       2.446   0.692   0.070  0.00  0.00    +0.200 C 
BRANCH  23  24
ATOM     24  C   UNL     1       1.206   1.544  -0.019  0.00  0.00    +0.234 C 
ATOM     25  O   UNL     1       1.304   2.749  -0.115  0.00  0.00    -0.274 OA
ATOM     26  N   UNL     1      -0.011   0.966   0.007  0.00  0.00    -0.283 N 
ATOM     27  H   UNL     1      -0.089  -0.001   0.018  0.00  0.00    +0.155 HD
BRANCH  26  28
ATOM     28  C   UNL     1      -1.163   1.761   0.013  0.00  0.00    +0.047 A 
ATOM     29  C   UNL     1      -1.185   2.959  -0.688  0.00  0.00    +0.024 A 
ATOM     30  C   UNL     1      -2.325   3.740  -0.684  0.00  0.00    +0.002 A 
ATOM     31  C   UNL     1      -3.440   3.333   0.025  0.00  0.00    +0.001 A 
ATOM     32  C   UNL     1      -3.421   2.143   0.729  0.00  0.00    +0.017 A 
ATOM     33  C   UNL     1      -2.285   1.355   0.725  0.00  0.00    +0.039 A 
ATOM     34 BR   UNL     1      -2.259  -0.272   1.688  0.00  0.00    -0.048 Br
ENDBRANCH  26  28
ENDBRANCH  23  24
ENDBRANCH  21  23
ENDBRANCH  18  19
ENDBRANCH  13  18
TORSDOF 5
