REMARK  Name = ZINC01445557
REMARK  8 active torsions:
REMARK  status: ('A' for Active; 'I' for Inactive)
REMARK    1  A    between atoms: C_1  and  C_2
REMARK    2  A    between atoms: C_2  and  O_3
REMARK    3  A    between atoms: O_3  and  C_4
REMARK    4  A    between atoms: C_4  and  C_6
REMARK    5  A    between atoms: C_7  and  N_37
REMARK    6  A    between atoms: N_8  and  C_27
REMARK    7  A    between atoms: C_11  and  C_13
REMARK    8  A    between atoms: C_32  and  C_33
REMARK                            x       y       z     vdW  Elec       q    Type
REMARK                         _______ _______ _______ _____ _____    ______ ____
ROOT
ATOM      1  C   UNL     1      -0.689   1.900   3.944  0.00  0.00    +0.084 C 
ATOM      2  C   UNL     1      -0.310   1.193   5.044  0.00  0.00    +0.103 C 
ATOM      3  N   UNL     1      -0.890   1.451   6.262  0.00  0.00    -0.260 N 
ATOM      4  C   UNL     1      -2.100   2.092   6.335  0.00  0.00    +0.024 C 
ATOM      5  C   UNL     1      -2.556   2.821   5.295  0.00  0.00    +0.025 C 
ATOM      6  C   UNL     1      -1.743   2.964   4.033  0.00  0.00    +0.094 C 
ATOM      7  C   UNL     1      -3.804   3.467   5.354  0.00  0.00    +0.162 C 
ATOM      8  O   UNL     1      -4.181   4.124   4.404  0.00  0.00    -0.292 OA
ATOM      9  C   UNL     1      -4.680   3.361   6.572  0.00  0.00    +0.080 C 
ATOM     10  C   UNL     1      -4.399   2.028   7.274  0.00  0.00    +0.014 C 
ATOM     11  C   UNL     1      -2.906   1.959   7.604  0.00  0.00    +0.052 C 
ENDROOT
BRANCH   6  12
ATOM     12  C   UNL     1      -1.081   4.318   4.025  0.00  0.00    -0.031 A 
ATOM     13  C   UNL     1      -0.117   4.620   4.969  0.00  0.00    +0.008 A 
ATOM     14  C   UNL     1       0.494   5.860   4.966  0.00  0.00    +0.050 A 
ATOM     15  C   UNL     1       0.142   6.803   4.014  0.00  0.00    +0.166 A 
ATOM     16  C   UNL     1      -0.828   6.499   3.062  0.00  0.00    +0.167 A 
ATOM     17  C   UNL     1      -1.433   5.252   3.069  0.00  0.00    +0.054 A 
ATOM     18  O   UNL     1      -0.994   7.581   2.246  0.00  0.00    -0.453 OA
ATOM     19  C   UNL     1       0.172   8.400   2.453  0.00  0.00    +0.466 C 
ATOM     20  O   UNL     1       0.585   8.076   3.794  0.00  0.00    -0.453 OA
ENDBRANCH   6  12
BRANCH   3  21
ATOM     21  C   UNL     1      -0.245   1.051   7.439  0.00  0.00    +0.051 A 
ATOM     22  C   UNL     1       0.549   1.952   8.137  0.00  0.00    +0.024 A 
ATOM     23  C   UNL     1       1.184   1.555   9.297  0.00  0.00    +0.002 A 
ATOM     24  C   UNL     1       1.030   0.262   9.764  0.00  0.00    +0.001 A 
ATOM     25  C   UNL     1       0.240  -0.637   9.071  0.00  0.00    +0.014 A 
ATOM     26  C   UNL     1      -0.402  -0.244   7.913  0.00  0.00    +0.076 A 
BRANCH  26  27
ATOM     27  C   UNL     1      -1.268  -1.222   7.162  0.00  0.00    +0.419 C 
ATOM     28  F   UNL     1      -1.242  -2.462   7.810  0.00  0.00    -0.166 F 
ATOM     29  F   UNL     1      -2.583  -0.746   7.121  0.00  0.00    -0.166 F 
ATOM     30  F   UNL     1      -0.784  -1.368   5.857  0.00  0.00    -0.166 F 
ENDBRANCH  26  27
ENDBRANCH   3  21
BRANCH   2  31
ATOM     31  N   UNL     1       0.656   0.227   4.936  0.00  0.00    -0.346 N 
ATOM     32  H   UNL     1       1.278   0.079   5.667  0.00  0.00    +0.143 HD
ATOM     33  H   UNL     1       0.719  -0.310   4.130  0.00  0.00    +0.143 HD
ENDBRANCH   2  31
BRANCH   1  34
ATOM     34  C   UNL     1      -0.090   1.625   2.706  0.00  0.00    +0.339 C 
ATOM     35  O   UNL     1       0.838   0.838   2.641  0.00  0.00    -0.245 OA
BRANCH  34  36
ATOM     36  O   UNL     1      -0.541   2.232   1.587  0.00  0.00    -0.462 OA
BRANCH  36  38
ATOM     37  C   UNL     1      -0.527   2.685  -0.787  0.00  0.00    +0.048 C 
ATOM     38  C   UNL     1       0.117   1.905   0.361  0.00  0.00    +0.229 C 
ENDBRANCH  36  38
ENDBRANCH  34  36
ENDBRANCH   1  34
TORSDOF 7
