REMARK  Name = ZINC11898843
REMARK  8 active torsions:
REMARK  status: ('A' for Active; 'I' for Inactive)
REMARK    1  A    between atoms: C_1  and  C_2
REMARK    2  A    between atoms: C_7  and  N_8
REMARK    3  A    between atoms: C_9  and  C_11
REMARK    4  A    between atoms: N_13  and  C_14
REMARK    5  A    between atoms: C_14  and  C_15
REMARK    6  A    between atoms: C_15  and  C_17
REMARK    7  A    between atoms: C_15  and  N_58
REMARK    8  A    between atoms: N_21  and  C_22
REMARK                            x       y       z     vdW  Elec       q    Type
REMARK                         _______ _______ _______ _____ _____    ______ ____
ROOT
ATOM      1  C   UNL     1      -2.266  -1.753   1.006  0.00  0.00    +0.095 C 
ENDROOT
BRANCH   1   4
ATOM      2  C   UNL     1      -3.563  -0.936  -0.888  0.00  0.00    +0.299 C 
ATOM      3  O   UNL     1      -4.571  -1.114  -0.237  0.00  0.00    -0.265 OA
ATOM      4  N   UNL     1      -2.358  -1.225  -0.357  0.00  0.00    -0.309 N 
ATOM      5  H   UNL     1      -1.552  -1.083  -0.878  0.00  0.00    +0.149 HD
BRANCH   2   7
ATOM      6  N   UNL     1      -4.861  -0.109  -2.809  0.00  0.00    -0.278 N 
ATOM      7  C   UNL     1      -3.657  -0.398  -2.278  0.00  0.00    +0.303 C 
ATOM      8  O   UNL     1      -2.648  -0.220  -2.929  0.00  0.00    -0.265 OA
ATOM      9  H   UNL     1      -5.662  -0.194  -2.268  0.00  0.00    +0.155 HD
BRANCH   6  16
ATOM     10  C   UNL     1      -7.282  -0.626  -4.212  0.00  0.00    +0.045 C 
ATOM     11  C   UNL     1      -6.120   0.082  -4.860  0.00  0.00    -0.029 A 
ATOM     12  C   UNL     1      -6.210   0.500  -6.173  0.00  0.00    +0.005 A 
ATOM     13  C   UNL     1      -5.145   1.150  -6.768  0.00  0.00    +0.000 A 
ATOM     14  C   UNL     1      -3.985   1.383  -6.051  0.00  0.00    +0.002 A 
ATOM     15  C   UNL     1      -3.889   0.971  -4.737  0.00  0.00    +0.023 A 
ATOM     16  C   UNL     1      -4.956   0.313  -4.137  0.00  0.00    +0.037 A 
ENDBRANCH   6  16
ENDBRANCH   2   7
ENDBRANCH   1   4
BRANCH   1  17
ATOM     17  C   UNL     1      -0.794  -1.876   1.407  0.00  0.00    -0.003 C 
BRANCH  17  24
ATOM     18  C   UNL     1       1.290  -0.652   1.632  0.00  0.00    -0.078 C 
ATOM     19  C   UNL     1       2.076   0.323   0.792  0.00  0.00    -0.019 C 
ATOM     20  C   UNL     1       2.237   1.679   1.500  0.00  0.00    -0.002 C 
ATOM     21  C   UNL     1       0.942   2.114   2.213  0.00  0.00    -0.002 C 
ATOM     22  C   UNL     1      -0.293   1.839   1.393  0.00  0.00    -0.019 C 
ATOM     23  C   UNL     1      -0.858   0.456   1.783  0.00  0.00    -0.078 C 
ATOM     24  N   UNL     1      -0.127  -0.587   1.153  0.00  0.00    +0.386 N 
ATOM     25  H   UNL     1      -0.119  -0.409   0.142  0.00  0.00    -0.081 HD
ENDBRANCH  17  24
BRANCH  17  26
ATOM     26  C   UNL     1      -0.701  -2.273   2.858  0.00  0.00    +0.006 A 
ATOM     27  C   UNL     1      -1.278  -1.628   3.893  0.00  0.00    +0.021 A 
ATOM     28  C   UNL     1      -0.939  -2.328   5.067  0.00  0.00    +0.019 A 
ATOM     29  C   UNL     1      -0.167  -3.373   4.706  0.00  0.00    +0.085 A 
ATOM     30  N   UNL     1      -0.022  -3.348   3.351  0.00  0.00    -0.355 N 
ATOM     31  C   UNL     1       0.739  -4.314   2.555  0.00  0.00    +0.148 C 
ENDBRANCH  17  26
ENDBRANCH   1  17
TORSDOF 6
