REMARK  Name = ZINC24630745
REMARK  8 active torsions:
REMARK  status: ('A' for Active; 'I' for Inactive)
REMARK    1  A    between atoms: C_1  and  C_2
REMARK    2  A    between atoms: C_2  and  C_4
REMARK    3  A    between atoms: C_2  and  N_12
REMARK    4  A    between atoms: C_13  and  C_15
REMARK    5  A    between atoms: C_15  and  C_17
REMARK    6  A    between atoms: C_15  and  N_28
REMARK    7  A    between atoms: C_17  and  C_18
REMARK    8  A    between atoms: C_29  and  C_31
REMARK                            x       y       z     vdW  Elec       q    Type
REMARK                         _______ _______ _______ _____ _____    ______ ____
ROOT
ATOM      1  C   UNL     1       4.174   0.620   1.404  0.00  0.00    +0.163 C 
ENDROOT
BRANCH   1   3
ATOM      2  N   UNL     1       6.191  -0.810   1.328  0.00  0.00    -0.307 N 
ATOM      3  C   UNL     1       5.669   0.430   1.402  0.00  0.00    +0.234 C 
ATOM      4  O   UNL     1       6.402   1.394   1.467  0.00  0.00    -0.274 OA
ATOM      5  H   UNL     1       5.526  -1.684   1.269  0.00  0.00    +0.149 HD
BRANCH   2   7
ATOM      6  C   UNL     1       8.175  -0.845  -0.101  0.00  0.00    +0.033 C 
ATOM      7  C   UNL     1       7.644  -0.995   1.326  0.00  0.00    +0.100 C 
BRANCH   7   8
ATOM      8  C   UNL     1       7.977  -2.370   1.844  0.00  0.00    -0.025 A 
ATOM      9  C   UNL     1       9.059  -2.548   2.685  0.00  0.00    +0.008 A 
ATOM     10  C   UNL     1       9.366  -3.808   3.162  0.00  0.00    +0.041 A 
ATOM     11  C   UNL     1       8.589  -4.894   2.797  0.00  0.00    +0.158 A 
ATOM     12  C   UNL     1       7.504  -4.716   1.953  0.00  0.00    +0.159 A 
ATOM     13  C   UNL     1       7.196  -3.451   1.482  0.00  0.00    +0.046 A 
ATOM     14  F   UNL     1       6.744  -5.774   1.596  0.00  0.00    -0.202 F 
ATOM     15  F   UNL     1       8.888  -6.127   3.263  0.00  0.00    -0.202 F 
ENDBRANCH   7   8
ENDBRANCH   2   7
ENDBRANCH   1   3
BRANCH   1  16
ATOM     16  N   UNL     1       3.849   1.937   1.957  0.00  0.00    -0.299 N 
ATOM     17  C   UNL     1       4.318   3.052   1.363  0.00  0.00    +0.251 C 
ATOM     18  O   UNL     1       5.011   2.964   0.366  0.00  0.00    -0.270 OA
ATOM     19  H   UNL     1       3.223   2.016   2.858  0.00  0.00    +0.150 HD
BRANCH  17  20
ATOM     20  C   UNL     1       3.993   4.370   1.916  0.00  0.00    +0.074 A 
ATOM     21  C   UNL     1       4.370   5.624   1.464  0.00  0.00    +0.021 A 
ATOM     22  C   UNL     1       3.921   6.707   2.178  0.00  0.00    +0.008 A 
ATOM     23  C   UNL     1       3.144   6.503   3.274  0.00  0.00    +0.046 A 
ATOM     24  S   UNL     1       3.004   4.777   3.344  0.00  0.00    -0.092 S 
ENDBRANCH  17  20
ENDBRANCH   1  16
BRANCH   1  25
ATOM     25  C   UNL     1       3.646   0.524  -0.029  0.00  0.00    +0.069 C 
BRANCH  25  26
ATOM     26  C   UNL     1       2.140   0.591  -0.015  0.00  0.00    -0.020 A 
ATOM     27  C   UNL     1       1.295  -0.452  -0.013  0.00  0.00    +0.087 A 
ATOM     28  N   UNL     1       0.002  -0.004   0.002  0.00  0.00    -0.360 N 
ATOM     29  H   UNL     1      -0.829  -0.724   0.006  0.00  0.00    +0.165 HD
ATOM     30  C   UNL     1      -0.017   1.373   0.010  0.00  0.00    +0.047 A 
ATOM     31  C   UNL     1       1.322   1.806  -0.001  0.00  0.00    +0.003 A 
ATOM     32  C   UNL     1       1.612   3.171   0.004  0.00  0.00    +0.010 A 
ATOM     33  C   UNL     1       0.593   4.082   0.019  0.00  0.00    +0.001 A 
ATOM     34  C   UNL     1      -0.729   3.659   0.029  0.00  0.00    +0.002 A 
ATOM     35  C   UNL     1      -1.038   2.317   0.029  0.00  0.00    +0.026 A 
ENDBRANCH  25  26
ENDBRANCH   1  25
TORSDOF 7
