REMARK  Name = ZINC67300583
REMARK  4 active torsions:
REMARK  status: ('A' for Active; 'I' for Inactive)
REMARK    1  A    between atoms: C_4  and  C_7
REMARK    2  A    between atoms: C_7  and  C_8
REMARK    3  A    between atoms: C_14  and  N_16
REMARK    4  A    between atoms: C_17  and  C_19
REMARK                            x       y       z     vdW  Elec       q    Type
REMARK                         _______ _______ _______ _____ _____    ______ ____
ROOT
ATOM      1  N   UNL     1       6.495  -1.111   0.651  0.00  0.00    -0.312 N 
ATOM      2  C   UNL     1       7.493  -1.806   0.070  0.00  0.00    +0.216 C 
ATOM      3  O   UNL     1       7.519  -3.016   0.154  0.00  0.00    -0.276 OA
ATOM      4  H   UNL     1       6.475  -0.144   0.584  0.00  0.00    +0.149 HD
ENDROOT
BRANCH   2   5
ATOM      5  C   UNL     1       8.578  -1.080  -0.683  0.00  0.00    +0.075 C 
ATOM      6  C   UNL     1       9.297  -0.116   0.263  0.00  0.00    +0.015 C 
ATOM      7  C   UNL     1      10.392   0.629  -0.505  0.00  0.00    +0.036 C 
ATOM      8  C   UNL     1      11.382  -0.376  -1.084  0.00  0.00    +0.112 C 
ATOM      9  C   UNL     1      10.675  -1.357  -2.013  0.00  0.00    +0.036 C 
ATOM     10  C   UNL     1       9.579  -2.095  -1.239  0.00  0.00    +0.015 C 
ATOM     11  C   UNL     1      12.492   0.340  -1.819  0.00  0.00    +0.244 C 
ATOM     12  O   UNL     1      12.385   1.060  -2.788  0.00  0.00    -0.273 OA
ATOM     13  N   UNL     1      13.627   0.008  -1.169  0.00  0.00    -0.238 N 
ATOM     14  C   UNL     1      13.383  -0.810  -0.138  0.00  0.00    +0.307 C 
ATOM     15  O   UNL     1      14.247  -1.246   0.598  0.00  0.00    -0.252 OA
ATOM     16  N   UNL     1      12.074  -1.096  -0.007  0.00  0.00    -0.285 N 
ATOM     17  H   UNL     1      14.510   0.322  -1.418  0.00  0.00    +0.159 HD
ATOM     18  H   UNL     1      11.667  -1.664   0.666  0.00  0.00    +0.151 HD
ENDBRANCH   2   5
BRANCH   1  24
ATOM     19  C   UNL     1       4.171  -0.963   1.399  0.00  0.00    +0.014 C 
ATOM     20  C   UNL     1       4.463   0.372   2.087  0.00  0.00    +0.005 C 
ATOM     21  C   UNL     1       4.924   0.116   3.523  0.00  0.00    +0.000 C 
ATOM     22  C   UNL     1       6.193  -0.738   3.507  0.00  0.00    +0.002 C 
ATOM     23  C   UNL     1       5.901  -2.074   2.820  0.00  0.00    +0.022 C 
ATOM     24  C   UNL     1       5.441  -1.817   1.383  0.00  0.00    +0.076 C 
BRANCH  19  25
ATOM     25  C   UNL     1       3.711  -0.707  -0.038  0.00  0.00    +0.040 C 
BRANCH  25  29
ATOM     26  C   UNL     1      -0.017   1.378   0.010  0.00  0.00    +0.000 A 
ATOM     27  C   UNL     1       1.171   2.086   0.002  0.00  0.00    +0.000 A 
ATOM     28  C   UNL     1       2.377   1.411  -0.013  0.00  0.00    +0.003 A 
ATOM     29  C   UNL     1       2.396   0.029  -0.020  0.00  0.00    -0.047 A 
ATOM     30  C   UNL     1       1.208  -0.679  -0.012  0.00  0.00    +0.003 A 
ATOM     31  C   UNL     1       0.002  -0.004   0.002  0.00  0.00    +0.000 A 
ENDBRANCH  25  29
ENDBRANCH  19  25
ENDBRANCH   1  24
TORSDOF 4
