REMARK  Name = ZINC25040762
REMARK  6 active torsions:
REMARK  status: ('A' for Active; 'I' for Inactive)
REMARK    1  A    between atoms: C_6  and  N_7
REMARK    2  A    between atoms: C_8  and  C_10
REMARK    3  A    between atoms: C_10  and  S_11
REMARK    4  A    between atoms: S_11  and  C_12
REMARK    5  A    between atoms: C_15  and  C_18
REMARK    6  A    between atoms: N_16  and  N_17
REMARK                            x       y       z     vdW  Elec       q    Type
REMARK                         _______ _______ _______ _____ _____    ______ ____
ROOT
ATOM      1  N   UNL     1      -2.428   1.039   0.021  0.00  0.00    -0.285 N 
ATOM      2  C   UNL     1      -2.464  -0.217   0.509  0.00  0.00    +0.227 C 
ATOM      3  O   UNL     1      -1.477  -0.694   1.028  0.00  0.00    -0.275 OA
ATOM      4  H   UNL     1      -3.346   1.503  -0.371  0.00  0.00    +0.155 HD
ENDROOT
BRANCH   1  10
ATOM      5  C   UNL     1      -1.230   3.128   0.197  0.00  0.00    +0.027 A 
ATOM      6  C   UNL     1      -0.043   3.836   0.184  0.00  0.00    +0.051 A 
ATOM      7  C   UNL     1       1.156   3.174  -0.008  0.00  0.00    +0.167 A 
ATOM      8  C   UNL     1       1.167   1.790  -0.189  0.00  0.00    +0.169 A 
ATOM      9  C   UNL     1      -0.021   1.083  -0.176  0.00  0.00    +0.072 A 
ATOM     10  C   UNL     1      -1.223   1.753   0.012  0.00  0.00    +0.037 A 
ATOM     11  O   UNL     1       2.467   1.389  -0.355  0.00  0.00    -0.447 OA
ATOM     12  C   UNL     1       3.232   2.455   0.225  0.00  0.00    +0.254 C 
ATOM     13  O   UNL     1       2.451   3.624  -0.061  0.00  0.00    -0.448 OA
ATOM     14  C   UNL     1       4.625   2.548  -0.406  0.00  0.00    +0.093 C 
ATOM     15  C   UNL     1       5.538   2.990   0.768  0.00  0.00    +0.008 C 
ATOM     16  C   UNL     1       4.940   2.227   1.977  0.00  0.00    +0.008 C 
ATOM     17  C   UNL     1       3.415   2.259   1.730  0.00  0.00    +0.093 C 
ENDBRANCH   1  10
BRANCH   2  18
ATOM     18  C   UNL     1      -3.730  -1.028   0.410  0.00  0.00    +0.173 C 
BRANCH  18  19
ATOM     19  S   UNL     1      -3.462  -2.659   1.149  0.00  0.00    -0.075 S 
BRANCH  19  20
ATOM     20  C   UNL     1      -5.054  -3.372   0.903  0.00  0.00    +0.209 A 
ATOM     21  N   UNL     1      -6.088  -2.796   0.336  0.00  0.00    -0.121 NA
ATOM     22  N   UNL     1      -7.086  -3.606   0.321  0.00  0.00    -0.123 NA
ATOM     23  C   UNL     1      -6.753  -4.735   0.881  0.00  0.00    +0.255 A 
ATOM     24  N   UNL     1      -5.447  -4.626   1.272  0.00  0.00    -0.220 N 
BRANCH  23  25
ATOM     25  C   UNL     1      -7.643  -5.937   1.064  0.00  0.00    +0.454 C 
ATOM     26  F   UNL     1      -8.775  -5.808   0.252  0.00  0.00    -0.163 F 
ATOM     27  F   UNL     1      -6.943  -7.095   0.706  0.00  0.00    -0.163 F 
ATOM     28  F   UNL     1      -8.038  -6.026   2.403  0.00  0.00    -0.163 F 
ENDBRANCH  23  25
BRANCH  24  29
ATOM     29  N   UNL     1      -4.693  -5.576   1.900  0.00  0.00    -0.295 N 
ATOM     30  H   UNL     1      -5.132  -6.555   2.144  0.00  0.00    +0.163 HD
ATOM     31  H   UNL     1      -3.646  -5.362   2.163  0.00  0.00    +0.163 HD
ENDBRANCH  24  29
ENDBRANCH  19  20
ENDBRANCH  18  19
ENDBRANCH   2  18
TORSDOF 6
