REMARK  Name = ZINC64045375
REMARK  8 active torsions:
REMARK  status: ('A' for Active; 'I' for Inactive)
REMARK    1  A    between atoms: C_1  and  C_2
REMARK    2  A    between atoms: C_7  and  C_13
REMARK    3  A    between atoms: C_9  and  C_12
REMARK    4  A    between atoms: C_13  and  N_14
REMARK    5  A    between atoms: C_17  and  C_20
REMARK    6  A    between atoms: C_17  and  C_28
REMARK    7  A    between atoms: C_20  and  C_21
REMARK    8  A    between atoms: C_28  and  O_29
REMARK                            x       y       z     vdW  Elec       q    Type
REMARK                         _______ _______ _______ _____ _____    ______ ____
ROOT
ATOM      1  N   UNL     1       1.308  -6.403   0.892  0.00  0.00    +0.381 N 
ATOM      2  C   UNL     1       1.872  -6.018  -0.408  0.00  0.00    -0.078 C 
ATOM      3  C   UNL     1       2.071  -7.265  -1.271  0.00  0.00    -0.010 C 
ATOM      4  C   UNL     1       3.030  -8.224  -0.560  0.00  0.00    -0.007 C 
ATOM      5  C   UNL     1       2.468  -8.560   0.824  0.00  0.00    -0.010 C 
ATOM      6  C   UNL     1       2.254  -7.265   1.610  0.00  0.00    -0.078 C 
ATOM      7  H   UNL     1       0.443  -6.902   0.746  0.00  0.00    -0.082 HD
ENDROOT
BRANCH   1   8
ATOM      8  C   UNL     1       1.046  -5.196   1.687  0.00  0.00    -0.050 C 
BRANCH   8  15
ATOM      9  C   UNL     1      -4.922  -3.160   4.864  0.00  0.00    +0.044 C 
ATOM     10  C   UNL     1      -3.842  -4.033   4.279  0.00  0.00    -0.050 A 
ATOM     11  C   UNL     1      -4.199  -5.246   3.673  0.00  0.00    +0.005 A 
ATOM     12  C   UNL     1      -3.292  -6.082   3.126  0.00  0.00    +0.026 A 
ATOM     13  C   UNL     1      -1.908  -5.754   3.146  0.00  0.00    +0.043 A 
ATOM     14  N   UNL     1      -0.854  -6.388   2.691  0.00  0.00    -0.379 N 
ATOM     15  C   UNL     1       0.338  -5.585   2.986  0.00  0.00    +0.089 C 
ATOM     16  C   UNL     1      -0.161  -4.348   3.700  0.00  0.00    -0.043 C 
ATOM     17  C   UNL     1      -1.505  -4.479   3.780  0.00  0.00    -0.001 A 
ATOM     18  C   UNL     1      -2.555  -3.624   4.346  0.00  0.00    +0.013 A 
ATOM     19  C   UNL     1       0.670  -3.203   4.218  0.00  0.00    +0.042 C 
ATOM     20  H   UNL     1      -0.861  -7.245   2.237  0.00  0.00    +0.160 HD
ENDBRANCH   8  15
ENDBRANCH   1   8
BRANCH   4  21
ATOM     21  C   UNL     1       3.172  -9.508  -1.380  0.00  0.00    +0.040 C 
BRANCH  21  22
ATOM     22  C   UNL     1       4.237 -10.404  -0.745  0.00  0.00    +0.119 C 
ATOM     23  C   UNL     1       4.501 -11.607  -1.655  0.00  0.00    +0.032 C 
ATOM     24  C   UNL     1       5.523 -12.530  -0.984  0.00  0.00    +0.005 C 
ATOM     25  C   UNL     1       4.993 -12.947   0.391  0.00  0.00    +0.028 C 
ATOM     26  C   UNL     1       4.710 -11.692   1.222  0.00  0.00    +0.160 C 
ATOM     27  O   UNL     1       3.776 -10.863   0.528  0.00  0.00    -0.377 OA
ENDBRANCH  21  22
ENDBRANCH   4  21
BRANCH   4  28
ATOM     28  C   UNL     1       4.399  -7.559  -0.408  0.00  0.00    +0.162 C 
BRANCH  28  29
ATOM     29  O   UNL     1       4.970  -7.341  -1.701  0.00  0.00    -0.394 OA
ATOM     30  H   UNL     1       5.840  -6.921  -1.681  0.00  0.00    +0.209 HD
ENDBRANCH  28  29
ENDBRANCH   4  28
TORSDOF 6
