REMARK  Name = ZINC61411081
REMARK  7 active torsions:
REMARK  status: ('A' for Active; 'I' for Inactive)
REMARK    1  A    between atoms: C_1  and  C_2
REMARK    2  A    between atoms: C_3  and  N_12
REMARK    3  A    between atoms: C_7  and  S_8
REMARK    4  A    between atoms: S_8  and  N_11
REMARK    5  A    between atoms: C_13  and  C_15
REMARK    6  A    between atoms: C_16  and  C_17
REMARK    7  A    between atoms: N_26  and  C_27
REMARK                            x       y       z     vdW  Elec       q    Type
REMARK                         _______ _______ _______ _____ _____    ______ ____
ROOT
ATOM      1  N   UNL     1      -0.012   0.010  -2.413  0.00  0.00    -0.282 N 
ATOM      2  C   UNL     1       0.094  -0.654  -3.581  0.00  0.00    +0.241 C 
ATOM      3  O   UNL     1       0.111  -1.871  -3.589  0.00  0.00    -0.270 OA
ATOM      4  H   UNL     1      -0.106   0.976  -2.411  0.00  0.00    +0.155 HD
ENDROOT
BRANCH   1   7
ATOM      5  C   UNL     1      -1.266   1.189  -0.146  0.00  0.00    +0.048 C 
ATOM      6  C   UNL     1      -0.585  -0.154  -0.073  0.00  0.00    -0.003 A 
ATOM      7  C   UNL     1       0.015  -0.692  -1.204  0.00  0.00    +0.038 A 
ATOM      8  C   UNL     1       0.642  -1.929  -1.132  0.00  0.00    +0.024 A 
ATOM      9  C   UNL     1       0.666  -2.621   0.064  0.00  0.00    +0.004 A 
ATOM     10  C   UNL     1       0.068  -2.082   1.188  0.00  0.00    +0.029 A 
ATOM     11  C   UNL     1      -0.553  -0.848   1.120  0.00  0.00    +0.110 A 
BRANCH  11  12
ATOM     12  S   UNL     1      -1.308  -0.163   2.558  0.00  0.00    +0.056 S 
ATOM     13  O   UNL     1      -2.611   0.254   2.172  0.00  0.00    -0.153 OA
ATOM     14  O   UNL     1      -1.085  -1.088   3.613  0.00  0.00    -0.153 OA
BRANCH  12  15
ATOM     15  N   UNL     1      -0.467   1.210   2.946  0.00  0.00    -0.204 NA
ATOM     16  H   UNL     1      -0.919   1.947   3.385  0.00  0.00    +0.144 HD
ATOM     17  H   UNL     1       0.477   1.276   2.734  0.00  0.00    +0.144 HD
ENDBRANCH  12  15
ENDBRANCH  11  12
ENDBRANCH   1   7
BRANCH   2  18
ATOM     18  C   UNL     1       0.187   0.087  -4.837  0.00  0.00    +0.068 C 
ATOM     19  C   UNL     1       0.293  -0.579  -6.008  0.00  0.00    +0.013 C 
BRANCH  19  20
ATOM     20  C   UNL     1       0.387   0.166  -7.271  0.00  0.00    -0.025 A 
ATOM     21  C   UNL     1       0.373   1.566  -7.263  0.00  0.00    +0.010 A 
ATOM     22  C   UNL     1       0.458   2.253  -8.439  0.00  0.00    +0.024 A 
ATOM     23  C   UNL     1       0.561   1.569  -9.650  0.00  0.00    +0.033 A 
ATOM     24  C   UNL     1       0.579   0.179  -9.670  0.00  0.00    -0.026 A 
ATOM     25  C   UNL     1       0.497  -0.522  -8.484  0.00  0.00    +0.013 A 
ATOM     26  C   UNL     1       0.699  -0.588 -10.960  0.00  0.00    +0.038 C 
ATOM     27  C   UNL     1       0.286   0.288 -12.143  0.00  0.00    +0.024 C 
ATOM     28  C   UNL     1       1.051   1.616 -12.067  0.00  0.00    +0.105 C 
ATOM     29  N   UNL     1       0.641   2.300 -10.834  0.00  0.00    -0.333 N 
ATOM     30  C   UNL     1       0.324   3.731 -10.847  0.00  0.00    +0.129 C 
ENDBRANCH  19  20
ENDBRANCH   2  18
TORSDOF 5
