REMARK  Name = ZINC01883373
REMARK  7 active torsions:
REMARK  status: ('A' for Active; 'I' for Inactive)
REMARK    1  A    between atoms: C_1  and  C_2
REMARK    2  A    between atoms: C_3  and  C_12
REMARK    3  A    between atoms: N_13  and  N_14
REMARK    4  A    between atoms: C_15  and  C_17
REMARK    5  A    between atoms: C_17  and  N_18
REMARK    6  A    between atoms: C_19  and  C_21
REMARK    7  A    between atoms: C_21  and  C_22
REMARK                            x       y       z     vdW  Elec       q    Type
REMARK                         _______ _______ _______ _____ _____    ______ ____
ROOT
ATOM      1  N   UNL     1      -0.037   1.400  -4.100  0.00  0.00    -0.206 N 
ATOM      2  C   UNL     1      -0.057   2.721  -4.370  0.00  0.00    +0.249 C 
ATOM      3  O   UNL     1      -0.063   3.525  -3.461  0.00  0.00    -0.272 OA
ATOM      4  H   UNL     1      -0.032   0.757  -4.826  0.00  0.00    +0.177 HD
ENDROOT
BRANCH   1   6
ATOM      5  C   UNL     1      -0.006  -0.316  -2.511  0.00  0.00    +0.140 C 
ATOM      6  N   UNL     1      -0.025   0.957  -2.771  0.00  0.00    -0.188 NA
BRANCH   5   9
ATOM      7  C   UNL     1      -0.018   1.503   0.010  0.00  0.00    +0.064 C 
ATOM      8  C   UNL     1       0.002  -0.004   0.002  0.00  0.00    +0.023 A 
ATOM      9  C   UNL     1       0.007  -0.781  -1.115  0.00  0.00    +0.023 A 
ATOM     10  C   UNL     1       0.030  -2.180  -0.653  0.00  0.00    +0.009 A 
ATOM     11  C   UNL     1       0.043  -3.413  -1.303  0.00  0.00    +0.010 A 
ATOM     12  C   UNL     1       0.063  -4.574  -0.563  0.00  0.00    +0.001 A 
ATOM     13  C   UNL     1       0.069  -4.521   0.824  0.00  0.00    +0.002 A 
ATOM     14  C   UNL     1       0.055  -3.310   1.480  0.00  0.00    +0.026 A 
ATOM     15  C   UNL     1       0.036  -2.125   0.750  0.00  0.00    +0.047 A 
ATOM     16  N   UNL     1       0.024  -0.795   1.112  0.00  0.00    -0.358 N 
ATOM     17  H   UNL     1       0.028  -0.468   2.025  0.00  0.00    +0.166 HD
ENDBRANCH   5   9
ENDBRANCH   1   6
BRANCH   2  18
ATOM     18  C   UNL     1      -0.071   3.197  -5.799  0.00  0.00    +0.201 C 
BRANCH  18  19
ATOM     19  N   UNL     1      -0.091   4.662  -5.825  0.00  0.00    -0.306 N 
ATOM     20  C   UNL     1      -0.106   5.315  -7.004  0.00  0.00    +0.218 C 
ATOM     21  O   UNL     1      -0.103   4.690  -8.043  0.00  0.00    -0.275 OA
ATOM     22  H   UNL     1      -0.094   5.162  -4.994  0.00  0.00    +0.149 HD
BRANCH  20  23
ATOM     23  C   UNL     1      -0.127   6.822  -7.031  0.00  0.00    +0.130 C 
BRANCH  23  24
ATOM     24  C   UNL     1      -0.141   7.298  -8.460  0.00  0.00    -0.039 A 
ATOM     25  C   UNL     1       1.050   7.528  -9.124  0.00  0.00    +0.004 A 
ATOM     26  C   UNL     1       1.038   7.966 -10.435  0.00  0.00    +0.000 A 
ATOM     27  C   UNL     1      -0.166   8.173 -11.083  0.00  0.00    +0.000 A 
ATOM     28  C   UNL     1      -1.357   7.942 -10.420  0.00  0.00    +0.000 A 
ATOM     29  C   UNL     1      -1.344   7.501  -9.110  0.00  0.00    +0.004 A 
ENDBRANCH  23  24
ENDBRANCH  20  23
ENDBRANCH  18  19
ENDBRANCH   2  18
TORSDOF 6
