REMARK  Name = ZINC60530469
REMARK  3 active torsions:
REMARK  status: ('A' for Active; 'I' for Inactive)
REMARK    1  A    between atoms: C_2  and  C_12
REMARK    2  A    between atoms: C_13  and  C_14
REMARK    3  A    between atoms: C_20  and  C_22
REMARK                            x       y       z     vdW  Elec       q    Type
REMARK                         _______ _______ _______ _____ _____    ______ ____
ROOT
ATOM      1  C   UNL     1       1.170   3.563   0.016  0.00  0.00    +0.013 C 
ATOM      2  C   UNL     1       2.332   4.251   0.005  0.00  0.00    +0.068 C 
ENDROOT
BRANCH   1   4
ATOM      3  C   UNL     1      -0.017   1.379   0.021  0.00  0.00    +0.057 A 
ATOM      4  C   UNL     1       1.185   2.094   0.010  0.00  0.00    -0.020 A 
ATOM      5  C   UNL     1       2.403   1.404  -0.006  0.00  0.00    +0.031 A 
ATOM      6  C   UNL     1       2.413   0.026  -0.013  0.00  0.00    +0.087 A 
ATOM      7  C   UNL     1       1.217  -0.684  -0.003  0.00  0.00    +0.180 A 
ATOM      8  C   UNL     1       0.001  -0.004   0.016  0.00  0.00    +0.164 A 
ATOM      9  O   UNL     1      -1.177  -0.685   0.034  0.00  0.00    -0.485 OA
ATOM     10  C   UNL     1      -1.129  -2.064  -0.347  0.00  0.00    +0.270 C 
ATOM     11  C   UNL     1       0.053  -2.722   0.377  0.00  0.00    +0.270 C 
ATOM     12  O   UNL     1       1.252  -2.043  -0.013  0.00  0.00    -0.483 OA
ATOM     13 CL   UNL     1       3.925  -0.827  -0.035  0.00  0.00    -0.080 Cl
ENDBRANCH   1   4
BRANCH   2  14
ATOM     14  C   UNL     1       2.316   5.713   0.010  0.00  0.00    +0.239 C 
ATOM     15  O   UNL     1       1.259   6.311  -0.070  0.00  0.00    -0.271 OA
ATOM     16  N   UNL     1       3.472   6.399   0.105  0.00  0.00    -0.297 N 
ATOM     17  C   UNL     1       4.763   5.697   0.084  0.00  0.00    +0.108 C 
ATOM     18  C   UNL     1       5.571   6.115   1.317  0.00  0.00    +0.020 C 
ATOM     19  C   UNL     1       5.686   7.640   1.354  0.00  0.00    +0.016 C 
ATOM     20  C   UNL     1       4.289   8.256   1.461  0.00  0.00    +0.092 C 
ATOM     21  C   UNL     1       3.466   7.864   0.224  0.00  0.00    +0.120 C 
BRANCH  20  22
ATOM     22  C   UNL     1       4.405   9.757   1.530  0.00  0.00    +0.215 C 
ATOM     23  O   UNL     1       5.497  10.283   1.497  0.00  0.00    -0.276 OA
ATOM     24  N   UNL     1       3.295  10.515   1.628  0.00  0.00    -0.329 N 
ATOM     25  H   UNL     1       2.421  10.095   1.654  0.00  0.00    +0.145 HD
ATOM     26  H   UNL     1       3.370  11.481   1.672  0.00  0.00    +0.145 HD
ENDBRANCH  20  22
ENDBRANCH   2  14
TORSDOF 3
