REMARK  Name = ZINC59146931
REMARK  7 active torsions:
REMARK  status: ('A' for Active; 'I' for Inactive)
REMARK    1  A    between atoms: C_1  and  C_2
REMARK    2  A    between atoms: C_7  and  C_8
REMARK    3  A    between atoms: N_9  and  C_12
REMARK    4  A    between atoms: C_12  and  C_13
REMARK    5  A    between atoms: N_15  and  N_16
REMARK    6  A    between atoms: C_17  and  C_18
REMARK    7  A    between atoms: C_27  and  O_28
REMARK                            x       y       z     vdW  Elec       q    Type
REMARK                         _______ _______ _______ _____ _____    ______ ____
ROOT
ATOM      1  C   UNL     1      -1.330  -5.568   1.040  0.00  0.00    +0.252 C 
ATOM      2  O   UNL     1      -2.260  -4.923   0.603  0.00  0.00    -0.272 OA
ATOM      3  N   UNL     1      -1.557  -6.577   1.903  0.00  0.00    -0.206 N 
ATOM      4  H   UNL     1      -0.814  -7.093   2.252  0.00  0.00    +0.177 HD
ENDROOT
BRANCH   3   5
ATOM      5  N   UNL     1      -2.867  -6.882   2.297  0.00  0.00    -0.188 NA
ATOM      6  C   UNL     1      -3.085  -7.854   3.129  0.00  0.00    +0.142 C 
BRANCH   6   7
ATOM      7  C   UNL     1      -4.462  -8.174   3.543  0.00  0.00    +0.037 A 
ATOM      8  C   UNL     1      -4.690  -9.210   4.435  0.00  0.00    +0.021 A 
ATOM      9  C   UNL     1      -6.003  -9.509   4.825  0.00  0.00    -0.017 A 
ATOM     10  C   UNL     1      -6.271 -10.553   5.730  0.00  0.00    +0.008 A 
ATOM     11  C   UNL     1      -7.556 -10.819   6.090  0.00  0.00    +0.001 A 
ATOM     12  C   UNL     1      -8.615 -10.072   5.575  0.00  0.00    +0.001 A 
ATOM     13  C   UNL     1      -8.394  -9.055   4.698  0.00  0.00    +0.008 A 
ATOM     14  C   UNL     1      -7.081  -8.749   4.302  0.00  0.00    -0.014 A 
ATOM     15  C   UNL     1      -6.823  -7.704   3.398  0.00  0.00    +0.054 A 
ATOM     16  C   UNL     1      -5.541  -7.421   3.032  0.00  0.00    +0.126 A 
BRANCH  16  17
ATOM     17  O   UNL     1      -5.300  -6.406   2.162  0.00  0.00    -0.506 OA
ATOM     18  H   UNL     1      -5.303  -6.675   1.233  0.00  0.00    +0.292 HD
ENDBRANCH  16  17
ENDBRANCH   6   7
ENDBRANCH   3   5
BRANCH   1  19
ATOM     19  C   UNL     1       0.078  -5.240   0.616  0.00  0.00    +0.220 C 
BRANCH  19  28
ATOM     20  C   UNL     1      -0.018   1.503   0.010  0.00  0.00    +0.044 C 
ATOM     21  C   UNL     1       0.002  -0.004   0.002  0.00  0.00    -0.045 A 
ATOM     22  C   UNL     1       0.006  -0.674  -1.189  0.00  0.00    +0.033 A 
ATOM     23  C   UNL     1       0.025  -2.071  -1.202  0.00  0.00    +0.089 A 
ATOM     24  C   UNL     1       0.041  -2.773   0.015  0.00  0.00    +0.069 A 
ATOM     25  C   UNL     1       0.037  -2.076   1.215  0.00  0.00    +0.031 A 
ATOM     26  C   UNL     1       0.023  -0.697   1.204  0.00  0.00    -0.045 A 
ATOM     27  C   UNL     1       0.024   0.062   2.506  0.00  0.00    +0.044 C 
ATOM     28  N   UNL     1       0.058  -4.113  -0.319  0.00  0.00    -0.321 N 
ATOM     29  C   UNL     1       0.052  -4.192  -1.677  0.00  0.00    +0.200 A 
ATOM     30  N   UNL     1       0.033  -2.998  -2.194  0.00  0.00    -0.236 NA
ENDBRANCH  19  28
ENDBRANCH   1  19
TORSDOF 5
