REMARK  Name = ZINC63648844
REMARK  11 active torsions:
REMARK  status: ('A' for Active; 'I' for Inactive)
REMARK    1  A    between atoms: C_1  and  C_2
REMARK    2  A    between atoms: C_6  and  N_8
REMARK    3  A    between atoms: C_11  and  C_28
REMARK    4  A    between atoms: N_15  and  C_16
REMARK    5  A    between atoms: N_15  and  C_21
REMARK    6  A    between atoms: C_16  and  C_17
REMARK    7  A    between atoms: C_17  and  N_18
REMARK    8  A    between atoms: N_18  and  C_19
REMARK    9  A    between atoms: N_18  and  C_20
REMARK   10  A    between atoms: C_21  and  C_22
REMARK   11  A    between atoms: C_28  and  C_29
REMARK                            x       y       z     vdW  Elec       q    Type
REMARK                         _______ _______ _______ _____ _____    ______ ____
ROOT
ATOM      1  N   UNL     1       0.280  -2.485   2.111  0.00  0.00    -0.212 N 
ATOM      2  C   UNL     1       0.465  -1.737   3.219  0.00  0.00    +0.249 C 
ATOM      3  O   UNL     1       0.585  -0.532   3.284  0.00  0.00    -0.273 OA
ATOM      4  C   UNL     1       0.490  -2.729   4.365  0.00  0.00    +0.173 C 
ATOM      5  N   UNL     1       0.300  -4.033   3.710  0.00  0.00    -0.349 N 
ATOM      6  C   UNL     1       0.182  -3.817   2.436  0.00  0.00    +0.171 C 
ATOM      7  N   UNL     1      -0.016  -4.814   1.511  0.00  0.00    -0.302 N 
ATOM      8  H   UNL     1       0.264  -4.896   4.151  0.00  0.00    +0.163 HD
ENDROOT
BRANCH   1  14
ATOM      9  C   UNL     1      -2.382  -1.641  -1.938  0.00  0.00    +0.044 C 
ATOM     10  C   UNL     1      -1.085  -1.552  -1.176  0.00  0.00    -0.049 A 
ATOM     11  C   UNL     1       0.022  -0.965  -1.762  0.00  0.00    +0.003 A 
ATOM     12  C   UNL     1       1.213  -0.881  -1.066  0.00  0.00    +0.002 A 
ATOM     13  C   UNL     1       1.302  -1.383   0.218  0.00  0.00    +0.024 A 
ATOM     14  C   UNL     1       0.193  -1.974   0.809  0.00  0.00    +0.044 A 
ATOM     15  C   UNL     1      -1.004  -2.052   0.109  0.00  0.00    +0.027 A 
ENDBRANCH   1  14
BRANCH   7  16
ATOM     16  C   UNL     1      -0.883  -5.950   1.832  0.00  0.00    +0.089 C 
BRANCH  16  17
ATOM     17  C   UNL     1      -2.319  -5.629   1.414  0.00  0.00    -0.060 C 
BRANCH  17  18
ATOM     18  N   UNL     1      -3.189  -6.769   1.736  0.00  0.00    +0.377 N 
ATOM     19  C   UNL     1      -3.240  -6.950   3.193  0.00  0.00    -0.097 C 
ATOM     20  C   UNL     1      -4.543  -6.510   1.227  0.00  0.00    -0.097 C 
ATOM     21  H   UNL     1      -2.822  -7.604   1.306  0.00  0.00    -0.083 HD
ENDBRANCH  17  18
ENDBRANCH  16  17
ENDBRANCH   7  16
BRANCH   7  22
ATOM     22  C   UNL     1       0.641  -4.741   0.204  0.00  0.00    +0.142 C 
BRANCH  22  23
ATOM     23  C   UNL     1       1.922  -5.534   0.240  0.00  0.00    -0.030 A 
ATOM     24  C   UNL     1       3.082  -4.952   0.717  0.00  0.00    +0.005 A 
ATOM     25  C   UNL     1       4.257  -5.679   0.750  0.00  0.00    +0.000 A 
ATOM     26  C   UNL     1       4.272  -6.988   0.307  0.00  0.00    +0.000 A 
ATOM     27  C   UNL     1       3.113  -7.570  -0.170  0.00  0.00    +0.000 A 
ATOM     28  C   UNL     1       1.937  -6.844  -0.199  0.00  0.00    +0.005 A 
ENDBRANCH  22  23
ENDBRANCH   7  22
BRANCH   4  29
ATOM     29  C   UNL     1       1.838  -2.680   5.088  0.00  0.00    +0.069 C 
BRANCH  29  30
ATOM     30  C   UNL     1       1.807  -3.610   6.273  0.00  0.00    -0.045 A 
ATOM     31  C   UNL     1       1.385  -3.146   7.505  0.00  0.00    +0.004 A 
ATOM     32  C   UNL     1       1.357  -3.999   8.592  0.00  0.00    +0.000 A 
ATOM     33  C   UNL     1       1.749  -5.316   8.447  0.00  0.00    +0.000 A 
ATOM     34  C   UNL     1       2.170  -5.781   7.215  0.00  0.00    +0.000 A 
ATOM     35  C   UNL     1       2.195  -4.929   6.127  0.00  0.00    +0.004 A 
ENDBRANCH  29  30
ENDBRANCH   4  29
TORSDOF 8
