REMARK  Name = ZINC39960578
REMARK  9 active torsions:
REMARK  status: ('A' for Active; 'I' for Inactive)
REMARK    1  A    between atoms: C_1  and  C_2
REMARK    2  A    between atoms: C_2  and  O_3
REMARK    3  A    between atoms: O_3  and  C_4
REMARK    4  A    between atoms: C_4  and  C_6
REMARK    5  A    between atoms: C_8  and  N_18
REMARK    6  A    between atoms: N_15  and  C_17
REMARK    7  A    between atoms: C_19  and  C_21
REMARK    8  A    between atoms: C_21  and  S_22
REMARK    9  A    between atoms: S_22  and  C_23
REMARK                            x       y       z     vdW  Elec       q    Type
REMARK                         _______ _______ _______ _____ _____    ______ ____
ROOT
ATOM      1  N   UNL     1      -0.764  -1.798  -3.508  0.00  0.00    -0.301 N 
ATOM      2  C   UNL     1      -1.434  -0.739  -4.004  0.00  0.00    +0.224 C 
ATOM      3  O   UNL     1      -0.860   0.069  -4.703  0.00  0.00    -0.275 OA
ATOM      4  H   UNL     1      -1.223  -2.444  -2.949  0.00  0.00    +0.150 HD
ENDROOT
BRANCH   1   6
ATOM      5  C   UNL     1       1.468  -2.353  -2.550  0.00  0.00    +0.155 C 
ATOM      6  C   UNL     1       0.658  -1.974  -3.814  0.00  0.00    +0.153 C 
ATOM      7  S   UNL     1       0.954  -3.497  -4.807  0.00  0.00    -0.108 S 
ATOM      8  C   UNL     1       1.371  -4.596  -3.476  0.00  0.00    -0.029 C 
ATOM      9  C   UNL     1       1.590  -3.846  -2.402  0.00  0.00    -0.047 C 
ATOM     10  C   UNL     1       1.955  -4.509  -1.075  0.00  0.00    +0.014 C 
ATOM     11  C   UNL     1       1.585  -5.991  -1.159  0.00  0.00    -0.074 C 
ATOM     12  N   UNL     1       2.178  -6.583  -2.366  0.00  0.00    +0.381 N 
ATOM     13  C   UNL     1       1.459  -6.093  -3.547  0.00  0.00    -0.036 C 
ATOM     14  C   UNL     1       2.073  -8.047  -2.297  0.00  0.00    -0.096 C 
ATOM     15  H   UNL     1       3.150  -6.317  -2.430  0.00  0.00    -0.082 HD
BRANCH   5  16
ATOM     16  C   UNL     1       0.775  -1.794  -1.334  0.00  0.00    +0.317 C 
ATOM     17  O   UNL     1      -0.110  -2.420  -0.801  0.00  0.00    -0.250 OA
BRANCH  16  18
ATOM     18  O   UNL     1       1.142  -0.599  -0.844  0.00  0.00    -0.464 OA
BRANCH  18  20
ATOM     19  C   UNL     1       0.995   1.237   0.721  0.00  0.00    +0.048 C 
ATOM     20  C   UNL     1       0.443  -0.130   0.311  0.00  0.00    +0.229 C 
ENDBRANCH  18  20
ENDBRANCH  16  18
ENDBRANCH   5  16
ENDBRANCH   1   6
BRANCH   2  21
ATOM     21  C   UNL     1      -2.897  -0.558  -3.689  0.00  0.00    +0.173 C 
BRANCH  21  22
ATOM     22  S   UNL     1      -3.507   0.948  -4.495  0.00  0.00    -0.075 S 
BRANCH  22  23
ATOM     23  C   UNL     1      -5.207   1.018  -4.038  0.00  0.00    +0.208 C 
ATOM     24  N   UNL     1      -5.679   0.067  -3.268  0.00  0.00    -0.227 NA
ATOM     25  C   UNL     1      -7.107   0.089  -2.958  0.00  0.00    +0.252 C 
ATOM     26  C   UNL     1      -7.535   1.548  -3.015  0.00  0.00    +0.117 C 
ATOM     27  C   UNL     1      -8.233   1.770  -1.867  0.00  0.00    +0.025 A 
ATOM     28  C   UNL     1      -8.967   2.888  -1.401  0.00  0.00    +0.012 A 
ATOM     29  C   UNL     1      -9.547   2.789  -0.175  0.00  0.00    +0.001 A 
ATOM     30  C   UNL     1      -9.463   1.659   0.645  0.00  0.00    +0.002 A 
ATOM     31  C   UNL     1      -8.793   0.528   0.298  0.00  0.00    +0.026 A 
ATOM     32  C   UNL     1      -8.137   0.541  -1.020  0.00  0.00    +0.046 A 
ATOM     33  N   UNL     1      -7.452  -0.382  -1.624  0.00  0.00    -0.358 N 
ATOM     34  N   UNL     1      -7.103   2.359  -3.986  0.00  0.00    -0.147 NA
ATOM     35  N   UNL     1      -5.950   2.054  -4.497  0.00  0.00    -0.122 NA
ATOM     36  H   UNL     1      -7.211  -1.243  -1.249  0.00  0.00    +0.162 HD
ENDBRANCH  22  23
ENDBRANCH  21  22
ENDBRANCH   2  21
TORSDOF 7
