REMARK  Name = ZINC07140981
REMARK  2 active torsions:
REMARK  status: ('A' for Active; 'I' for Inactive)
REMARK    1  A    between atoms: C_6  and  C_7
REMARK    2  A    between atoms: N_13  and  C_14
REMARK                            x       y       z     vdW  Elec       q    Type
REMARK                         _______ _______ _______ _____ _____    ______ ____
ROOT
ATOM      1  C   UNL     1      -5.025   5.043   1.785  0.00  0.00    +0.028 C 
ATOM      2  C   UNL     1      -3.789   4.616   1.424  0.00  0.00    +0.078 C 
ATOM      3  C   UNL     1      -3.176   4.550   0.084  0.00  0.00    +0.256 C 
ATOM      4  O   UNL     1      -3.781   4.905  -0.911  0.00  0.00    -0.269 OA
ATOM      5  N   UNL     1      -1.938   4.093   0.012  0.00  0.00    -0.260 N 
ATOM      6  C   UNL     1      -1.271   3.689   1.151  0.00  0.00    +0.161 C 
ATOM      7  N   UNL     1      -0.061   3.214   1.258  0.00  0.00    -0.260 NA
ATOM      8  S   UNL     1      -2.466   3.983   2.445  0.00  0.00    -0.049 S 
ATOM      9  H   UNL     1      -1.495   4.037  -0.849  0.00  0.00    +0.157 HD
ENDROOT
BRANCH   1  15
ATOM     10  C   UNL     1      -4.361   5.217   4.174  0.00  0.00    +0.012 A 
ATOM     11  C   UNL     1      -4.689   5.339   5.506  0.00  0.00    +0.050 A 
ATOM     12  C   UNL     1      -6.021   5.421   5.895  0.00  0.00    +0.162 A 
ATOM     13  C   UNL     1      -7.032   5.383   4.938  0.00  0.00    +0.163 A 
ATOM     14  C   UNL     1      -6.712   5.265   3.598  0.00  0.00    +0.057 A 
ATOM     15  C   UNL     1      -5.371   5.175   3.207  0.00  0.00    -0.020 A 
ATOM     16  O   UNL     1      -8.341   5.469   5.303  0.00  0.00    -0.485 OA
ATOM     17  C   UNL     1      -8.642   5.214   6.680  0.00  0.00    +0.270 C 
ATOM     18  C   UNL     1      -7.638   5.990   7.543  0.00  0.00    +0.270 C 
ATOM     19  O   UNL     1      -6.321   5.534   7.217  0.00  0.00    -0.485 OA
ENDBRANCH   1  15
BRANCH   7  20
ATOM     20  C   UNL     1       0.769   3.048   0.061  0.00  0.00    +0.108 C 
ATOM     21  C   UNL     1       2.084   3.840   0.216  0.00  0.00    +0.027 C 
ATOM     22  C   UNL     1       3.099   2.792   0.736  0.00  0.00    +0.002 C 
ATOM     23  C   UNL     1       2.703   1.515  -0.047  0.00  0.00    +0.002 C 
ATOM     24  C   UNL     1       1.163   1.570  -0.106  0.00  0.00    +0.027 C 
ENDBRANCH   7  20
TORSDOF 2
