REMARK  Name = ZINC04686661
REMARK  7 active torsions:
REMARK  status: ('A' for Active; 'I' for Inactive)
REMARK    1  A    between atoms: C_1  and  C_2
REMARK    2  A    between atoms: C_2  and  C_3
REMARK    3  A    between atoms: C_3  and  C_4
REMARK    4  A    between atoms: C_4  and  N_5
REMARK    5  A    between atoms: C_11  and  C_18
REMARK    6  A    between atoms: N_16  and  C_17
REMARK    7  A    between atoms: C_21  and  O_24
REMARK                            x       y       z     vdW  Elec       q    Type
REMARK                         _______ _______ _______ _____ _____    ______ ____
ROOT
ATOM      1  N   UNL     1       1.425  -2.500  -2.470  0.00  0.00    -0.292 N 
ATOM      2  C   UNL     1       0.803  -2.786  -3.772  0.00  0.00    +0.159 C 
ATOM      3  C   UNL     1       1.944  -3.237  -4.657  0.00  0.00    +0.042 C 
ATOM      4  C   UNL     1       3.056  -3.192  -3.895  0.00  0.00    +0.058 C 
ATOM      5  C   UNL     1       2.741  -2.747  -2.595  0.00  0.00    +0.247 C 
ATOM      6  O   UNL     1       3.555  -2.607  -1.700  0.00  0.00    -0.270 OA
ATOM      7  C   UNL     1       4.367  -3.598  -4.537  0.00  0.00    +0.142 C 
ATOM      8  N   UNL     1       4.317  -4.012  -5.950  0.00  0.00    -0.288 N 
ATOM      9  C   UNL     1       3.126  -4.004  -6.580  0.00  0.00    +0.307 C 
ATOM     10  O   UNL     1       3.075  -4.345  -7.745  0.00  0.00    -0.252 OA
ATOM     11  N   UNL     1       1.996  -3.635  -5.962  0.00  0.00    -0.260 N 
ATOM     12  C   UNL     1       0.748  -3.660  -6.729  0.00  0.00    +0.139 C 
ATOM     13  H   UNL     1       5.123  -4.283  -6.416  0.00  0.00    +0.151 HD
ENDROOT
BRANCH   7  14
ATOM     14  C   UNL     1       4.940  -4.740  -3.739  0.00  0.00    -0.022 A 
ATOM     15  C   UNL     1       4.469  -6.025  -3.936  0.00  0.00    +0.009 A 
ATOM     16  C   UNL     1       4.993  -7.074  -3.205  0.00  0.00    +0.046 A 
ATOM     17  C   UNL     1       5.993  -6.837  -2.274  0.00  0.00    +0.117 A 
ATOM     18  C   UNL     1       6.465  -5.547  -2.079  0.00  0.00    +0.046 A 
ATOM     19  C   UNL     1       5.941  -4.503  -2.815  0.00  0.00    +0.009 A 
BRANCH  17  20
ATOM     20  O   UNL     1       6.510  -7.867  -1.554  0.00  0.00    -0.507 OA
ATOM     21  H   UNL     1       7.272  -8.295  -1.969  0.00  0.00    +0.292 HD
ENDBRANCH  17  20
ENDBRANCH   7  14
BRANCH   1  22
ATOM     22  C   UNL     1       0.739  -2.027  -1.265  0.00  0.00    +0.108 C 
BRANCH  22  23
ATOM     23  C   UNL     1       0.718  -0.497  -1.257  0.00  0.00    +0.019 C 
BRANCH  23  25
ATOM     24  C   UNL     1      -0.019   1.526   0.010  0.00  0.00    +0.004 C 
ATOM     25  C   UNL     1       0.002  -0.004   0.002  0.00  0.00    -0.002 C 
ENDBRANCH  23  25
ENDBRANCH  22  23
ENDBRANCH   1  22
TORSDOF 5
