REMARK  Name = ZINC14147369
REMARK  6 active torsions:
REMARK  status: ('A' for Active; 'I' for Inactive)
REMARK    1  A    between atoms: C_1  and  C_2
REMARK    2  A    between atoms: C_2  and  C_4
REMARK    3  A    between atoms: C_2  and  O_16
REMARK    4  A    between atoms: N_6  and  C_7
REMARK    5  A    between atoms: O_16  and  C_17
REMARK    6  A    between atoms: C_17  and  C_19
REMARK                            x       y       z     vdW  Elec       q    Type
REMARK                         _______ _______ _______ _____ _____    ______ ____
ROOT
ATOM      1  C   UNL     1       1.115   2.369  -1.000  0.00  0.00    +0.311 C 
ATOM      2  O   UNL     1       1.984   1.632  -0.599  0.00  0.00    -0.251 OA
ENDROOT
BRANCH   1   3
ATOM      3  C   UNL     1       1.435   3.421  -2.030  0.00  0.00    +0.101 C 
ATOM      4  C   UNL     1       0.588   3.185  -3.282  0.00  0.00    +0.034 C 
ATOM      5  C   UNL     1       0.890   4.277  -4.313  0.00  0.00    +0.110 C 
ATOM      6  N   UNL     1       2.338   4.305  -4.560  0.00  0.00    -0.285 N 
ATOM      7  C   UNL     1       3.249   4.437  -3.414  0.00  0.00    +0.110 C 
ATOM      8  C   UNL     1       2.919   3.344  -2.394  0.00  0.00    +0.034 C 
ATOM      9  C   UNL     1       2.833   4.208  -5.841  0.00  0.00    +0.291 A 
ATOM     10  N   UNL     1       2.102   4.093  -6.920  0.00  0.00    -0.195 NA
ATOM     11  C   UNL     1       2.927   4.023  -8.001  0.00  0.00    +0.111 A 
ATOM     12  C   UNL     1       2.709   3.897  -9.373  0.00  0.00    +0.031 A 
ATOM     13  C   UNL     1       3.783   3.853 -10.235  0.00  0.00    +0.002 A 
ATOM     14  C   UNL     1       5.078   3.933  -9.746  0.00  0.00    +0.004 A 
ATOM     15  C   UNL     1       5.308   4.059  -8.391  0.00  0.00    +0.048 A 
ATOM     16  C   UNL     1       4.239   4.104  -7.511  0.00  0.00    +0.157 A 
ATOM     17  O   UNL     1       4.137   4.224  -6.167  0.00  0.00    -0.424 OA
ENDBRANCH   1   3
BRANCH   1  18
ATOM     18  O   UNL     1      -0.137   2.249  -0.529  0.00  0.00    -0.452 OA
BRANCH  18  20
ATOM     19  C   UNL     1      -0.144   1.802   1.846  0.00  0.00    +0.062 C 
ATOM     20  C   UNL     1      -0.369   1.230   0.445  0.00  0.00    +0.259 C 
BRANCH  20  21
ATOM     21  C   UNL     1      -1.787   0.735   0.326  0.00  0.00    +0.258 C 
ATOM     22  O   UNL     1      -2.553   1.270  -0.447  0.00  0.00    -0.271 OA
ATOM     23  N   UNL     1      -2.204  -0.302   1.079  0.00  0.00    -0.280 N 
ATOM     24  H   UNL     1      -1.574  -0.776   1.643  0.00  0.00    +0.155 HD
BRANCH  23  25
ATOM     25  C   UNL     1      -3.549  -0.694   1.048  0.00  0.00    +0.071 A 
ATOM     26  C   UNL     1      -3.971  -1.660   0.142  0.00  0.00    +0.065 A 
ATOM     27  C   UNL     1      -5.298  -2.045   0.113  0.00  0.00    +0.042 A 
ATOM     28  C   UNL     1      -6.206  -1.470   0.985  0.00  0.00    +0.044 A 
ATOM     29  C   UNL     1      -5.789  -0.508   1.888  0.00  0.00    +0.042 A 
ATOM     30  C   UNL     1      -4.462  -0.123   1.925  0.00  0.00    +0.065 A 
ATOM     31 CL   UNL     1      -3.938   1.079   3.063  0.00  0.00    -0.082 Cl
ATOM     32 CL   UNL     1      -7.872  -1.956   0.945  0.00  0.00    -0.083 Cl
ATOM     33 CL   UNL     1      -2.833  -2.381  -0.952  0.00  0.00    -0.082 Cl
ENDBRANCH  23  25
ENDBRANCH  20  21
ENDBRANCH  18  20
ENDBRANCH   1  18
TORSDOF 5
