REMARK  Name = ZINC38979489
REMARK  6 active torsions:
REMARK  status: ('A' for Active; 'I' for Inactive)
REMARK    1  A    between atoms: C_2  and  C_3
REMARK    2  A    between atoms: C_3  and  C_4
REMARK    3  A    between atoms: C_8  and  C_11
REMARK    4  A    between atoms: C_9  and  O_10
REMARK    5  A    between atoms: N_12  and  N_13
REMARK    6  A    between atoms: C_14  and  C_20
REMARK                            x       y       z     vdW  Elec       q    Type
REMARK                         _______ _______ _______ _____ _____    ______ ____
ROOT
ATOM      1  N   UNL     1      -0.741  -6.884   0.709  0.00  0.00    -0.172 N 
ATOM      2  C   UNL     1      -1.302  -7.507  -0.503  0.00  0.00    +0.265 C 
ATOM      3  N   UNL     1      -1.610  -8.883  -0.082  0.00  0.00    -0.189 NA
ATOM      4  N   UNL     1      -1.290  -9.001   1.103  0.00  0.00    -0.219 N 
ATOM      5  C   UNL     1      -0.765  -7.866   1.637  0.00  0.00    +0.174 C 
ATOM      6  S   UNL     1      -0.217  -7.703   3.251  0.00  0.00    -0.015 S 
ATOM      7  H   UNL     1      -1.399  -9.824   1.605  0.00  0.00    +0.176 HD
ENDROOT
BRANCH   2   8
ATOM      8  C   UNL     1      -0.288  -7.506  -1.617  0.00  0.00    +0.016 A 
ATOM      9  C   UNL     1       0.727  -6.568  -1.627  0.00  0.00    +0.009 A 
ATOM     10  C   UNL     1       1.658  -6.566  -2.649  0.00  0.00    +0.000 A 
ATOM     11  C   UNL     1       1.574  -7.504  -3.662  0.00  0.00    +0.001 A 
ATOM     12  C   UNL     1       0.560  -8.442  -3.653  0.00  0.00    +0.020 A 
ATOM     13  C   UNL     1      -0.369  -8.447  -2.628  0.00  0.00    +0.048 A 
ATOM     14 CL   UNL     1      -1.639  -9.630  -2.613  0.00  0.00    -0.083 Cl
ENDBRANCH   2   8
BRANCH   1  16
ATOM     15  C   UNL     1       0.085  -5.142   2.034  0.00  0.00    +0.142 C 
ATOM     16  N   UNL     1      -0.280  -5.570   0.863  0.00  0.00    -0.183 NA
BRANCH  15  21
ATOM     17  C   UNL     1       1.484  -1.757   1.186  0.00  0.00    -0.002 A 
ATOM     18  C   UNL     1       1.869  -1.309   2.437  0.00  0.00    +0.007 A 
ATOM     19  C   UNL     1       1.675  -2.103   3.554  0.00  0.00    +0.001 A 
ATOM     20  C   UNL     1       1.096  -3.349   3.431  0.00  0.00    +0.013 A 
ATOM     21  C   UNL     1       0.703  -3.812   2.174  0.00  0.00    +0.036 A 
ATOM     22  C   UNL     1       0.897  -3.003   1.045  0.00  0.00    +0.129 A 
BRANCH  22  23
ATOM     23  O   UNL     1       0.515  -3.442  -0.182  0.00  0.00    -0.506 OA
ATOM     24  H   UNL     1       1.201  -3.931  -0.656  0.00  0.00    +0.292 HD
ENDBRANCH  22  23
BRANCH  17  25
ATOM     25  C   UNL     1       1.700  -0.885  -0.024  0.00  0.00    +0.065 C 
BRANCH  25  27
ATOM     26  C   UNL     1       0.493   1.205  -0.395  0.00  0.00    +0.004 C 
ATOM     27  C   UNL     1       0.445  -0.102  -0.308  0.00  0.00    -0.030 C 
ENDBRANCH  25  27
ENDBRANCH  17  25
ENDBRANCH  15  21
ENDBRANCH   1  16
TORSDOF 6
