REMARK  Name = ZINC20911895
REMARK  11 active torsions:
REMARK  status: ('A' for Active; 'I' for Inactive)
REMARK    1  A    between atoms: C_1  and  C_2
REMARK    2  A    between atoms: C_3  and  C_8
REMARK    3  A    between atoms: N_5  and  C_7
REMARK    4  A    between atoms: C_8  and  N_9
REMARK    5  A    between atoms: N_9  and  C_10
REMARK    6  A    between atoms: N_9  and  C_11
REMARK    7  A    between atoms: C_11  and  C_13
REMARK    8  A    between atoms: C_11  and  C_20
REMARK    9  A    between atoms: C_13  and  C_14
REMARK   10  A    between atoms: N_23  and  C_26
REMARK   11  A    between atoms: C_26  and  C_27
REMARK                            x       y       z     vdW  Elec       q    Type
REMARK                         _______ _______ _______ _____ _____    ______ ____
ROOT
ATOM      1  C   UNL     1       0.166  -0.405   1.505  0.00  0.00    +0.064 C 
ENDROOT
BRANCH   1   2
ATOM      2  C   UNL     1       0.537  -1.887   1.592  0.00  0.00    +0.003 C 
ATOM      3  C   UNL     1       0.863  -2.249   3.043  0.00  0.00    -0.014 C 
ATOM      4  C   UNL     1       1.293  -3.716   3.114  0.00  0.00    -0.078 C 
ATOM      5  N   UNL     1       2.470  -3.925   2.261  0.00  0.00    +0.383 N 
ATOM      6  C   UNL     1       2.166  -3.629   0.855  0.00  0.00    -0.078 C 
ATOM      7  C   UNL     1       1.764  -2.159   0.717  0.00  0.00    -0.014 C 
ATOM      8  H   UNL     1       3.251  -3.224   2.590  0.00  0.00    -0.081 HD
BRANCH   5   9
ATOM      9  C   UNL     1       2.993  -5.289   2.412  0.00  0.00    -0.025 C 
BRANCH   9  10
ATOM     10  C   UNL     1       3.521  -5.474   3.811  0.00  0.00    +0.000 A 
ATOM     11  C   UNL     1       4.803  -5.321   4.178  0.00  0.00    +0.029 A 
ATOM     12  C   UNL     1       4.872  -5.591   5.617  0.00  0.00    -0.000 A 
ATOM     13  C   UNL     1       5.905  -5.591   6.556  0.00  0.00    +0.010 A 
ATOM     14  C   UNL     1       5.637  -5.899   7.859  0.00  0.00    +0.001 A 
ATOM     15  C   UNL     1       4.345  -6.213   8.258  0.00  0.00    +0.002 A 
ATOM     16  C   UNL     1       3.310  -6.219   7.348  0.00  0.00    +0.026 A 
ATOM     17  C   UNL     1       3.560  -5.907   6.016  0.00  0.00    +0.047 A 
ATOM     18  N   UNL     1       2.764  -5.827   4.895  0.00  0.00    -0.360 N 
ATOM     19  H   UNL     1       1.684  -5.999   4.780  0.00  0.00    +0.166 HD
ENDBRANCH   9  10
ENDBRANCH   5   9
ENDBRANCH   1   2
BRANCH   1  20
ATOM     20  N   UNL     1      -1.084  -0.169   2.240  0.00  0.00    -0.298 NA
ATOM     21  C   UNL     1      -0.813   0.210   3.633  0.00  0.00    +0.105 C 
BRANCH  20  22
ATOM     22  C   UNL     1      -1.962  -1.345   2.176  0.00  0.00    +0.123 C 
BRANCH  22  25
ATOM     23  C   UNL     1      -4.206  -0.120   0.304  0.00  0.00    +0.068 C 
ATOM     24  C   UNL     1      -4.346  -0.416   1.775  0.00  0.00    +0.064 A 
ATOM     25  C   UNL     1      -3.355  -0.956   2.601  0.00  0.00    +0.007 A 
ATOM     26  C   UNL     1      -3.865  -1.063   3.849  0.00  0.00    +0.113 A 
ATOM     27  N   UNL     1      -5.136  -0.611   3.814  0.00  0.00    -0.274 N 
ATOM     28  N   UNL     1      -5.416  -0.214   2.500  0.00  0.00    -0.176 NA
ATOM     29  C   UNL     1      -6.061  -0.548   4.949  0.00  0.00    +0.172 C 
ENDBRANCH  22  25
ENDBRANCH  20  22
ENDBRANCH   1  20
BRANCH   1  30
ATOM     30  C   UNL     1      -0.022  -0.011   0.039  0.00  0.00    +0.054 C 
BRANCH  30  31
ATOM     31  C   UNL     1      -0.195   1.482  -0.062  0.00  0.00    -0.046 A 
ATOM     32  C   UNL     1      -1.463   2.030  -0.108  0.00  0.00    +0.004 A 
ATOM     33  C   UNL     1      -1.621   3.400  -0.196  0.00  0.00    +0.000 A 
ATOM     34  C   UNL     1      -0.511   4.222  -0.248  0.00  0.00    +0.000 A 
ATOM     35  C   UNL     1       0.757   3.674  -0.209  0.00  0.00    +0.000 A 
ATOM     36  C   UNL     1       0.915   2.304  -0.116  0.00  0.00    +0.004 A 
ENDBRANCH  30  31
ENDBRANCH   1  30
TORSDOF 8
