REMARK  Name = ZINC01747948
REMARK  6 active torsions:
REMARK  status: ('A' for Active; 'I' for Inactive)
REMARK    1  A    between atoms: C_8  and  C_10
REMARK    2  A    between atoms: C_14  and  C_19
REMARK    3  A    between atoms: C_15  and  C_17
REMARK    4  A    between atoms: N_21  and  C_24
REMARK    5  A    between atoms: C_22  and  N_23
REMARK    6  A    between atoms: C_24  and  C_25
REMARK                            x       y       z     vdW  Elec       q    Type
REMARK                         _______ _______ _______ _____ _____    ______ ____
ROOT
ATOM      1  C   UNL     1      -4.305  -0.362  -0.833  0.00  0.00    +0.074 A 
ATOM      2  C   UNL     1      -4.049   0.918  -1.507  0.00  0.00    +0.121 A 
ATOM      3  C   UNL     1      -2.651   0.970  -1.731  0.00  0.00    +0.163 A 
ATOM      4  N   UNL     1      -2.123   2.024  -2.330  0.00  0.00    -0.214 NA
ATOM      5  C   UNL     1      -2.904   3.028  -2.719  0.00  0.00    +0.178 A 
ATOM      6  C   UNL     1      -4.294   2.975  -2.496  0.00  0.00    +0.177 A 
ATOM      7  N   UNL     1      -4.828   1.918  -1.894  0.00  0.00    -0.230 NA
ATOM      8  N   UNL     1      -2.102  -0.192  -1.230  0.00  0.00    -0.310 N 
ATOM      9  C   UNL     1      -3.075  -0.988  -0.702  0.00  0.00    +0.110 A 
ENDROOT
BRANCH   1  17
ATOM     10  C   UNL     1     -10.282  -1.175   0.421  0.00  0.00    +0.002 A 
ATOM     11  C   UNL     1     -10.067  -2.414   1.007  0.00  0.00    +0.001 A 
ATOM     12  C   UNL     1      -8.780  -2.918   1.074  0.00  0.00    +0.017 A 
ATOM     13  C   UNL     1      -7.738  -2.186   0.562  0.00  0.00    +0.040 A 
ATOM     14  C   UNL     1      -7.919  -0.920  -0.042  0.00  0.00    +0.079 A 
ATOM     15  C   UNL     1      -9.248  -0.437  -0.094  0.00  0.00    +0.029 A 
ATOM     16  N   UNL     1      -6.799  -0.323  -0.498  0.00  0.00    -0.239 NA
ATOM     17  C   UNL     1      -5.608  -0.880  -0.391  0.00  0.00    +0.115 A 
ATOM     18  S   UNL     1      -5.983  -2.426   0.423  0.00  0.00    -0.067 S 
ENDBRANCH   1  17
BRANCH   9  19
ATOM     19  N   UNL     1      -2.867  -2.220  -0.125  0.00  0.00    -0.344 N 
ATOM     20  H   UNL     1      -1.970  -2.585  -0.071  0.00  0.00    +0.144 HD
ATOM     21  H   UNL     1      -3.617  -2.723   0.228  0.00  0.00    +0.144 HD
ENDBRANCH   9  19
BRANCH   6  22
ATOM     22  C   UNL     1      -5.129   4.059  -2.916  0.00  0.00    +0.122 C 
ATOM     23  N   UNL     1      -5.792   4.920  -3.250  0.00  0.00    -0.189 NA
ENDBRANCH   6  22
BRANCH   5  24
ATOM     24  C   UNL     1      -2.328   4.168  -3.368  0.00  0.00    +0.122 C 
ATOM     25  N   UNL     1      -1.872   5.072  -3.882  0.00  0.00    -0.189 NA
ENDBRANCH   5  24
BRANCH   8  26
ATOM     26  C   UNL     1      -0.676  -0.525  -1.266  0.00  0.00    +0.156 C 
BRANCH  26  27
ATOM     27  C   UNL     1       0.002  -0.004   0.002  0.00  0.00    +0.138 C 
ATOM     28  C   UNL     1       1.480  -0.451   0.029  0.00  0.00    +0.035 C 
ATOM     29  C   UNL     1       2.192   0.804   0.604  0.00  0.00    +0.031 C 
ATOM     30  C   UNL     1       1.326   1.937  -0.000  0.00  0.00    +0.160 C 
ATOM     31  O   UNL     1      -0.017   1.428   0.010  0.00  0.00    -0.375 OA
ENDBRANCH  26  27
ENDBRANCH   8  26
TORSDOF 6
