REMARK  Name = ZINC01368684
REMARK  7 active torsions:
REMARK  status: ('A' for Active; 'I' for Inactive)
REMARK    1  A    between atoms: C_1  and  C_2
REMARK    2  A    between atoms: C_7  and  C_29
REMARK    3  A    between atoms: C_10  and  C_12
REMARK    4  A    between atoms: C_12  and  S_13
REMARK    5  A    between atoms: S_13  and  C_14
REMARK    6  A    between atoms: C_19  and  C_27
REMARK    7  A    between atoms: C_19  and  C_28
REMARK                            x       y       z     vdW  Elec       q    Type
REMARK                         _______ _______ _______ _____ _____    ______ ____
ROOT
ATOM      1  C   UNL     1      -0.656   7.373   1.752  0.00  0.00    +0.193 A 
ATOM      2  N   UNL     1       0.623   7.551   1.477  0.00  0.00    -0.122 NA
ATOM      3  N   UNL     1       1.263   6.436   1.592  0.00  0.00    -0.128 NA
ATOM      4  C   UNL     1       0.441   5.494   1.934  0.00  0.00    +0.166 A 
ATOM      5  N   UNL     1      -0.814   6.069   2.067  0.00  0.00    -0.296 N 
ATOM      6  C   UNL     1      -1.987   5.307   2.484  0.00  0.00    +0.048 C 
ATOM      7  C   UNL     1      -1.884   3.867   1.986  0.00  0.00    +0.064 C 
ATOM      8  C   UNL     1      -0.530   3.264   2.235  0.00  0.00    -0.034 A 
ATOM      9  C   UNL     1       0.628   4.051   2.172  0.00  0.00    +0.023 A 
ATOM     10  C   UNL     1       1.881   3.480   2.342  0.00  0.00    +0.012 A 
ATOM     11  C   UNL     1       1.984   2.127   2.604  0.00  0.00    +0.001 A 
ATOM     12  C   UNL     1       0.841   1.353   2.694  0.00  0.00    +0.000 A 
ATOM     13  C   UNL     1      -0.409   1.916   2.505  0.00  0.00    +0.004 A 
ATOM     14  C   UNL     1      -3.245   5.957   1.903  0.00  0.00    +0.035 C 
ATOM     15  C   UNL     1      -2.073   5.311   4.011  0.00  0.00    +0.035 C 
ENDROOT
BRANCH   1  16
ATOM     16  S   UNL     1      -1.917   8.602   1.718  0.00  0.00    -0.077 S 
BRANCH  16  17
ATOM     17  C   UNL     1      -0.939  10.042   1.221  0.00  0.00    +0.173 C 
BRANCH  17  25
ATOM     18  C   UNL     1      -3.554  13.301   1.377  0.00  0.00    +0.028 C 
ATOM     19  C   UNL     1      -2.151  13.665   0.885  0.00  0.00    +0.073 C 
ATOM     20  C   UNL     1      -1.520  14.692   1.838  0.00  0.00    +0.022 C 
ATOM     21  C   UNL     1      -0.071  14.947   1.416  0.00  0.00    +0.004 C 
ATOM     22  C   UNL     1       0.727  13.645   1.514  0.00  0.00    +0.022 C 
ATOM     23  C   UNL     1       0.123  12.607   0.564  0.00  0.00    +0.073 C 
ATOM     24  N   UNL     1      -1.307  12.463   0.869  0.00  0.00    -0.295 N 
ATOM     25  C   UNL     1      -1.836  11.249   1.123  0.00  0.00    +0.226 C 
ATOM     26  O   UNL     1      -3.033  11.129   1.274  0.00  0.00    -0.275 OA
ATOM     27  C   UNL     1       0.294  13.072  -0.884  0.00  0.00    +0.028 C 
ENDBRANCH  17  25
ENDBRANCH  16  17
ENDBRANCH   1  16
TORSDOF 3
