REMARK  Name = ZINC39528945
REMARK  9 active torsions:
REMARK  status: ('A' for Active; 'I' for Inactive)
REMARK    1  A    between atoms: C_1  and  C_2
REMARK    2  A    between atoms: C_2  and  C_3
REMARK    3  A    between atoms: C_5  and  S_23
REMARK    4  A    between atoms: C_8  and  N_9
REMARK    5  A    between atoms: C_13  and  C_16
REMARK    6  A    between atoms: C_21  and  O_22
REMARK    7  A    between atoms: S_23  and  C_26
REMARK    8  A    between atoms: C_26  and  C_27
REMARK    9  A    between atoms: C_26  and  C_28
REMARK                            x       y       z     vdW  Elec       q    Type
REMARK                         _______ _______ _______ _____ _____    ______ ____
ROOT
ATOM      1  N   UNL     1      -1.307  -0.339   2.506  0.00  0.00    -0.333 N 
ATOM      2  C   UNL     1      -2.334  -1.359   2.243  0.00  0.00    +0.086 C 
ATOM      3  C   UNL     1      -3.336  -1.348   3.403  0.00  0.00    -0.063 C 
ATOM      4  N   UNL     1      -3.863   0.011   3.581  0.00  0.00    +0.386 N 
ATOM      5  C   UNL     1      -2.781   0.917   3.985  0.00  0.00    -0.020 C 
ATOM      6  C   UNL     1      -1.751   1.017   2.860  0.00  0.00    +0.094 C 
ATOM      7  H   UNL     1      -4.262   0.332   2.711  0.00  0.00    -0.085 HD
ATOM      8  H   UNL     1      -4.577   0.003   4.293  0.00  0.00    -0.085 HD
ENDROOT
BRANCH   1  14
ATOM      9  C   UNL     1       0.731  -0.503   1.223  0.00  0.00    -0.025 A 
ATOM     10  C   UNL     1       2.076  -0.808   1.149  0.00  0.00    +0.032 A 
ATOM     11  C   UNL     1       2.745  -1.267   2.268  0.00  0.00    +0.089 A 
ATOM     12  C   UNL     1       2.071  -1.421   3.466  0.00  0.00    +0.029 A 
ATOM     13  C   UNL     1       0.727  -1.118   3.547  0.00  0.00    +0.025 A 
ATOM     14  C   UNL     1       0.052  -0.652   2.425  0.00  0.00    +0.033 A 
BRANCH  11  15
ATOM     15  S   UNL     1       4.461  -1.655   2.169  0.00  0.00    -0.001 S 
ATOM     16  O   UNL     1       4.675  -2.618   3.192  0.00  0.00    -0.169 OA
ATOM     17  O   UNL     1       4.679  -1.987   0.804  0.00  0.00    -0.169 OA
BRANCH  15  18
ATOM     18  C   UNL     1       5.314  -0.108   2.580  0.00  0.00    +0.130 C 
ATOM     19  C   UNL     1       6.822  -0.295   2.403  0.00  0.00    +0.032 C 
ATOM     20  C   UNL     1       4.826   1.006   1.651  0.00  0.00    +0.032 C 
ENDBRANCH  15  18
ENDBRANCH  11  15
BRANCH   9  22
ATOM     21  C   UNL     1      -0.019   1.526   0.010  0.00  0.00    +0.009 C 
ATOM     22  C   UNL     1       0.002  -0.004   0.002  0.00  0.00    +0.033 C 
ENDBRANCH   9  22
ENDBRANCH   1  14
BRANCH   5  23
ATOM     23  C   UNL     1      -3.350   2.283   4.271  0.00  0.00    -0.018 A 
ATOM     24  C   UNL     1      -4.585   2.638   3.763  0.00  0.00    +0.005 A 
ATOM     25  C   UNL     1      -5.107   3.891   4.024  0.00  0.00    +0.000 A 
ATOM     26  C   UNL     1      -4.396   4.792   4.795  0.00  0.00    +0.004 A 
ATOM     27  C   UNL     1      -3.161   4.442   5.306  0.00  0.00    +0.045 A 
ATOM     28  C   UNL     1      -2.637   3.183   5.049  0.00  0.00    +0.118 A 
BRANCH  28  29
ATOM     29  O   UNL     1      -1.425   2.835   5.555  0.00  0.00    -0.507 OA
ATOM     30  H   UNL     1      -0.680   3.049   4.977  0.00  0.00    +0.292 HD
ENDBRANCH  28  29
ENDBRANCH   5  23
TORSDOF 6
