REMARK  Name = ZINC39656551
REMARK  9 active torsions:
REMARK  status: ('A' for Active; 'I' for Inactive)
REMARK    1  A    between atoms: C_1  and  C_2
REMARK    2  A    between atoms: C_2  and  S_3
REMARK    3  A    between atoms: S_3  and  C_4
REMARK    4  A    between atoms: C_4  and  C_5
REMARK    5  A    between atoms: C_5  and  N_6
REMARK    6  A    between atoms: C_7  and  C_9
REMARK    7  A    between atoms: C_20  and  C_22
REMARK    8  A    between atoms: C_24  and  O_29
REMARK    9  A    between atoms: O_29  and  C_30
REMARK                            x       y       z     vdW  Elec       q    Type
REMARK                         _______ _______ _______ _____ _____    ______ ____
ROOT
ATOM      1  C   UNL     1      -3.571  -7.286   0.490  0.00  0.00    +0.100 C 
ATOM      2  C   UNL     1      -2.989  -7.517  -0.923  0.00  0.00    +0.121 C 
ATOM      3  N   UNL     1      -3.718  -8.699  -1.440  0.00  0.00    -0.296 N 
ATOM      4  C   UNL     1      -5.112  -8.506  -0.971  0.00  0.00    +0.115 C 
ATOM      5  C   UNL     1      -4.965  -7.936   0.454  0.00  0.00    -0.004 C 
ATOM      6  C   UNL     1      -6.043  -6.889   0.716  0.00  0.00    -0.010 C 
ATOM      7  C   UNL     1      -7.415  -7.569   0.733  0.00  0.00    -0.082 C 
ATOM      8  N   UNL     1      -7.440  -8.599   1.779  0.00  0.00    +0.379 N 
ATOM      9  C   UNL     1      -6.463  -9.650   1.469  0.00  0.00    -0.082 C 
ATOM     10  C   UNL     1      -5.051  -9.058   1.483  0.00  0.00    -0.010 C 
ATOM     11  C   UNL     1      -3.226  -9.719  -2.170  0.00  0.00    +0.248 C 
ATOM     12  O   UNL     1      -3.975 -10.573  -2.604  0.00  0.00    -0.270 OA
ATOM     13  H   UNL     1      -7.210  -8.179   2.667  0.00  0.00    -0.086 HD
ATOM     14  H   UNL     1      -8.363  -9.003   1.829  0.00  0.00    -0.086 HD
ENDROOT
BRANCH  11  15
ATOM     15  C   UNL     1      -1.776  -9.800  -2.444  0.00  0.00    +0.054 A 
ATOM     16  C   UNL     1      -1.038  -8.634  -2.658  0.00  0.00    +0.059 A 
ATOM     17  C   UNL     1       0.320  -8.718  -2.913  0.00  0.00    +0.121 A 
ATOM     18  C   UNL     1       0.945  -9.957  -2.957  0.00  0.00    +0.047 A 
ATOM     19  C   UNL     1       0.217 -11.112  -2.745  0.00  0.00    +0.019 A 
ATOM     20  C   UNL     1      -1.138 -11.041  -2.484  0.00  0.00    +0.030 A 
ATOM     21 BR   UNL     1      -2.129 -12.624  -2.189  0.00  0.00    -0.050 Br
BRANCH  17  22
ATOM     22  O   UNL     1       1.042  -7.585  -3.122  0.00  0.00    -0.495 OA
ATOM     23  C   UNL     1       2.439  -7.745  -3.380  0.00  0.00    +0.277 C 
ENDBRANCH  17  22
ENDBRANCH  11  15
BRANCH   1  25
ATOM     24  N   UNL     1      -3.599  -5.360   2.041  0.00  0.00    -0.314 N 
ATOM     25  C   UNL     1      -3.688  -5.811   0.774  0.00  0.00    +0.218 C 
ATOM     26  O   UNL     1      -3.861  -5.029  -0.137  0.00  0.00    -0.275 OA
ATOM     27  H   UNL     1      -3.460  -5.985   2.770  0.00  0.00    +0.149 HD
BRANCH  24  28
ATOM     28  C   UNL     1      -3.712  -3.926   2.318  0.00  0.00    +0.115 C 
BRANCH  28  29
ATOM     29  C   UNL     1      -3.577  -3.684   3.823  0.00  0.00    +0.088 C 
BRANCH  29  30
ATOM     30  S   UNL     1      -3.717  -1.909   4.166  0.00  0.00    -0.159 S 
BRANCH  30  32
ATOM     31  C   UNL     1      -3.638  -0.329   6.397  0.00  0.00    +0.015 C 
ATOM     32  C   UNL     1      -3.538  -1.794   5.967  0.00  0.00    +0.066 C 
ENDBRANCH  30  32
ENDBRANCH  29  30
ENDBRANCH  28  29
ENDBRANCH  24  28
ENDBRANCH   1  25
TORSDOF 7
