REMARK  Name = ZINC13174081
REMARK  9 active torsions:
REMARK  status: ('A' for Active; 'I' for Inactive)
REMARK    1  A    between atoms: C_1  and  C_2
REMARK    2  A    between atoms: C_4  and  C_35
REMARK    3  A    between atoms: C_5  and  N_9
REMARK    4  A    between atoms: C_6  and  C_8
REMARK    5  A    between atoms: C_10  and  C_12
REMARK    6  A    between atoms: C_12  and  S_13
REMARK    7  A    between atoms: S_13  and  C_14
REMARK    8  A    between atoms: C_15  and  C_33
REMARK    9  A    between atoms: C_16  and  C_26
REMARK                            x       y       z     vdW  Elec       q    Type
REMARK                         _______ _______ _______ _____ _____    ______ ____
ROOT
ATOM      1  C   UNL     1      -0.738  -8.847   2.096  0.00  0.00    +0.112 C 
ATOM      2  C   UNL     1      -0.734  -9.716   3.174  0.00  0.00    +0.073 C 
ATOM      3  C   UNL     1      -1.014 -11.180   2.887  0.00  0.00    +0.097 C 
ATOM      4  C   UNL     1      -1.270 -11.532   1.433  0.00  0.00    +0.029 C 
ATOM      5  C   UNL     1      -1.530 -12.803   1.087  0.00  0.00    +0.162 C 
ATOM      6  C   UNL     1      -1.788 -13.186  -0.347  0.00  0.00    +0.080 C 
ATOM      7  C   UNL     1      -2.413 -11.998  -1.083  0.00  0.00    +0.014 C 
ATOM      8  C   UNL     1      -1.473 -10.795  -0.972  0.00  0.00    +0.056 C 
ATOM      9  C   UNL     1      -1.226 -10.491   0.487  0.00  0.00    +0.050 C 
ATOM     10  N   UNL     1      -0.979  -9.257   0.850  0.00  0.00    -0.244 NA
ATOM     11  O   UNL     1      -1.561 -13.755   2.040  0.00  0.00    -0.292 OA
ENDROOT
BRANCH   3  12
ATOM     12  C   UNL     1      -2.222 -11.595   3.687  0.00  0.00    -0.035 A 
ATOM     13  C   UNL     1      -3.435 -10.962   3.485  0.00  0.00    +0.006 A 
ATOM     14  C   UNL     1      -4.543 -11.341   4.219  0.00  0.00    +0.020 A 
ATOM     15  C   UNL     1      -4.439 -12.354   5.156  0.00  0.00    +0.041 A 
ATOM     16  C   UNL     1      -3.225 -12.987   5.357  0.00  0.00    +0.020 A 
ATOM     17  C   UNL     1      -2.119 -12.611   4.619  0.00  0.00    +0.006 A 
ATOM     18 CL   UNL     1      -5.830 -12.831   6.078  0.00  0.00    -0.084 Cl
ENDBRANCH   3  12
BRANCH   2  19
ATOM     19  C   UNL     1      -0.477  -9.253   4.504  0.00  0.00    +0.098 C 
ATOM     20  N   UNL     1      -0.273  -8.886   5.560  0.00  0.00    -0.191 NA
ENDBRANCH   2  19
BRANCH   1  21
ATOM     21  S   UNL     1      -0.418  -7.138   2.382  0.00  0.00    -0.096 S 
BRANCH  21  22
ATOM     22  C   UNL     1      -0.526  -6.390   0.733  0.00  0.00    +0.172 C 
BRANCH  22  24
ATOM     23  N   UNL     1      -0.299  -4.141  -0.272  0.00  0.00    -0.284 N 
ATOM     24  C   UNL     1      -0.270  -4.908   0.836  0.00  0.00    +0.227 C 
ATOM     25  O   UNL     1      -0.036  -4.407   1.915  0.00  0.00    -0.275 OA
ATOM     26  H   UNL     1      -0.421  -4.551  -1.143  0.00  0.00    +0.155 HD
BRANCH  23  31
ATOM     27  C   UNL     1       0.286   1.486   0.157  0.00  0.00    +0.044 C 
ATOM     28  C   UNL     1       0.130  -0.009   0.043  0.00  0.00    -0.050 A 
ATOM     29  C   UNL     1       1.121  -0.844   0.526  0.00  0.00    +0.008 A 
ATOM     30  C   UNL     1       0.982  -2.215   0.423  0.00  0.00    -0.029 A 
ATOM     31  C   UNL     1      -0.155  -2.753  -0.166  0.00  0.00    +0.039 A 
ATOM     32  C   UNL     1      -1.148  -1.911  -0.649  0.00  0.00    -0.029 A 
ATOM     33  C   UNL     1      -1.005  -0.542  -0.539  0.00  0.00    +0.008 A 
ATOM     34  C   UNL     1      -2.383  -2.491  -1.289  0.00  0.00    +0.045 C 
ATOM     35  C   UNL     1       2.062  -3.124   0.949  0.00  0.00    +0.045 C 
ENDBRANCH  23  31
ENDBRANCH  22  24
ENDBRANCH  21  22
ENDBRANCH   1  21
TORSDOF 6
