REMARK  Name = ZINC00359326
REMARK  9 active torsions:
REMARK  status: ('A' for Active; 'I' for Inactive)
REMARK    1  A    between atoms: C_1  and  C_2
REMARK    2  A    between atoms: C_5  and  O_8
REMARK    3  A    between atoms: O_8  and  C_9
REMARK    4  A    between atoms: C_9  and  C_10
REMARK    5  A    between atoms: N_12  and  N_13
REMARK    6  A    between atoms: C_14  and  C_15
REMARK    7  A    between atoms: C_16  and  C_23
REMARK    8  A    between atoms: C_18  and  O_22
REMARK    9  A    between atoms: C_20  and  O_21
REMARK                            x       y       z     vdW  Elec       q    Type
REMARK                         _______ _______ _______ _____ _____    ______ ____
ROOT
ATOM      1  C   UNL     1       2.343  -4.165  -0.042  0.00  0.00    +0.270 C 
ATOM      2  O   UNL     1       1.230  -4.646  -0.033  0.00  0.00    -0.270 OA
ATOM      3  N   UNL     1       3.425  -4.969  -0.056  0.00  0.00    -0.204 N 
ATOM      4  H   UNL     1       4.315  -4.584  -0.063  0.00  0.00    +0.177 HD
ENDROOT
BRANCH   3   5
ATOM      5  N   UNL     1       3.263  -6.361  -0.062  0.00  0.00    -0.188 NA
ATOM      6  C   UNL     1       4.304  -7.135  -0.076  0.00  0.00    +0.142 C 
BRANCH   6   7
ATOM      7  C   UNL     1       4.134  -8.598  -0.082  0.00  0.00    +0.039 A 
ATOM      8  C   UNL     1       5.253  -9.435  -0.103  0.00  0.00    -0.035 A 
ATOM      9  C   UNL     1       5.090 -10.803  -0.103  0.00  0.00    +0.049 A 
ATOM     10  C   UNL     1       3.814 -11.355  -0.093  0.00  0.00    +0.121 A 
ATOM     11  C   UNL     1       2.697 -10.533  -0.078  0.00  0.00    +0.091 A 
ATOM     12  C   UNL     1       2.848  -9.158  -0.072  0.00  0.00    +0.129 A 
ATOM     13  C   UNL     1       6.638  -8.841  -0.119  0.00  0.00    +0.044 C 
BRANCH  12  14
ATOM     14  O   UNL     1       1.755  -8.352  -0.057  0.00  0.00    -0.506 OA
ATOM     15  H   UNL     1       1.430  -8.114  -0.936  0.00  0.00    +0.292 HD
ENDBRANCH  12  14
BRANCH  10  16
ATOM     16  O   UNL     1       3.661 -12.705  -0.098  0.00  0.00    -0.507 OA
ATOM     17  H   UNL     1       3.608 -13.091  -0.983  0.00  0.00    +0.292 HD
ENDBRANCH  10  16
ENDBRANCH   6   7
ENDBRANCH   3   5
BRANCH   1  18
ATOM     18  C   UNL     1       2.518  -2.668  -0.036  0.00  0.00    +0.326 C 
BRANCH  18  19
ATOM     19  O   UNL     1       1.234  -2.039  -0.020  0.00  0.00    -0.483 OA
BRANCH  19  24
ATOM     20  C   UNL     1       1.147   3.593   0.011  0.00  0.00    +0.044 C 
ATOM     21  C   UNL     1       1.171   2.086   0.002  0.00  0.00    -0.050 A 
ATOM     22  C   UNL     1      -0.017   1.377   0.010  0.00  0.00    +0.007 A 
ATOM     23  C   UNL     1       0.002  -0.004   0.002  0.00  0.00    +0.046 A 
ATOM     24  C   UNL     1       1.213  -0.680  -0.013  0.00  0.00    +0.121 A 
ATOM     25  C   UNL     1       2.403   0.033  -0.021  0.00  0.00    +0.046 A 
ATOM     26  C   UNL     1       2.379   1.415  -0.013  0.00  0.00    +0.007 A 
ENDBRANCH  19  24
ENDBRANCH  18  19
ENDBRANCH   1  18
TORSDOF 7
