REMARK  Name = ZINC40742938
REMARK  10 active torsions:
REMARK  status: ('A' for Active; 'I' for Inactive)
REMARK    1  A    between atoms: C_1  and  C_2
REMARK    2  A    between atoms: C_6  and  C_8
REMARK    3  A    between atoms: C_8  and  O_9
REMARK    4  A    between atoms: O_9  and  C_10
REMARK    5  A    between atoms: C_15  and  C_16
REMARK    6  A    between atoms: C_16  and  N_17
REMARK    7  A    between atoms: N_17  and  CA_18
REMARK    8  A    between atoms: CA_18  and  CB_20
REMARK    9  A    between atoms: CA_18  and  C_31
REMARK   10  A    between atoms: CB_20  and  CG_21
REMARK                            x       y       z     vdW  Elec       q    Type
REMARK                         _______ _______ _______ _____ _____    ______ ____
ROOT
ATOM      1  N   UNL     1       4.298  -2.092   3.974  0.00  0.00    +0.391 N 
ATOM      2  H1  UNL     1       3.479  -1.567   3.706  0.00  0.00    -0.084 HD
ATOM      3  H2  UNL     1       4.477  -1.956   4.958  0.00  0.00    -0.084 HD
ENDROOT
BRANCH   1   4
ATOM      4  C   ACE A   0       4.072  -3.519   3.709  0.00  0.00    -0.042 C 
BRANCH   4  10
ATOM      5  C   UNL     1       1.599  -3.745   4.055  0.00  0.00    +0.122 A 
ATOM      6  C   UNL     1       0.509  -4.191   4.788  0.00  0.00    +0.047 A 
ATOM      7  C   UNL     1       0.707  -4.880   5.969  0.00  0.00    +0.023 A 
ATOM      8  C   UNL     1       1.991  -5.124   6.421  0.00  0.00    +0.041 A 
ATOM      9  C   UNL     1       3.080  -4.680   5.692  0.00  0.00    +0.025 A 
ATOM     10  C   UNL     1       2.886  -3.997   4.507  0.00  0.00    -0.021 A 
ATOM     11 CL   UNL     1       2.238  -5.989   7.906  0.00  0.00    -0.084 Cl
BRANCH   5  12
ATOM     12  O   UNL     1       1.406  -3.067   2.893  0.00  0.00    -0.487 OA
BRANCH  12  13
ATOM     13  C   UNL     1       0.054  -2.845   2.489  0.00  0.00    +0.264 C 
BRANCH  13  19
ATOM     14  C   UNL     1      -0.018   1.503   0.010  0.00  0.00    +0.044 C 
ATOM     15  C   UNL     1       0.002  -0.004   0.002  0.00  0.00    -0.050 A 
ATOM     16  C   UNL     1       0.006  -0.689  -1.199  0.00  0.00    +0.003 A 
ATOM     17  C   UNL     1       0.025  -2.071  -1.207  0.00  0.00    +0.001 A 
ATOM     18  C   UNL     1       0.040  -2.768  -0.013  0.00  0.00    +0.007 A 
ATOM     19  C   UNL     1       0.037  -2.084   1.188  0.00  0.00    -0.010 A 
ATOM     20  C   UNL     1       0.023  -0.702   1.195  0.00  0.00    +0.010 A 
ENDBRANCH  13  19
ENDBRANCH  12  13
ENDBRANCH   5  12
ENDBRANCH   4  10
ENDBRANCH   1   4
BRANCH   1  21
ATOM     21  CA  UNL     1       5.454  -1.626   3.196  0.00  0.00    +0.048 C 
BRANCH  21  22
ATOM     22  C   UNL     1       5.138  -1.714   1.726  0.00  0.00    +0.343 C 
ATOM     23  O   UNL     1       3.999  -1.949   1.359  0.00  0.00    -0.248 OA
ATOM     24  OXT UNL     1       6.021  -1.549   0.901  0.00  0.00    -0.248 OA
ENDBRANCH  21  22
BRANCH  21  25
ATOM     25  CB  UNL     1       5.765  -0.174   3.566  0.00  0.00    +0.032 C 
BRANCH  25  26
ATOM     26  CG  UNL     1       6.200  -0.105   5.007  0.00  0.00    -0.023 A 
ATOM     27  CD1 UNL     1       5.418   0.162   6.065  0.00  0.00    +0.087 A 
ATOM     28  NE1 UNL     1       6.162   0.140   7.213  0.00  0.00    -0.360 N 
ATOM     29  HE1 UNL     1       5.817   0.303   8.104  0.00  0.00    +0.165 HD
ATOM     30  CE2 UNL     1       7.475  -0.150   6.914  0.00  0.00    +0.047 A 
ATOM     31  CD2 UNL     1       7.555  -0.322   5.520  0.00  0.00    +0.003 A 
ATOM     32  CE3 UNL     1       8.779  -0.633   4.925  0.00  0.00    +0.010 A 
ATOM     33  CZ3 UNL     1       9.894  -0.773   5.702  0.00  0.00    +0.001 A 
ATOM     34  CH2 UNL     1       9.820  -0.608   7.079  0.00  0.00    +0.002 A 
ATOM     35  CZ2 UNL     1       8.624  -0.292   7.685  0.00  0.00    +0.026 A 
ENDBRANCH  25  26
ENDBRANCH  21  25
ENDBRANCH   1  21
TORSDOF 9
