REMARK  Name = ZINC03495904
REMARK  17 active torsions:
REMARK  status: ('A' for Active; 'I' for Inactive)
REMARK    1  A    between atoms: C_1  and  N_66
REMARK    2  A    between atoms: C_2  and  C_3
REMARK    3  A    between atoms: C_2  and  N_66
REMARK    4  A    between atoms: C_8  and  O_9
REMARK    5  A    between atoms: O_9  and  C_10
REMARK    6  A    between atoms: C_12  and  C_13
REMARK    7  A    between atoms: C_12  and  N_66
REMARK    8  A    between atoms: C_13  and  C_15
REMARK    9  A    between atoms: C_13  and  O_34
REMARK   10  A    between atoms: C_15  and  O_16
REMARK   11  A    between atoms: O_16  and  C_17
REMARK   12  A    between atoms: C_17  and  C_18
REMARK   13  A    between atoms: C_17  and  C_26
REMARK   14  A    between atoms: C_21  and  O_24
REMARK   15  A    between atoms: O_24  and  C_25
REMARK   16  A    between atoms: C_29  and  O_32
REMARK   17  A    between atoms: O_32  and  C_33
REMARK                            x       y       z     vdW  Elec       q    Type
REMARK                         _______ _______ _______ _____ _____    ______ ____
ROOT
ATOM      1  C   UNL     1       1.850   5.348  -1.464  0.00  0.00    +0.190 C 
ENDROOT
BRANCH   1   2
ATOM      2  C   UNL     1       3.002   5.780  -2.373  0.00  0.00    +0.124 C 
BRANCH   2   3
ATOM      3  O   UNL     1       4.168   6.019  -1.583  0.00  0.00    -0.391 OA
ATOM      4  H   UNL     1       4.057   6.710  -0.916  0.00  0.00    +0.210 HD
ENDBRANCH   2   3
BRANCH   2   5
ATOM      5  C   UNL     1       2.615   7.063  -3.112  0.00  0.00    -0.045 C 
BRANCH   5   7
ATOM      6  C   UNL     1       3.763   6.408  -5.141  0.00  0.00    -0.096 C 
ATOM      7  N   UNL     1       3.695   7.412  -4.058  0.00  0.00    +0.382 N 
ATOM      8  H   UNL     1       4.590   7.421  -3.554  0.00  0.00    -0.082 HD
BRANCH   7   9
ATOM      9  C   UNL     1       3.453   8.754  -4.628  0.00  0.00    -0.040 C 
BRANCH   9  10
ATOM     10  C   UNL     1       4.668   9.176  -5.412  0.00  0.00    -0.021 A 
ATOM     11  C   UNL     1       5.593  10.033  -4.846  0.00  0.00    +0.020 A 
ATOM     12  C   UNL     1       6.711  10.418  -5.564  0.00  0.00    +0.018 A 
ATOM     13  C   UNL     1       6.902   9.953  -6.853  0.00  0.00    +0.019 A 
ATOM     14  C   UNL     1       5.977   9.100  -7.425  0.00  0.00    +0.047 A 
ATOM     15  C   UNL     1       4.857   8.709  -6.705  0.00  0.00    +0.121 A 
ATOM     16 BR   UNL     1       7.978  11.585  -4.784  0.00  0.00    -0.050 Br
BRANCH  15  17
ATOM     17  O   UNL     1       3.947   7.870  -7.265  0.00  0.00    -0.495 OA
ATOM     18  C   UNL     1       4.206   7.429  -8.599  0.00  0.00    +0.277 C 
ENDBRANCH  15  17
ENDBRANCH   9  10
ENDBRANCH   7   9
ENDBRANCH   5   7
ENDBRANCH   2   5
ENDBRANCH   1   2
BRANCH   1  19
ATOM     19  O   UNL     1       2.164   4.089  -0.863  0.00  0.00    -0.365 OA
BRANCH  19  20
ATOM     20  C   UNL     1       1.147   3.593   0.010  0.00  0.00    +0.178 C 
BRANCH  20  21
ATOM     21  C   UNL     1       1.171   2.086   0.002  0.00  0.00    -0.014 A 
ATOM     22  C   UNL     1      -0.017   1.377   0.010  0.00  0.00    +0.010 A 
ATOM     23  C   UNL     1       0.002  -0.004   0.002  0.00  0.00    +0.046 A 
ATOM     24  C   UNL     1       1.213  -0.680  -0.013  0.00  0.00    +0.120 A 
ATOM     25  C   UNL     1       2.403   0.033  -0.021  0.00  0.00    +0.046 A 
ATOM     26  C   UNL     1       2.379   1.415  -0.013  0.00  0.00    +0.010 A 
BRANCH  24  27
ATOM     27  O   UNL     1       1.234  -2.039  -0.020  0.00  0.00    -0.495 OA
ATOM     28  C   UNL     1       2.518  -2.668  -0.036  0.00  0.00    +0.277 C 
ENDBRANCH  24  27
ENDBRANCH  20  21
BRANCH  20  29
ATOM     29  C   UNL     1       1.399   4.092   1.409  0.00  0.00    -0.014 A 
ATOM     30  C   UNL     1       2.696   4.236   1.868  0.00  0.00    +0.010 A 
ATOM     31  C   UNL     1       2.929   4.699   3.148  0.00  0.00    +0.046 A 
ATOM     32  C   UNL     1       1.862   5.008   3.978  0.00  0.00    +0.120 A 
ATOM     33  C   UNL     1       0.562   4.858   3.518  0.00  0.00    +0.046 A 
ATOM     34  C   UNL     1       0.333   4.400   2.235  0.00  0.00    +0.010 A 
BRANCH  32  35
ATOM     35  O   UNL     1       2.089   5.459   5.240  0.00  0.00    -0.495 OA
ATOM     36  C   UNL     1       3.453   5.590   5.646  0.00  0.00    +0.277 C 
ENDBRANCH  32  35
ENDBRANCH  20  29
ENDBRANCH  19  20
ENDBRANCH   1  19
TORSDOF 13
