REMARK  Name = ZINC59588804
REMARK  8 active torsions:
REMARK  status: ('A' for Active; 'I' for Inactive)
REMARK    1  A    between atoms: C_1  and  C_2
REMARK    2  A    between atoms: C_2  and  C_3
REMARK    3  A    between atoms: C_2  and  C_4
REMARK    4  A    between atoms: C_4  and  C_6
REMARK    5  A    between atoms: C_4  and  N_24
REMARK    6  A    between atoms: N_8  and  C_9
REMARK    7  A    between atoms: C_12  and  C_15
REMARK    8  A    between atoms: C_25  and  C_27
REMARK                            x       y       z     vdW  Elec       q    Type
REMARK                         _______ _______ _______ _____ _____    ______ ____
ROOT
ATOM      1  C   UNL     1       0.737  -2.004  -1.264  0.00  0.00    +0.238 C 
ATOM      2  O   UNL     1       0.204  -2.613  -2.168  0.00  0.00    -0.273 OA
ATOM      3  N   UNL     1       1.341  -2.676  -0.264  0.00  0.00    -0.284 N 
ATOM      4  H   UNL     1       1.825  -2.191   0.423  0.00  0.00    +0.155 HD
ENDROOT
BRANCH   3   5
ATOM      5  C   UNL     1       1.270  -4.072  -0.216  0.00  0.00    +0.033 A 
ATOM      6  C   UNL     1       1.281  -4.808  -1.394  0.00  0.00    +0.024 A 
ATOM      7  C   UNL     1       1.211  -6.185  -1.349  0.00  0.00    +0.012 A 
ATOM      8  C   UNL     1       1.130  -6.838  -0.121  0.00  0.00    -0.000 A 
ATOM      9  C   UNL     1       1.119  -6.097   1.060  0.00  0.00    +0.012 A 
ATOM     10  C   UNL     1       1.195  -4.721   1.011  0.00  0.00    +0.024 A 
BRANCH   8  11
ATOM     11  C   UNL     1       1.054  -8.319  -0.070  0.00  0.00    +0.064 A 
ATOM     12  C   UNL     1       1.061  -9.159  -1.139  0.00  0.00    +0.113 A 
ATOM     13  N   UNL     1       0.976 -10.424  -0.640  0.00  0.00    -0.335 N 
ATOM     14  C   UNL     1       0.919 -10.328   0.711  0.00  0.00    +0.087 A 
ATOM     15  N   UNL     1       0.972  -9.073   1.046  0.00  0.00    -0.343 N 
ATOM     16  C   UNL     1       0.816 -11.518   1.637  0.00  0.00    +0.072 C 
ATOM     17  C   UNL     1       0.391 -12.736   0.807  0.00  0.00    +0.009 C 
ATOM     18  C   UNL     1       1.279 -12.834  -0.437  0.00  0.00    +0.022 C 
ATOM     19  C   UNL     1       0.950 -11.681  -1.391  0.00  0.00    +0.123 C 
ATOM     20  H   UNL     1       0.954  -8.733   1.955  0.00  0.00    +0.167 HD
ENDBRANCH   8  11
ENDBRANCH   3   5
BRANCH   1  21
ATOM     21  C   UNL     1       0.724  -0.497  -1.260  0.00  0.00    +0.162 C 
BRANCH  21  22
ATOM     22  N   UNL     1       0.012  -0.012  -2.445  0.00  0.00    -0.300 N 
ATOM     23  C   UNL     1       0.280   1.214  -2.937  0.00  0.00    +0.245 C 
ATOM     24  O   UNL     1       1.113   1.917  -2.398  0.00  0.00    -0.270 OA
ATOM     25  H   UNL     1      -0.652  -0.573  -2.875  0.00  0.00    +0.150 HD
BRANCH  23  26
ATOM     26  C   UNL     1      -0.438   1.704  -4.132  0.00  0.00    +0.037 A 
ATOM     27  C   UNL     1      -1.399   0.901  -4.750  0.00  0.00    +0.014 A 
ATOM     28  C   UNL     1      -2.066   1.363  -5.865  0.00  0.00    +0.021 A 
ATOM     29  C   UNL     1      -1.784   2.621  -6.372  0.00  0.00    +0.041 A 
ATOM     30  C   UNL     1      -0.832   3.422  -5.763  0.00  0.00    +0.021 A 
ATOM     31  C   UNL     1      -0.162   2.973  -4.644  0.00  0.00    +0.014 A 
ATOM     32 CL   UNL     1      -2.627   3.196  -7.776  0.00  0.00    -0.084 Cl
ENDBRANCH  23  26
ENDBRANCH  21  22
BRANCH  21  34
ATOM     33  C   UNL     1       0.003   1.533   0.005  0.00  0.00    +0.009 C 
ATOM     34  C   UNL     1       0.016   0.003   0.001  0.00  0.00    +0.012 C 
ATOM     35  C   UNL     1      -1.422  -0.519   0.020  0.00  0.00    +0.009 C 
ENDBRANCH  21  34
ENDBRANCH   1  21
TORSDOF 6
