REMARK  Name = ZINC03841006
REMARK  11 active torsions:
REMARK  status: ('A' for Active; 'I' for Inactive)
REMARK    1  A    between atoms: C_1  and  C_2
REMARK    2  A    between atoms: C_5  and  O_31
REMARK    3  A    between atoms: C_7  and  C_28
REMARK    4  A    between atoms: C_7  and  C_29
REMARK    5  A    between atoms: N_16  and  C_17
REMARK    6  A    between atoms: C_18  and  C_20
REMARK    7  A    between atoms: C_20  and  C_21
REMARK    8  A    between atoms: N_23  and  C_24
REMARK    9  A    between atoms: N_23  and  C_25
REMARK   10  A    between atoms: C_25  and  C_26
REMARK   11  A    between atoms: C_29  and  O_30
REMARK                            x       y       z     vdW  Elec       q    Type
REMARK                         _______ _______ _______ _____ _____    ______ ____
ROOT
ATOM      1  C   UNL     1       2.056   1.290  -1.249  0.00  0.00    +0.012 C 
ATOM      2  C   UNL     1       1.401   1.940  -0.029  0.00  0.00    -0.019 C 
ATOM      3  C   UNL     1      -0.085   1.568   0.016  0.00  0.00    +0.010 C 
ATOM      4  C   UNL     1      -0.250   0.059   0.177  0.00  0.00    +0.032 C 
ATOM      5  C   UNL     1       0.405  -0.371   1.494  0.00  0.00    +0.123 C 
ATOM      6  C   UNL     1       1.895  -0.044   1.430  0.00  0.00    +0.021 C 
ATOM      7  C   UNL     1       2.102   1.463   1.245  0.00  0.00    +0.011 C 
ATOM      8  C   UNL     1       3.619   1.699   1.101  0.00  0.00    +0.049 C 
ATOM      9  C   UNL     1       3.847   3.072   0.575  0.00  0.00    +0.015 A 
ATOM     10  C   UNL     1       2.939   3.906   0.009  0.00  0.00    +0.058 A 
ATOM     11  N   UNL     1       3.400   5.092  -0.385  0.00  0.00    -0.229 NA
ATOM     12  C   UNL     1       4.663   5.438  -0.236  0.00  0.00    +0.158 A 
ATOM     13  S   UNL     1       5.340   4.027   0.521  0.00  0.00    -0.057 S 
ATOM     14  N   UNL     1       5.289   6.622  -0.590  0.00  0.00    -0.327 N 
ATOM     15  C   UNL     1       6.720   6.801  -0.330  0.00  0.00    +0.127 C 
ATOM     16  C   UNL     1       1.490   3.468  -0.141  0.00  0.00    +0.054 C 
ATOM     17  C   UNL     1       2.568  -0.491   2.730  0.00  0.00    +0.016 C 
ATOM     18  H   UNL     1       4.781   7.333  -1.011  0.00  0.00    +0.148 HD
ENDROOT
BRANCH   5  19
ATOM     19  O   UNL     1       0.231  -1.778   1.679  0.00  0.00    -0.391 OA
ATOM     20  H   UNL     1      -0.694  -2.058   1.716  0.00  0.00    +0.210 HD
ENDBRANCH   5  19
BRANCH  16  21
ATOM     21  C   UNL     1       0.962   3.910  -1.507  0.00  0.00    +0.106 C 
BRANCH  21  22
ATOM     22  C   UNL     1       0.863   5.413  -1.544  0.00  0.00    +0.217 C 
ATOM     23  O   UNL     1       1.183   6.067  -0.574  0.00  0.00    -0.276 OA
ATOM     24  N   UNL     1       0.419   6.032  -2.656  0.00  0.00    -0.293 N 
ATOM     25  C   UNL     1       0.033   5.243  -3.829  0.00  0.00    +0.133 C 
BRANCH  24  26
ATOM     26  C   UNL     1       0.322   7.493  -2.693  0.00  0.00    +0.196 C 
BRANCH  26  27
ATOM     27  C   UNL     1       1.591   8.057  -3.183  0.00  0.00    -0.086 C 
ATOM     28  C   UNL     1       2.602   8.506  -3.574  0.00  0.00    +0.005 C 
ENDBRANCH  26  27
ENDBRANCH  24  26
ENDBRANCH  21  22
ENDBRANCH  16  21
BRANCH   6  29
ATOM     29  C   UNL     1       2.528  -0.790   0.254  0.00  0.00    +0.165 C 
BRANCH  29  30
ATOM     30  O   UNL     1       2.498  -2.196   0.510  0.00  0.00    -0.394 OA
ATOM     31  H   UNL     1       2.884  -2.732  -0.196  0.00  0.00    +0.209 HD
ENDBRANCH  29  30
ENDBRANCH   6  29
TORSDOF 7
