REMARK  Name = ZINC45852868
REMARK  7 active torsions:
REMARK  status: ('A' for Active; 'I' for Inactive)
REMARK    1  A    between atoms: C_1  and  O_2
REMARK    2  A    between atoms: O_2  and  C_3
REMARK    3  A    between atoms: C_3  and  C_5
REMARK    4  A    between atoms: C_7  and  C_11
REMARK    5  A    between atoms: C_17  and  C_19
REMARK    6  A    between atoms: C_19  and  C_20
REMARK    7  A    between atoms: C_27  and  C_32
REMARK                            x       y       z     vdW  Elec       q    Type
REMARK                         _______ _______ _______ _____ _____    ______ ____
ROOT
ATOM      1  C   UNL     1      -2.870  -5.401  -0.007  0.00  0.00    +0.082 A 
ATOM      2  C   UNL     1      -2.369  -6.672  -0.011  0.00  0.00    +0.077 A 
ATOM      3  S   UNL     1      -3.878  -7.626  -0.012  0.00  0.00    -0.060 S 
ATOM      4  C   UNL     1      -4.968  -6.344  -0.007  0.00  0.00    +0.165 A 
ATOM      5  N   UNL     1      -4.192  -5.284   0.001  0.00  0.00    -0.225 NA
ATOM      6  N   UNL     1      -6.356  -6.394  -0.005  0.00  0.00    -0.265 N 
ATOM      7  C   UNL     1      -6.987  -7.585  -0.007  0.00  0.00    +0.220 C 
ATOM      8  O   UNL     1      -6.343  -8.613  -0.010  0.00  0.00    -0.275 OA
ATOM      9  H   UNL     1      -6.872  -5.573  -0.002  0.00  0.00    +0.157 HD
ENDROOT
BRANCH   1  12
ATOM     10  C   UNL     1      -1.248  -2.097   0.003  0.00  0.00    +0.125 A 
ATOM     11  C   UNL     1      -2.392  -2.865   0.004  0.00  0.00    +0.044 A 
ATOM     12  C   UNL     1      -1.981  -4.211  -0.005  0.00  0.00    +0.019 A 
ATOM     13  C   UNL     1      -0.616  -4.224  -0.012  0.00  0.00    +0.093 A 
ATOM     14  N   UNL     1      -0.168  -2.951  -0.013  0.00  0.00    -0.355 N 
ATOM     15  H   UNL     1       0.763  -2.681  -0.020  0.00  0.00    +0.166 HD
BRANCH  10  16
ATOM     16  C   UNL     1      -1.191  -0.633   0.010  0.00  0.00    +0.355 C 
ATOM     17  O   UNL     1      -2.220   0.016   0.023  0.00  0.00    -0.243 OA
BRANCH  16  19
ATOM     18  C   UNL     1      -0.017   1.425   0.010  0.00  0.00    +0.280 C 
ATOM     19  O   UNL     1       0.002  -0.004   0.002  0.00  0.00    -0.463 OA
ENDBRANCH  16  19
ENDBRANCH  10  16
ENDBRANCH   1  12
BRANCH   7  20
ATOM     20  C   UNL     1      -8.493  -7.640  -0.004  0.00  0.00    +0.120 C 
BRANCH  20  21
ATOM     21  C   UNL     1      -8.950  -9.100  -0.007  0.00  0.00    +0.146 C 
ATOM     22  C   UNL     1     -10.451  -9.161   0.108  0.00  0.00    +0.231 C 
ATOM     23  O   UNL     1     -10.938  -9.367   1.200  0.00  0.00    -0.274 OA
ATOM     24  N   UNL     1     -11.268  -9.000  -0.927  0.00  0.00    -0.284 N 
ATOM     25  C   UNL     1     -10.900  -8.872  -2.264  0.00  0.00    +0.047 A 
ATOM     26  C   UNL     1     -11.822  -8.371  -3.177  0.00  0.00    +0.036 A 
ATOM     27  C   UNL     1     -11.478  -8.226  -4.506  0.00  0.00    +0.057 A 
ATOM     28  C   UNL     1     -10.214  -8.576  -4.945  0.00  0.00    +0.013 A 
ATOM     29  C   UNL     1      -9.288  -9.078  -4.049  0.00  0.00    +0.017 A 
ATOM     30  C   UNL     1      -9.630  -9.230  -2.716  0.00  0.00    +0.030 A 
ATOM     31  S   UNL     1      -8.455  -9.893  -1.568  0.00  0.00    -0.110 S 
ATOM     32  H   UNL     1     -12.218  -8.968  -0.733  0.00  0.00    +0.155 HD
BRANCH  27  33
ATOM     33  C   UNL     1     -12.487  -7.684  -5.486  0.00  0.00    +0.417 C 
ATOM     34  F   UNL     1     -12.376  -6.291  -5.546  0.00  0.00    -0.166 F 
ATOM     35  F   UNL     1     -12.245  -8.226  -6.752  0.00  0.00    -0.166 F 
ATOM     36  F   UNL     1     -13.776  -8.032  -5.068  0.00  0.00    -0.166 F 
ENDBRANCH  27  33
ENDBRANCH  20  21
ENDBRANCH   7  20
TORSDOF 6
