REMARK  Name = ZINC36027409
REMARK  6 active torsions:
REMARK  status: ('A' for Active; 'I' for Inactive)
REMARK    1  A    between atoms: C_1  and  C_2
REMARK    2  A    between atoms: C_5  and  S_8
REMARK    3  A    between atoms: S_8  and  N_11
REMARK    4  A    between atoms: C_18  and  C_24
REMARK    5  A    between atoms: N_22  and  C_23
REMARK    6  A    between atoms: C_24  and  C_25
REMARK                            x       y       z     vdW  Elec       q    Type
REMARK                         _______ _______ _______ _____ _____    ______ ____
ROOT
ATOM      1  N   UNL     1       1.650  -4.999  -0.034  0.00  0.00    -0.177 NA
ATOM      2  C   UNL     1       2.367  -5.207  -1.298  0.00  0.00    +0.109 C 
ATOM      3  C   UNL     1       2.977  -6.607  -1.312  0.00  0.00    +0.023 C 
ATOM      4  C   UNL     1       3.743  -6.933  -0.038  0.00  0.00    +0.005 C 
ATOM      5  C   UNL     1       2.927  -6.647   1.220  0.00  0.00    +0.023 C 
ATOM      6  C   UNL     1       2.381  -5.220   1.220  0.00  0.00    +0.109 C 
ATOM      7  N   UNL     1       4.017  -8.404  -0.054  0.00  0.00    +0.401 N 
ATOM      8  C   UNL     1       5.236  -8.502   0.783  0.00  0.00    +0.023 C 
ATOM      9  C   UNL     1       5.951  -7.190   0.544  0.00  0.00    +0.201 C 
ATOM     10  O   UNL     1       7.116  -6.957   0.778  0.00  0.00    -0.277 OA
ATOM     11  N   UNL     1       5.060  -6.309   0.021  0.00  0.00    -0.317 N 
ATOM     12  C   UNL     1       5.434  -4.958  -0.403  0.00  0.00    +0.130 C 
ATOM     13  H   UNL     1       3.248  -8.899   0.363  0.00  0.00    -0.082 HD
ATOM     14  H   UNL     1       4.195  -8.708  -0.995  0.00  0.00    -0.082 HD
ENDROOT
BRANCH   1  15
ATOM     15  S   UNL     1       0.063  -4.530  -0.023  0.00  0.00    +0.061 S 
ATOM     16  O   UNL     1      -0.476  -4.950   1.223  0.00  0.00    -0.153 OA
ATOM     17  O   UNL     1      -0.490  -4.937  -1.267  0.00  0.00    -0.153 OA
BRANCH  15  22
ATOM     18  C   UNL     1      -0.018   1.503   0.010  0.00  0.00    +0.044 C 
ATOM     19  C   UNL     1       0.002  -0.004   0.002  0.00  0.00    -0.050 A 
ATOM     20  C   UNL     1       0.006  -0.689  -1.199  0.00  0.00    +0.005 A 
ATOM     21  C   UNL     1       0.025  -2.071  -1.206  0.00  0.00    +0.029 A 
ATOM     22  C   UNL     1       0.040  -2.768  -0.013  0.00  0.00    +0.105 A 
ATOM     23  C   UNL     1       0.037  -2.084   1.188  0.00  0.00    +0.029 A 
ATOM     24  C   UNL     1       0.023  -0.702   1.195  0.00  0.00    +0.005 A 
ENDBRANCH  15  22
ENDBRANCH   1  15
BRANCH   8  25
ATOM     25  C   UNL     1       6.106  -9.675   0.326  0.00  0.00    +0.028 C 
BRANCH  25  26
ATOM     26  C   UNL     1       5.369 -10.968   0.563  0.00  0.00    -0.048 A 
ATOM     27  C   UNL     1       5.505 -11.630   1.768  0.00  0.00    +0.003 A 
ATOM     28  C   UNL     1       4.829 -12.816   1.985  0.00  0.00    +0.000 A 
ATOM     29  C   UNL     1       4.017 -13.340   0.997  0.00  0.00    +0.000 A 
ATOM     30  C   UNL     1       3.881 -12.677  -0.209  0.00  0.00    +0.000 A 
ATOM     31  C   UNL     1       4.553 -11.489  -0.424  0.00  0.00    +0.003 A 
ENDBRANCH  25  26
ENDBRANCH   8  25
TORSDOF 4
