REMARK  Name = ZINC04622080
REMARK  6 active torsions:
REMARK  status: ('A' for Active; 'I' for Inactive)
REMARK    1  A    between atoms: C_1  and  C_2
REMARK    2  A    between atoms: C_2  and  N_4
REMARK    3  A    between atoms: C_10  and  C_11
REMARK    4  A    between atoms: C_14  and  N_18
REMARK    5  A    between atoms: N_18  and  C_19
REMARK    6  A    between atoms: N_18  and  C_20
REMARK                            x       y       z     vdW  Elec       q    Type
REMARK                         _______ _______ _______ _____ _____    ______ ____
ROOT
ATOM      1  N   UNL     1      -3.870   9.207   2.477  0.00  0.00    -0.159 NA
ATOM      2  C   UNL     1      -3.305   8.125   1.951  0.00  0.00    +0.158 C 
ATOM      3  N   UNL     1      -1.994   7.745   2.018  0.00  0.00    -0.262 N 
ATOM      4  C   UNL     1      -1.583   6.626   1.443  0.00  0.00    +0.256 C 
ATOM      5  O   UNL     1      -0.424   6.259   1.492  0.00  0.00    -0.269 OA
ATOM      6  C   UNL     1      -2.622   5.855   0.734  0.00  0.00    +0.078 C 
ATOM      7  C   UNL     1      -2.514   4.685   0.052  0.00  0.00    +0.028 C 
ATOM      8  S   UNL     1      -4.061   6.871   1.023  0.00  0.00    -0.051 S 
ATOM      9  H   UNL     1      -1.358   8.299   2.497  0.00  0.00    +0.157 HD
ENDROOT
BRANCH   7  10
ATOM     10  C   UNL     1      -1.190   4.104  -0.203  0.00  0.00    -0.023 A 
ATOM     11  C   UNL     1      -0.111   4.933  -0.537  0.00  0.00    +0.010 A 
ATOM     12  C   UNL     1       1.120   4.390  -0.773  0.00  0.00    +0.025 A 
ATOM     13  C   UNL     1       1.308   3.014  -0.684  0.00  0.00    +0.043 A 
ATOM     14  C   UNL     1       0.242   2.180  -0.353  0.00  0.00    +0.039 A 
ATOM     15  C   UNL     1      -1.004   2.717  -0.118  0.00  0.00    +0.025 A 
ATOM     16 BR   UNL     1       0.504   0.311  -0.234  0.00  0.00    -0.048 Br
BRANCH  13  17
ATOM     17  N   UNL     1       2.566   2.469  -0.926  0.00  0.00    -0.335 N 
ATOM     18  C   UNL     1       3.020   2.779  -2.289  0.00  0.00    +0.129 C 
ATOM     19  C   UNL     1       3.541   2.929   0.071  0.00  0.00    +0.129 C 
ENDBRANCH  13  17
ENDBRANCH   7  10
BRANCH   1  21
ATOM     20  C   UNL     1      -5.814  10.650   2.909  0.00  0.00    +0.111 C 
ATOM     21  C   UNL     1      -5.173   9.423   2.313  0.00  0.00    +0.235 C 
ATOM     22  O   UNL     1      -5.846   8.631   1.682  0.00  0.00    -0.274 OA
ENDBRANCH   1  21
TORSDOF 3
