REMARK  Name = ZINC08860092
REMARK  7 active torsions:
REMARK  status: ('A' for Active; 'I' for Inactive)
REMARK    1  A    between atoms: C_1  and  C_2
REMARK    2  A    between atoms: C_2  and  C_3
REMARK    3  A    between atoms: C_3  and  C_4
REMARK    4  A    between atoms: C_4  and  N_5
REMARK    5  A    between atoms: C_9  and  C_10
REMARK    6  A    between atoms: C_11  and  N_21
REMARK    7  A    between atoms: N_24  and  C_27
REMARK                            x       y       z     vdW  Elec       q    Type
REMARK                         _______ _______ _______ _____ _____    ______ ____
ROOT
ATOM      1  C   UNL     1      -0.136   4.057  -0.160  0.00  0.00    +0.081 A 
ATOM      2  C   UNL     1      -1.320   3.339   0.127  0.00  0.00    +0.136 A 
ATOM      3  N   UNL     1      -1.266   2.024   0.282  0.00  0.00    -0.214 NA
ATOM      4  C   UNL     1      -0.116   1.356   0.188  0.00  0.00    +0.142 A 
ATOM      5  C   UNL     1      -0.118  -0.039   0.370  0.00  0.00    +0.047 A 
ATOM      6  C   UNL     1       1.052  -0.732   0.271  0.00  0.00    +0.005 A 
ATOM      7  C   UNL     1       2.240  -0.045  -0.012  0.00  0.00    +0.018 A 
ATOM      8  C   UNL     1       2.224   1.296  -0.184  0.00  0.00    +0.096 A 
ATOM      9  N   UNL     1       1.059   1.998  -0.087  0.00  0.00    -0.268 N 
ATOM     10  C   UNL     1       1.078   3.337  -0.265  0.00  0.00    +0.267 A 
ATOM     11  O   UNL     1       2.123   3.914  -0.511  0.00  0.00    -0.267 OA
ENDROOT
BRANCH   1  16
ATOM     12  N   UNL     1      -1.990   7.659  -2.631  0.00  0.00    -0.255 N 
ATOM     13  C   UNL     1      -1.122   7.373  -1.675  0.00  0.00    +0.258 C 
ATOM     14  O   UNL     1      -0.460   8.249  -1.148  0.00  0.00    -0.269 OA
ATOM     15  C   UNL     1      -0.981   6.011  -1.284  0.00  0.00    +0.077 C 
ATOM     16  C   UNL     1      -0.164   5.460  -0.339  0.00  0.00    +0.037 C 
ATOM     17  S   UNL     1      -2.170   5.221  -2.360  0.00  0.00    -0.061 S 
ATOM     18  C   UNL     1      -2.730   6.688  -3.211  0.00  0.00    +0.121 C 
ATOM     19  S   UNL     1      -3.905   6.829  -4.448  0.00  0.00    -0.027 S 
BRANCH  12  20
ATOM     20  C   UNL     1      -2.156   9.049  -3.062  0.00  0.00    +0.115 C 
BRANCH  20  21
ATOM     21  C   UNL     1      -3.239   9.720  -2.216  0.00  0.00    +0.019 C 
BRANCH  21  23
ATOM     22  C   UNL     1      -4.496  11.843  -1.819  0.00  0.00    +0.004 C 
ATOM     23  C   UNL     1      -3.413  11.172  -2.666  0.00  0.00    -0.002 C 
ENDBRANCH  21  23
ENDBRANCH  20  21
ENDBRANCH  12  20
ENDBRANCH   1  16
BRANCH   2  24
ATOM     24  N   UNL     1      -2.524   4.001   0.237  0.00  0.00    -0.312 N 
ATOM     25  C   UNL     1      -2.519   4.913   1.390  0.00  0.00    +0.125 C 
ATOM     26  C   UNL     1      -3.840   5.685   1.431  0.00  0.00    +0.124 C 
ATOM     27  N   UNL     1      -4.958   4.735   1.519  0.00  0.00    -0.325 N 
ATOM     28  C   UNL     1      -4.962   3.824   0.366  0.00  0.00    +0.124 C 
ATOM     29  C   UNL     1      -3.641   3.051   0.325  0.00  0.00    +0.125 C 
BRANCH  27  30
ATOM     30  C   UNL     1      -6.179   5.407   1.631  0.00  0.00    +0.065 A 
ATOM     31  C   UNL     1      -7.354   4.690   1.806  0.00  0.00    +0.026 A 
ATOM     32  C   UNL     1      -8.559   5.356   1.916  0.00  0.00    +0.002 A 
ATOM     33  C   UNL     1      -8.597   6.737   1.852  0.00  0.00    +0.003 A 
ATOM     34  C   UNL     1      -7.428   7.457   1.678  0.00  0.00    +0.040 A 
ATOM     35  C   UNL     1      -6.218   6.796   1.573  0.00  0.00    +0.144 A 
ATOM     36  F   UNL     1      -5.076   7.499   1.408  0.00  0.00    -0.204 F 
ENDBRANCH  27  30
ENDBRANCH   2  24
TORSDOF 6
