REMARK  Name = ZINC39696627
REMARK  8 active torsions:
REMARK  status: ('A' for Active; 'I' for Inactive)
REMARK    1  A    between atoms: C_1  and  C_2
REMARK    2  A    between atoms: C_2  and  O_4
REMARK    3  A    between atoms: O_4  and  C_5
REMARK    4  A    between atoms: C_10  and  C_11
REMARK    5  A    between atoms: C_15  and  C_24
REMARK    6  A    between atoms: N_26  and  C_27
REMARK    7  A    between atoms: C_27  and  C_28
REMARK    8  A    between atoms: N_31  and  C_35
REMARK                            x       y       z     vdW  Elec       q    Type
REMARK                         _______ _______ _______ _____ _____    ______ ____
ROOT
ATOM      1  C   UNL     1      -3.441  -2.248  -0.116  0.00  0.00    +0.250 C 
ATOM      2  O   UNL     1      -3.564  -1.041  -0.194  0.00  0.00    -0.270 OA
ATOM      3  N   UNL     1      -4.533  -3.037  -0.083  0.00  0.00    -0.296 N 
ATOM      4  C   UNL     1      -4.584  -4.517  -0.052  0.00  0.00    +0.121 C 
ATOM      5  C   UNL     1      -5.738  -4.848   0.921  0.00  0.00    +0.100 C 
ATOM      6  C   UNL     1      -6.635  -3.599   0.905  0.00  0.00    -0.004 C 
ATOM      7  C   UNL     1      -5.955  -2.618  -0.061  0.00  0.00    +0.115 C 
ATOM      8  C   UNL     1      -8.030  -3.957   0.402  0.00  0.00    -0.010 C 
ATOM      9  C   UNL     1      -8.920  -2.712   0.450  0.00  0.00    -0.082 C 
ATOM     10  N   UNL     1      -8.989  -2.210   1.828  0.00  0.00    +0.379 N 
ATOM     11  C   UNL     1      -7.657  -1.782   2.272  0.00  0.00    -0.082 C 
ATOM     12  C   UNL     1      -6.713  -2.987   2.301  0.00  0.00    -0.010 C 
ATOM     13  H   UNL     1      -9.623  -1.427   1.868  0.00  0.00    -0.086 HD
ATOM     14  H   UNL     1      -9.324  -2.943   2.435  0.00  0.00    -0.086 HD
ENDROOT
BRANCH   1  20
ATOM     15  C   UNL     1      -1.061  -2.201   0.630  0.00  0.00    +0.144 A 
ATOM     16  C   UNL     1       0.198  -2.779   0.683  0.00  0.00    +0.047 A 
ATOM     17  C   UNL     1       0.434  -3.986   0.054  0.00  0.00    +0.004 A 
ATOM     18  C   UNL     1      -0.584  -4.627  -0.633  0.00  0.00    +0.001 A 
ATOM     19  C   UNL     1      -1.841  -4.067  -0.696  0.00  0.00    +0.017 A 
ATOM     20  C   UNL     1      -2.094  -2.850  -0.059  0.00  0.00    +0.079 A 
BRANCH  15  21
ATOM     21  O   UNL     1      -1.294  -1.016   1.248  0.00  0.00    -0.425 OA
BRANCH  21  23
ATOM     22  C   UNL     1      -1.907   0.245   3.281  0.00  0.00    +0.136 C 
ATOM     23  C   UNL     1      -1.742  -1.041   2.514  0.00  0.00    +0.309 C 
ATOM     24  O   UNL     1      -2.012  -2.096   3.038  0.00  0.00    -0.251 OA
ENDBRANCH  21  23
ENDBRANCH  15  21
ENDBRANCH   1  20
BRANCH   5  25
ATOM     25  C   UNL     1      -5.200  -5.094   2.308  0.00  0.00    +0.218 C 
ATOM     26  O   UNL     1      -4.242  -4.466   2.706  0.00  0.00    -0.275 OA
ATOM     27  N   UNL     1      -5.785  -6.010   3.104  0.00  0.00    -0.313 N 
ATOM     28  H   UNL     1      -6.551  -6.512   2.785  0.00  0.00    +0.149 HD
BRANCH  27  29
ATOM     29  C   UNL     1      -5.263  -6.249   4.452  0.00  0.00    +0.137 C 
BRANCH  29  30
ATOM     30  C   UNL     1      -6.100  -7.329   5.140  0.00  0.00    +0.149 C 
ATOM     31  C   UNL     1      -5.556  -7.577   6.549  0.00  0.00    +0.117 C 
ATOM     32  N   UNL     1      -6.410  -8.559   7.232  0.00  0.00    -0.301 NA
ATOM     33  C   UNL     1      -7.799  -8.081   7.305  0.00  0.00    +0.112 C 
ATOM     34  C   UNL     1      -8.320  -7.828   5.888  0.00  0.00    +0.175 C 
ATOM     35  O   UNL     1      -7.460  -6.895   5.228  0.00  0.00    -0.372 OA
ATOM     36  C   UNL     1      -5.890  -8.869   8.571  0.00  0.00    +0.105 C 
ENDBRANCH  29  30
ENDBRANCH  27  29
ENDBRANCH   5  25
TORSDOF 6
