REMARK  Name = ZINC09595549
REMARK  8 active torsions:
REMARK  status: ('A' for Active; 'I' for Inactive)
REMARK    1  A    between atoms: C_1  and  C_2
REMARK    2  A    between atoms: C_2  and  C_33
REMARK    3  A    between atoms: C_13  and  C_15
REMARK    4  A    between atoms: C_15  and  O_16
REMARK    5  A    between atoms: O_16  and  C_17
REMARK    6  A    between atoms: C_17  and  C_19
REMARK    7  A    between atoms: C_19  and  N_20
REMARK    8  A    between atoms: C_21  and  C_23
REMARK                            x       y       z     vdW  Elec       q    Type
REMARK                         _______ _______ _______ _____ _____    ______ ____
ROOT
ATOM      1  O   UNL     1       3.711  11.360   0.761  0.00  0.00    -0.454 OA
ENDROOT
BRANCH   1   2
ATOM      2  C   UNL     1       2.944  10.266   0.896  0.00  0.00    +0.325 C 
ATOM      3  O   UNL     1       1.762  10.323   0.651  0.00  0.00    -0.249 OA
BRANCH   2   4
ATOM      4  C   UNL     1       3.557   8.968   1.354  0.00  0.00    +0.225 C 
BRANCH   4   5
ATOM      5  N   UNL     1       2.519   7.935   1.421  0.00  0.00    -0.300 N 
ATOM      6  C   UNL     1       2.838   6.684   1.809  0.00  0.00    +0.253 C 
ATOM      7  O   UNL     1       3.987   6.413   2.104  0.00  0.00    -0.270 OA
ATOM      8  H   UNL     1       1.604   8.152   1.186  0.00  0.00    +0.150 HD
BRANCH   6   9
ATOM      9  C   UNL     1       1.799   5.649   1.876  0.00  0.00    +0.093 A 
ATOM     10  C   UNL     1       1.924   4.344   2.240  0.00  0.00    +0.068 A 
ATOM     11  C   UNL     1       0.794   3.504   2.238  0.00  0.00    +0.008 A 
ATOM     12  C   UNL     1       0.722   2.130   2.583  0.00  0.00    +0.010 A 
ATOM     13  C   UNL     1      -0.459   1.461   2.527  0.00  0.00    +0.001 A 
ATOM     14  C   UNL     1      -1.633   2.088   2.128  0.00  0.00    +0.001 A 
ATOM     15  C   UNL     1      -1.608   3.426   1.789  0.00  0.00    +0.016 A 
ATOM     16  C   UNL     1      -0.417   4.118   1.842  0.00  0.00    +0.021 A 
ATOM     17  S   UNL     1       0.061   5.793   1.499  0.00  0.00    -0.082 S 
ATOM     18 CL   UNL     1       3.474   3.716   2.706  0.00  0.00    -0.082 Cl
ENDBRANCH   6   9
ENDBRANCH   4   5
ENDBRANCH   2   4
ENDBRANCH   1   2
BRANCH   1  19
ATOM     19  C   UNL     1       3.053  12.575   0.316  0.00  0.00    +0.328 C 
BRANCH  19  32
ATOM     20  C   UNL     1       6.008  15.596   0.298  0.00  0.00    +0.042 C 
ATOM     21  C   UNL     1       4.619  16.049  -0.159  0.00  0.00    +0.113 C 
ATOM     22  C   UNL     1       4.194  17.250   0.640  0.00  0.00    +0.241 C 
ATOM     23  O   UNL     1       5.033  18.027   1.045  0.00  0.00    -0.273 OA
ATOM     24  N   UNL     1       2.895  17.470   0.916  0.00  0.00    -0.282 N 
ATOM     25  C   UNL     1       1.913  16.562   0.505  0.00  0.00    +0.055 A 
ATOM     26  C   UNL     1       0.571  16.910   0.529  0.00  0.00    +0.025 A 
ATOM     27  C   UNL     1      -0.385  15.994   0.130  0.00  0.00    +0.002 A 
ATOM     28  C   UNL     1      -0.009  14.732  -0.294  0.00  0.00    +0.002 A 
ATOM     29  C   UNL     1       1.327  14.377  -0.324  0.00  0.00    +0.025 A 
ATOM     30  C   UNL     1       2.288  15.289   0.074  0.00  0.00    +0.059 A 
ATOM     31  N   UNL     1       3.653  14.960   0.052  0.00  0.00    -0.253 N 
ATOM     32  C   UNL     1       4.064  13.689   0.224  0.00  0.00    +0.258 C 
ATOM     33  O   UNL     1       5.249  13.440   0.304  0.00  0.00    -0.271 OA
ATOM     34  C   UNL     1       4.661  16.416  -1.643  0.00  0.00    +0.042 C 
ATOM     35  H   UNL     1       2.637  18.267   1.406  0.00  0.00    +0.155 HD
ENDBRANCH  19  32
ENDBRANCH   1  19
TORSDOF 6
