REMARK  Name = ZINC17195877
REMARK  10 active torsions:
REMARK  status: ('A' for Active; 'I' for Inactive)
REMARK    1  A    between atoms: C_1  and  C_2
REMARK    2  A    between atoms: C_2  and  C_3
REMARK    3  A    between atoms: N_5  and  C_6
REMARK    4  A    between atoms: C_6  and  C_7
REMARK    5  A    between atoms: C_7  and  C_8
REMARK    6  A    between atoms: C_17  and  C_18
REMARK    7  A    between atoms: N_25  and  C_28
REMARK    8  A    between atoms: C_31  and  C_34
REMARK    9  A    between atoms: C_34  and  C_35
REMARK   10  A    between atoms: C_34  and  C_36
REMARK                            x       y       z     vdW  Elec       q    Type
REMARK                         _______ _______ _______ _____ _____    ______ ____
ROOT
ATOM      1  C   UNL     1       0.138  -5.465   5.168  0.00  0.00    +0.044 C 
ATOM      2  C   UNL     1      -0.187  -5.396   6.519  0.00  0.00    +0.103 C 
ATOM      3  C   UNL     1      -1.464  -4.829   6.974  0.00  0.00    +0.276 C 
ATOM      4  O   UNL     1      -2.364  -4.356   6.086  0.00  0.00    -0.268 OA
ATOM      5  N   UNL     1      -1.712  -4.794   8.273  0.00  0.00    -0.123 NA
ATOM      6  C   UNL     1      -0.844  -5.254   9.170  0.00  0.00    +0.340 C 
ATOM      7  O   UNL     1      -1.145  -5.187  10.349  0.00  0.00    -0.250 OA
ATOM      8  N   UNL     1       0.343  -5.787   8.848  0.00  0.00    -0.188 N 
ATOM      9  C   UNL     1       0.732  -5.895   7.559  0.00  0.00    +0.264 C 
ATOM     10  O   UNL     1       1.808  -6.384   7.266  0.00  0.00    -0.269 OA
ENDROOT
BRANCH   1  20
ATOM     11  C   UNL     1       1.754  -6.709   3.757  0.00  0.00    -0.013 A 
ATOM     12  C   UNL     1       3.162  -6.792   3.688  0.00  0.00    +0.003 A 
ATOM     13  C   UNL     1       4.043  -7.508   2.862  0.00  0.00    +0.010 A 
ATOM     14  C   UNL     1       5.389  -7.383   3.038  0.00  0.00    +0.001 A 
ATOM     15  C   UNL     1       5.900  -6.552   4.028  0.00  0.00    +0.002 A 
ATOM     16  C   UNL     1       5.058  -5.840   4.852  0.00  0.00    +0.026 A 
ATOM     17  C   UNL     1       3.679  -5.948   4.694  0.00  0.00    +0.047 A 
ATOM     18  N   UNL     1       2.614  -5.375   5.348  0.00  0.00    -0.354 N 
ATOM     19  H   UNL     1       2.675  -4.749   6.087  0.00  0.00    +0.166 HD
ATOM     20  C   UNL     1       1.439  -5.832   4.775  0.00  0.00    +0.044 A 
BRANCH  11  21
ATOM     21  C   UNL     1       0.775  -7.439   2.875  0.00  0.00    +0.056 C 
BRANCH  21  22
ATOM     22  C   UNL     1       0.468  -6.590   1.640  0.00  0.00    +0.109 C 
BRANCH  22  25
ATOM     23  C   UNL     1      -0.902  -6.739  -0.369  0.00  0.00    +0.213 C 
ATOM     24  O   UNL     1      -0.490  -5.646  -0.696  0.00  0.00    -0.276 OA
ATOM     25  N   UNL     1      -0.484  -7.300   0.783  0.00  0.00    -0.315 N 
ATOM     26  H   UNL     1      -0.814  -8.174   1.044  0.00  0.00    +0.149 HD
BRANCH  23  28
ATOM     27  C   UNL     1      -2.188  -6.620  -2.486  0.00  0.00    +0.013 C 
ATOM     28  C   UNL     1      -1.882  -7.470  -1.251  0.00  0.00    +0.092 C 
ENDBRANCH  23  28
ENDBRANCH  22  25
ENDBRANCH  21  22
ENDBRANCH  11  21
ENDBRANCH   1  20
BRANCH   8  29
ATOM     29  C   UNL     1       1.192  -6.245   9.864  0.00  0.00    +0.046 A 
ATOM     30  C   UNL     1       2.106  -5.379  10.450  0.00  0.00    +0.024 A 
ATOM     31  C   UNL     1       2.941  -5.833  11.452  0.00  0.00    +0.006 A 
ATOM     32  C   UNL     1       2.867  -7.148  11.873  0.00  0.00    -0.045 A 
ATOM     33  C   UNL     1       1.958  -8.013  11.291  0.00  0.00    +0.006 A 
ATOM     34  C   UNL     1       1.117  -7.564  10.292  0.00  0.00    +0.024 A 
BRANCH  32  35
ATOM     35  C   UNL     1       3.779  -7.641  12.966  0.00  0.00    +0.013 C 
ATOM     36  C   UNL     1       2.940  -8.142  14.143  0.00  0.00    +0.012 C 
ATOM     37  C   UNL     1       4.644  -8.784  12.433  0.00  0.00    +0.012 C 
ENDBRANCH  32  35
ENDBRANCH   8  29
TORSDOF 7
