REMARK  Name = ZINC40083592
REMARK  9 active torsions:
REMARK  status: ('A' for Active; 'I' for Inactive)
REMARK    1  A    between atoms: C_1  and  C_2
REMARK    2  A    between atoms: C_2  and  C_3
REMARK    3  A    between atoms: C_11  and  C_14
REMARK    4  A    between atoms: C_17  and  S_20
REMARK    5  A    between atoms: N_18  and  C_19
REMARK    6  A    between atoms: S_20  and  C_21
REMARK    7  A    between atoms: C_21  and  C_22
REMARK    8  A    between atoms: C_22  and  C_24
REMARK    9  A    between atoms: C_26  and  C_29
REMARK                            x       y       z     vdW  Elec       q    Type
REMARK                         _______ _______ _______ _____ _____    ______ ____
ROOT
ATOM      1  C   UNL     1       2.619  -5.357  -4.672  0.00  0.00    +0.147 A 
ATOM      2  N   UNL     1       3.758  -5.748  -4.174  0.00  0.00    -0.132 NA
ATOM      3  N   UNL     1       4.020  -6.946  -4.558  0.00  0.00    -0.122 NA
ATOM      4  C   UNL     1       3.054  -7.388  -5.330  0.00  0.00    +0.192 A 
ATOM      5  N   UNL     1       2.127  -6.390  -5.423  0.00  0.00    -0.308 N 
ATOM      6  C   UNL     1       0.869  -6.417  -6.173  0.00  0.00    +0.152 C 
ENDROOT
BRANCH   1  14
ATOM      7  C   UNL     1       0.718  -0.497  -1.257  0.00  0.00    -0.007 C 
ATOM      8  C   UNL     1       2.189  -0.073  -1.207  0.00  0.00    +0.009 C 
ATOM      9  C   UNL     1       2.823  -0.356  -2.575  0.00  0.00    +0.042 C 
ATOM     10  C   UNL     1       2.454  -1.750  -2.999  0.00  0.00    -0.015 C 
ATOM     11  C   UNL     1       1.508  -2.520  -2.475  0.00  0.00    -0.058 C 
ATOM     12  C   UNL     1       0.631  -2.021  -1.329  0.00  0.00    +0.035 C 
ATOM     13  C   UNL     1       1.345  -3.908  -3.042  0.00  0.00    +0.054 C 
ATOM     14  C   UNL     1       1.962  -4.018  -4.457  0.00  0.00    +0.123 C 
ATOM     15  S   UNL     1       3.207  -2.667  -4.324  0.00  0.00    -0.118 S 
BRANCH   7  17
ATOM     16  C   UNL     1      -0.019   1.526   0.010  0.00  0.00    +0.004 C 
ATOM     17  C   UNL     1       0.002  -0.004   0.002  0.00  0.00    +0.000 C 
ENDBRANCH   7  17
ENDBRANCH   1  14
BRANCH   4  18
ATOM     18  S   UNL     1       2.967  -8.973  -6.095  0.00  0.00    -0.078 S 
BRANCH  18  19
ATOM     19  C   UNL     1       4.491  -9.801  -5.564  0.00  0.00    +0.156 C 
BRANCH  19  20
ATOM     20  C   UNL     1       4.543 -11.185  -6.157  0.00  0.00    +0.171 C 
ATOM     21  O   UNL     1       3.640 -11.575  -6.868  0.00  0.00    -0.291 OA
BRANCH  20  22
ATOM     22  C   UNL     1       5.681 -12.059  -5.876  0.00  0.00    +0.019 C 
ATOM     23  C   UNL     1       5.877 -13.316  -6.333  0.00  0.00    +0.041 C 
ATOM     24  C   UNL     1       7.150 -13.825  -5.805  0.00  0.00    +0.121 C 
ATOM     25  N   UNL     1       7.728 -12.941  -5.055  0.00  0.00    -0.274 NA
ATOM     26  C   UNL     1       6.885 -11.740  -5.018  0.00  0.00    +0.181 C 
BRANCH  24  27
ATOM     27  C   UNL     1       7.701 -15.176  -6.093  0.00  0.00    +0.265 C 
ATOM     28  O   UNL     1       7.088 -15.942  -6.810  0.00  0.00    -0.268 OA
ATOM     29  N   UNL     1       8.880 -15.551  -5.559  0.00  0.00    -0.296 N 
ATOM     30  C   UNL     1       9.720 -14.730  -4.674  0.00  0.00    +0.108 C 
ATOM     31  C   UNL     1      10.977 -15.558  -4.337  0.00  0.00    +0.020 C 
ATOM     32  C   UNL     1      11.045 -16.578  -5.504  0.00  0.00    +0.020 C 
ATOM     33  C   UNL     1       9.540 -16.854  -5.761  0.00  0.00    +0.108 C 
ENDBRANCH  24  27
ENDBRANCH  20  22
ENDBRANCH  19  20
ENDBRANCH  18  19
ENDBRANCH   4  18
TORSDOF 7
