REMARK  Name = ZINC33636225
REMARK  10 active torsions:
REMARK  status: ('A' for Active; 'I' for Inactive)
REMARK    1  A    between atoms: C_1  and  C_2
REMARK    2  A    between atoms: C_5  and  C_41
REMARK    3  A    between atoms: C_6  and  C_8
REMARK    4  A    between atoms: N_16  and  C_19
REMARK    5  A    between atoms: C_22  and  C_25
REMARK    6  A    between atoms: C_25  and  C_27
REMARK    7  A    between atoms: C_28  and  C_30
REMARK    8  A    between atoms: C_28  and  C_38
REMARK    9  A    between atoms: C_30  and  C_31
REMARK   10  A    between atoms: C_34  and  O_37
REMARK                            x       y       z     vdW  Elec       q    Type
REMARK                         _______ _______ _______ _____ _____    ______ ____
ROOT
ATOM      1  C   UNL     1       0.742   3.884   2.299  0.00  0.00    -0.026 C 
ATOM      2  C   UNL     1       2.196   3.497   2.089  0.00  0.00    +0.077 C 
ATOM      3  C   UNL     1       2.276   3.721   0.531  0.00  0.00    +0.086 C 
ATOM      4  C   UNL     1       3.701   3.753   0.312  0.00  0.00    +0.229 C 
ATOM      5  O   UNL     1       4.307   3.352  -0.657  0.00  0.00    -0.275 OA
ATOM      6  N   UNL     1       4.222   4.337   1.440  0.00  0.00    -0.210 N 
ATOM      7  C   UNL     1       3.314   4.420   2.459  0.00  0.00    +0.229 C 
ATOM      8  O   UNL     1       3.398   5.103   3.458  0.00  0.00    -0.275 OA
ATOM      9  C   UNL     1       1.069   3.020   0.060  0.00  0.00    +0.052 C 
ATOM     10  N   UNL     1       0.032   3.461   1.054  0.00  0.00    +0.396 N 
ATOM     11  H   UNL     1      -0.651   2.630   1.286  0.00  0.00    -0.083 HD
ATOM     12  H   UNL     1      -0.545   4.308   0.655  0.00  0.00    -0.083 HD
ENDROOT
BRANCH   1  18
ATOM     13  C   UNL     1       0.181   8.466   0.366  0.00  0.00    +0.044 C 
ATOM     14  C   UNL     1       0.351   7.566   1.563  0.00  0.00    -0.050 A 
ATOM     15  C   UNL     1       0.393   8.107   2.835  0.00  0.00    +0.003 A 
ATOM     16  C   UNL     1       0.548   7.282   3.932  0.00  0.00    +0.004 A 
ATOM     17  C   UNL     1       0.657   5.915   3.759  0.00  0.00    -0.049 A 
ATOM     18  C   UNL     1       0.619   5.374   2.488  0.00  0.00    -0.057 A 
ATOM     19  C   UNL     1       0.463   6.200   1.390  0.00  0.00    +0.005 A 
ATOM     20  C   UNL     1       0.821   5.014   4.956  0.00  0.00    +0.044 C 
ENDBRANCH   1  18
BRANCH   6  21
ATOM     21  C   UNL     1       5.538   4.796   1.537  0.00  0.00    +0.044 A 
ATOM     22  C   UNL     1       6.399   4.666   0.452  0.00  0.00    +0.024 A 
ATOM     23  C   UNL     1       7.694   5.121   0.540  0.00  0.00    +0.013 A 
ATOM     24  C   UNL     1       8.149   5.706   1.728  0.00  0.00    +0.017 A 
ATOM     25  C   UNL     1       7.280   5.829   2.820  0.00  0.00    +0.013 A 
ATOM     26  C   UNL     1       5.985   5.376   2.720  0.00  0.00    +0.024 A 
BRANCH  24  27
ATOM     27  C   UNL     1       9.533   6.189   1.830  0.00  0.00    +0.160 C 
ATOM     28  O   UNL     1       9.956   6.599   2.890  0.00  0.00    -0.292 OA
ATOM     29  C   UNL     1      10.427   6.175   0.617  0.00  0.00    +0.091 C 
ENDBRANCH  24  27
ENDBRANCH   6  21
BRANCH   9  30
ATOM     30  C   UNL     1       1.263   1.527   0.113  0.00  0.00    +0.347 C 
ATOM     31  O   UNL     1       2.364   1.054  -0.043  0.00  0.00    -0.248 OA
ATOM     32  O   UNL     1       0.212   0.721   0.333  0.00  0.00    -0.248 OA
ENDBRANCH   9  30
BRANCH   9  33
ATOM     33  C   UNL     1       0.692   3.467  -1.354  0.00  0.00    +0.035 C 
BRANCH  33  34
ATOM     34  C   UNL     1      -0.644   2.879  -1.727  0.00  0.00    -0.048 A 
ATOM     35  C   UNL     1      -0.705   1.648  -2.355  0.00  0.00    +0.007 A 
ATOM     36  C   UNL     1      -1.929   1.104  -2.693  0.00  0.00    +0.045 A 
ATOM     37  C   UNL     1      -3.097   1.799  -2.413  0.00  0.00    +0.117 A 
ATOM     38  C   UNL     1      -3.032   3.036  -1.788  0.00  0.00    +0.045 A 
ATOM     39  C   UNL     1      -1.806   3.573  -1.447  0.00  0.00    +0.007 A 
BRANCH  37  40
ATOM     40  O   UNL     1      -4.302   1.269  -2.750  0.00  0.00    -0.507 OA
ATOM     41  H   UNL     1      -5.227   1.820  -2.528  0.00  0.00    +0.292 HD
ENDBRANCH  37  40
ENDBRANCH  33  34
ENDBRANCH   9  33
TORSDOF 7
