REMARK  Name = ZINC32346474
REMARK  7 active torsions:
REMARK  status: ('A' for Active; 'I' for Inactive)
REMARK    1  A    between atoms: C_1  and  C_2
REMARK    2  A    between atoms: C_2  and  C_4
REMARK    3  A    between atoms: C_2  and  N_22
REMARK    4  A    between atoms: C_4  and  N_5
REMARK    5  A    between atoms: C_6  and  C_8
REMARK    6  A    between atoms: C_8  and  C_9
REMARK    7  A    between atoms: C_9  and  N_10
REMARK                            x       y       z     vdW  Elec       q    Type
REMARK                         _______ _______ _______ _____ _____    ______ ____
ROOT
ATOM      1  N   UNL     1      -0.167   1.272   2.469  0.00  0.00    -0.317 N 
ATOM      2  C   UNL     1      -0.623   1.576   1.238  0.00  0.00    +0.215 C 
ATOM      3  O   UNL     1      -1.666   2.183   1.109  0.00  0.00    -0.276 OA
ATOM      4  H   UNL     1       0.778   0.722   2.586  0.00  0.00    +0.149 HD
ENDROOT
BRANCH   1   5
ATOM      5  C   UNL     1      -0.931   1.675   3.653  0.00  0.00    +0.088 C 
BRANCH   5   7
ATOM      6  C   UNL     1      -0.981   1.639   6.151  0.00  0.00    -0.012 C 
ATOM      7  C   UNL     1      -0.262   1.111   4.908  0.00  0.00    -0.054 C 
BRANCH   7   8
ATOM      8  N   UNL     1       1.146   1.528   4.942  0.00  0.00    +0.382 N 
ATOM      9  C   UNL     1       1.914   0.724   5.919  0.00  0.00    -0.078 C 
ATOM     10  C   UNL     1       3.283   1.285   6.189  0.00  0.00    -0.019 C 
ATOM     11  C   UNL     1       3.201   2.201   7.428  0.00  0.00    -0.002 C 
ATOM     12  C   UNL     1       2.640   3.509   7.109  0.00  0.00    -0.002 C 
ATOM     13  C   UNL     1       1.199   3.409   6.567  0.00  0.00    -0.019 C 
ATOM     14  C   UNL     1       1.261   2.992   5.122  0.00  0.00    -0.078 C 
ATOM     15  H   UNL     1       1.603   1.316   3.964  0.00  0.00    -0.081 HD
ENDBRANCH   7   8
ENDBRANCH   5   7
ENDBRANCH   1   5
BRANCH   2  16
ATOM     16  C   UNL     1       0.162   1.161   0.020  0.00  0.00    +0.117 C 
BRANCH  16  17
ATOM     17  C   UNL     1      -0.569   1.625  -1.241  0.00  0.00    +0.135 C 
BRANCH  17  18
ATOM     18  N   UNL     1       0.194   1.223  -2.425  0.00  0.00    -0.298 N 
ATOM     19  C   UNL     1       1.131   2.061  -2.938  0.00  0.00    +0.202 A 
ATOM     20  N   UNL     1       1.852   1.775  -3.980  0.00  0.00    -0.237 NA
ATOM     21  C   UNL     1       1.706   0.601  -4.645  0.00  0.00    +0.078 A 
ATOM     22  C   UNL     1       2.476   0.295  -5.769  0.00  0.00    +0.029 A 
ATOM     23  C   UNL     1       2.295  -0.908  -6.413  0.00  0.00    +0.017 A 
ATOM     24  C   UNL     1       1.354  -1.824  -5.958  0.00  0.00    +0.019 A 
ATOM     25  C   UNL     1       0.582  -1.544  -4.851  0.00  0.00    +0.030 A 
ATOM     26  C   UNL     1       0.750  -0.332  -4.185  0.00  0.00    +0.066 A 
ATOM     27  C   UNL     1      -0.044   0.021  -2.999  0.00  0.00    +0.262 A 
ATOM     28  O   UNL     1      -0.885  -0.738  -2.553  0.00  0.00    -0.267 OA
ATOM     29 BR   UNL     1       1.131  -3.468  -6.866  0.00  0.00    -0.050 Br
ENDBRANCH  17  18
ENDBRANCH  16  17
ENDBRANCH   2  16
TORSDOF 6
