REMARK  Name = ZINC04149913
REMARK  6 active torsions:
REMARK  status: ('A' for Active; 'I' for Inactive)
REMARK    1  A    between atoms: C_1  and  C_2
REMARK    2  A    between atoms: C_5  and  S_9
REMARK    3  A    between atoms: C_6  and  C_8
REMARK    4  A    between atoms: S_9  and  N_12
REMARK    5  A    between atoms: N_12  and  C_13
REMARK    6  A    between atoms: C_16  and  O_23
REMARK                            x       y       z     vdW  Elec       q    Type
REMARK                         _______ _______ _______ _____ _____    ______ ____
ROOT
ATOM      1  N   UNL     1       3.391   1.045  -1.506  0.00  0.00    -0.216 N 
ATOM      2  H   UNL     1       3.496   0.322  -2.144  0.00  0.00    +0.174 HD
ENDROOT
BRANCH   1   3
ATOM      3  C   UNL     1       3.935   2.302  -1.780  0.00  0.00    +0.057 A 
ATOM      4  C   UNL     1       4.450   3.071  -0.759  0.00  0.00    +0.044 A 
ATOM      5  C   UNL     1       4.995   4.326  -1.017  0.00  0.00    +0.062 A 
ATOM      6  C   UNL     1       5.032   4.830  -2.297  0.00  0.00    +0.139 A 
ATOM      7  C   UNL     1       4.513   4.069  -3.363  0.00  0.00    +0.026 A 
ATOM      8  C   UNL     1       3.964   2.789  -3.103  0.00  0.00    +0.008 A 
ATOM      9  C   UNL     1       3.442   2.035  -4.167  0.00  0.00    +0.010 A 
ATOM     10  C   UNL     1       3.481   2.536  -5.432  0.00  0.00    +0.001 A 
ATOM     11  C   UNL     1       4.026   3.793  -5.688  0.00  0.00    +0.001 A 
ATOM     12  C   UNL     1       4.536   4.554  -4.682  0.00  0.00    +0.012 A 
ATOM     13 BR   UNL     1       5.693   5.352   0.410  0.00  0.00    -0.046 Br
BRANCH   6  14
ATOM     14  O   UNL     1       5.567   6.058  -2.533  0.00  0.00    -0.505 OA
ATOM     15  H   UNL     1       6.515   6.044  -2.723  0.00  0.00    +0.292 HD
ENDBRANCH   6  14
ENDBRANCH   1   3
BRANCH   1  16
ATOM     16  S   UNL     1       2.567   0.789  -0.092  0.00  0.00    +0.073 S 
ATOM     17  O   UNL     1       3.436   1.183   0.961  0.00  0.00    -0.150 OA
ATOM     18  O   UNL     1       2.015  -0.518  -0.175  0.00  0.00    -0.150 OA
BRANCH  16  23
ATOM     19  C   UNL     1      -2.087   4.628  -0.017  0.00  0.00    +0.044 C 
ATOM     20  C   UNL     1      -0.924   3.669  -0.036  0.00  0.00    -0.050 A 
ATOM     21  C   UNL     1       0.090   3.793   0.896  0.00  0.00    +0.005 A 
ATOM     22  C   UNL     1       1.158   2.917   0.876  0.00  0.00    +0.029 A 
ATOM     23  C   UNL     1       1.209   1.910  -0.070  0.00  0.00    +0.111 A 
ATOM     24  C   UNL     1       0.193   1.784  -0.999  0.00  0.00    -0.024 A 
ATOM     25  C   UNL     1      -0.873   2.663  -0.982  0.00  0.00    +0.008 A 
ATOM     26  C   UNL     1       0.248   0.686  -2.031  0.00  0.00    +0.046 C 
ENDBRANCH  16  23
ENDBRANCH   1  16
TORSDOF 4
