REMARK  Name = ZINC12519886
REMARK  5 active torsions:
REMARK  status: ('A' for Active; 'I' for Inactive)
REMARK    1  A    between atoms: C_1  and  C_2
REMARK    2  A    between atoms: C_7  and  C_9
REMARK    3  A    between atoms: C_7  and  C_10
REMARK    4  A    between atoms: N_13  and  C_17
REMARK    5  A    between atoms: C_17  and  C_18
REMARK                            x       y       z     vdW  Elec       q    Type
REMARK                         _______ _______ _______ _____ _____    ______ ____
ROOT
ATOM      1  C   UNL     1      -0.019   1.528   0.010  0.00  0.00    +0.007 C 
ATOM      2  C   UNL     1       0.002  -0.004   0.002  0.00  0.00    -0.011 C 
ATOM      3  C   UNL     1      -1.435  -0.529   0.021  0.00  0.00    +0.038 C 
ATOM      4  C   UNL     1      -1.427  -2.050  -0.036  0.00  0.00    +0.113 C 
ATOM      5  C   UNL     1      -0.575  -2.676   1.049  0.00  0.00    +0.041 C 
ATOM      6  C   UNL     1       0.782  -2.031   1.270  0.00  0.00    -0.032 C 
ATOM      7  C   UNL     1       0.719  -0.508   1.253  0.00  0.00    +0.009 C 
ATOM      8  C   UNL     1       1.296  -2.464   2.661  0.00  0.00    +0.011 C 
ATOM      9  C   UNL     1       1.795  -2.526   0.234  0.00  0.00    +0.011 C 
ATOM     10  C   UNL     1      -1.044  -2.534  -1.413  0.00  0.00    +0.247 C 
ATOM     11  O   UNL     1      -0.058  -2.253  -2.060  0.00  0.00    -0.273 OA
ATOM     12  N   UNL     1      -2.050  -3.344  -1.810  0.00  0.00    -0.215 N 
ATOM     13  C   UNL     1      -3.063  -3.331  -0.937  0.00  0.00    +0.310 C 
ATOM     14  O   UNL     1      -4.088  -3.969  -1.082  0.00  0.00    -0.252 OA
ATOM     15  N   UNL     1      -2.817  -2.537   0.119  0.00  0.00    -0.285 N 
ATOM     16  H   UNL     1      -3.418  -2.318   0.845  0.00  0.00    +0.151 HD
ENDROOT
BRANCH  12  17
ATOM     17  C   UNL     1      -2.031  -4.134  -3.043  0.00  0.00    +0.214 C 
BRANCH  17  18
ATOM     18  C   UNL     1      -1.431  -5.488  -2.763  0.00  0.00    +0.237 C 
ATOM     19  O   UNL     1      -1.057  -5.765  -1.643  0.00  0.00    -0.274 OA
ATOM     20  N   UNL     1      -1.311  -6.390  -3.757  0.00  0.00    -0.255 N 
ATOM     21  C   UNL     1      -0.760  -7.634  -3.499  0.00  0.00    +0.200 A 
ATOM     22  N   UNL     1      -0.311  -8.056  -2.281  0.00  0.00    -0.326 N 
ATOM     23  H   UNL     1      -0.321  -7.546  -1.456  0.00  0.00    +0.169 HD
ATOM     24  C   UNL     1       0.162  -9.347  -2.442  0.00  0.00    +0.067 A 
ATOM     25  C   UNL     1       0.729 -10.278  -1.584  0.00  0.00    +0.028 A 
ATOM     26  C   UNL     1       1.106 -11.514  -2.065  0.00  0.00    +0.002 A 
ATOM     27  C   UNL     1       0.922 -11.834  -3.403  0.00  0.00    +0.002 A 
ATOM     28  C   UNL     1       0.361 -10.922  -4.268  0.00  0.00    +0.030 A 
ATOM     29  C   UNL     1      -0.026  -9.665  -3.797  0.00  0.00    +0.091 A 
ATOM     30  N   UNL     1      -0.597  -8.582  -4.386  0.00  0.00    -0.214 NA
ATOM     31  H   UNL     1      -1.611  -6.169  -4.652  0.00  0.00    +0.158 HD
ENDBRANCH  17  18
ENDBRANCH  12  17
TORSDOF 2
