REMARK  Name = ZINC64967373
REMARK  5 active torsions:
REMARK  status: ('A' for Active; 'I' for Inactive)
REMARK    1  A    between atoms: C_8  and  C_22
REMARK    2  A    between atoms: C_10  and  S_12
REMARK    3  A    between atoms: S_12  and  C_13
REMARK    4  A    between atoms: C_13  and  C_14
REMARK    5  A    between atoms: N_16  and  C_17
REMARK                            x       y       z     vdW  Elec       q    Type
REMARK                         _______ _______ _______ _____ _____    ______ ____
ROOT
ATOM      1  C   UNL     1      -0.044   1.372  -0.071  0.00  0.00    +0.002 A 
ATOM      2  C   UNL     1       1.143   2.087  -0.045  0.00  0.00    +0.002 A 
ATOM      3  C   UNL     1       2.349   1.425  -0.019  0.00  0.00    +0.030 A 
ATOM      4  C   UNL     1       2.395   0.022  -0.018  0.00  0.00    +0.090 A 
ATOM      5  C   UNL     1       1.196  -0.701  -0.044  0.00  0.00    +0.089 A 
ATOM      6  C   UNL     1      -0.023  -0.004  -0.071  0.00  0.00    +0.030 A 
ATOM      7  N   UNL     1       1.131  -2.056  -0.045  0.00  0.00    -0.249 NA
ATOM      8  C   UNL     1       1.895  -2.844  -0.717  0.00  0.00    +0.055 C 
ATOM      9  C   UNL     1       3.013  -2.307  -1.572  0.00  0.00    +0.118 C 
ATOM     10  C   UNL     1       3.985  -1.587  -0.673  0.00  0.00    +0.081 C 
ATOM     11  N   UNL     1       3.626  -0.554   0.009  0.00  0.00    -0.243 NA
ENDROOT
BRANCH   8  12
ATOM     12  C   UNL     1       1.672  -4.297  -0.648  0.00  0.00    -0.003 A 
ATOM     13  C   UNL     1       2.401  -5.159  -1.474  0.00  0.00    +0.011 A 
ATOM     14  C   UNL     1       2.187  -6.519  -1.405  0.00  0.00    +0.020 A 
ATOM     15  C   UNL     1       1.252  -7.032  -0.520  0.00  0.00    +0.041 A 
ATOM     16  C   UNL     1       0.526  -6.184   0.300  0.00  0.00    +0.020 A 
ATOM     17  C   UNL     1       0.734  -4.823   0.246  0.00  0.00    +0.011 A 
ATOM     18 CL   UNL     1       0.988  -8.746  -0.441  0.00  0.00    -0.084 Cl
ENDBRANCH   8  12
BRANCH  10  19
ATOM     19  S   UNL     1       5.644  -2.168  -0.552  0.00  0.00    -0.100 S 
BRANCH  19  20
ATOM     20  C   UNL     1       6.427  -1.021   0.615  0.00  0.00    +0.171 C 
BRANCH  20  21
ATOM     21  C   UNL     1       7.870  -1.410   0.811  0.00  0.00    +0.223 C 
ATOM     22  O   UNL     1       8.325  -2.367   0.222  0.00  0.00    -0.275 OA
ATOM     23  N   UNL     1       8.654  -0.694   1.641  0.00  0.00    -0.312 N 
ATOM     24  H   UNL     1       8.290   0.071   2.112  0.00  0.00    +0.149 HD
BRANCH  23  25
ATOM     25  C   UNL     1      10.056  -1.073   1.832  0.00  0.00    +0.073 C 
ATOM     26  C   UNL     1      10.174  -2.111   2.967  0.00  0.00    +0.022 C 
ATOM     27  C   UNL     1      11.489  -1.732   3.693  0.00  0.00    +0.002 C 
ATOM     28  C   UNL     1      11.466  -0.184   3.655  0.00  0.00    +0.002 C 
ATOM     29  C   UNL     1      10.878   0.152   2.269  0.00  0.00    +0.022 C 
ENDBRANCH  23  25
ENDBRANCH  20  21
ENDBRANCH  19  20
ENDBRANCH  10  19
TORSDOF 5
