REMARK  Name = ZINC04555332
REMARK  10 active torsions:
REMARK  status: ('A' for Active; 'I' for Inactive)
REMARK    1  A    between atoms: C_1  and  C_2
REMARK    2  A    between atoms: C_2  and  O_3
REMARK    3  A    between atoms: O_3  and  C_4
REMARK    4  A    between atoms: C_6  and  C_12
REMARK    5  A    between atoms: C_9  and  O_10
REMARK    6  A    between atoms: O_10  and  C_11
REMARK    7  A    between atoms: C_23  and  C_24
REMARK    8  A    between atoms: C_23  and  C_25
REMARK    9  A    between atoms: C_23  and  N_55
REMARK   10  A    between atoms: C_26  and  O_28
REMARK                            x       y       z     vdW  Elec       q    Type
REMARK                         _______ _______ _______ _____ _____    ______ ____
ROOT
ATOM      1  C   UNL     1       6.060   3.421  -0.558  0.00  0.00    +0.224 C 
ATOM      2  N   UNL     1       4.785   4.100  -0.261  0.00  0.00    -0.313 N 
ATOM      3  C   UNL     1       3.677   3.295  -0.154  0.00  0.00    +0.080 A 
ATOM      4  C   UNL     1       3.765   1.936   0.180  0.00  0.00    +0.067 A 
ATOM      5  C   UNL     1       2.504   1.225   0.264  0.00  0.00    -0.027 A 
ATOM      6  C   UNL     1       1.396   1.958  -0.001  0.00  0.00    -0.021 A 
ATOM      7  S   UNL     1       2.002   3.587  -0.351  0.00  0.00    -0.080 S 
ATOM      8  C   UNL     1      -0.018   1.471   0.010  0.00  0.00    -0.035 C 
ATOM      9  C   UNL     1       0.919  -0.516   1.030  0.00  0.00    -0.073 C 
ATOM     10  C   UNL     1       2.370  -0.252   0.619  0.00  0.00    +0.018 C 
ATOM     11  C   UNL     1       5.122   1.385   0.426  0.00  0.00    +0.220 C 
ATOM     12  N   UNL     1       6.147   2.127   0.108  0.00  0.00    -0.223 NA
ATOM     13  H   UNL     1       4.732   5.062  -0.148  0.00  0.00    +0.149 HD
ATOM     14  N   UNL     1       0.013  -0.011  -0.021  0.00  0.00    +0.384 N 
ATOM     15  H   UNL     1       0.359  -0.320  -0.938  0.00  0.00    -0.081 HD
ENDROOT
BRANCH   1  18
ATOM     16  C   UNL     1       6.985   1.946  -3.910  0.00  0.00    +0.162 A 
ATOM     17  C   UNL     1       6.883   2.138  -2.542  0.00  0.00    +0.056 A 
ATOM     18  C   UNL     1       6.175   3.216  -2.046  0.00  0.00    -0.002 A 
ATOM     19  C   UNL     1       5.576   4.112  -2.913  0.00  0.00    +0.011 A 
ATOM     20  C   UNL     1       5.679   3.929  -4.280  0.00  0.00    +0.050 A 
ATOM     21  C   UNL     1       6.383   2.847  -4.783  0.00  0.00    +0.162 A 
BRANCH  21  22
ATOM     22  O   UNL     1       6.485   2.666  -6.127  0.00  0.00    -0.491 OA
ATOM     23  C   UNL     1       5.842   3.631  -6.962  0.00  0.00    +0.277 C 
ENDBRANCH  21  22
BRANCH  16  24
ATOM     24  O   UNL     1       7.677   0.882  -4.399  0.00  0.00    -0.489 OA
BRANCH  24  26
ATOM     25  C   UNL     1       8.999  -1.129  -4.178  0.00  0.00    +0.048 C 
ATOM     26  C   UNL     1       8.268  -0.002  -3.445  0.00  0.00    +0.226 C 
ENDBRANCH  24  26
ENDBRANCH  16  24
ENDBRANCH   1  18
BRANCH  14  27
ATOM     27  C   UNL     1      -1.350  -0.550   0.183  0.00  0.00    -0.074 C 
ATOM     28  C   UNL     1      -1.906  -0.096   1.534  0.00  0.00    -0.014 C 
ATOM     29  C   UNL     1      -2.259  -0.044  -0.939  0.00  0.00    -0.014 C 
ENDBRANCH  14  27
BRANCH  11  30
ATOM     30  O   UNL     1       5.290   0.155   0.963  0.00  0.00    -0.492 OA
ATOM     31  H   UNL     1       6.215  -0.101   1.079  0.00  0.00    +0.294 HD
ENDBRANCH  11  30
TORSDOF 6
