REMARK  Name = ZINC36375372
REMARK  7 active torsions:
REMARK  status: ('A' for Active; 'I' for Inactive)
REMARK    1  A    between atoms: C_1  and  C_2
REMARK    2  A    between atoms: C_2  and  C_27
REMARK    3  A    between atoms: C_3  and  C_4
REMARK    4  A    between atoms: C_4  and  C_5
REMARK    5  A    between atoms: C_10  and  O_11
REMARK    6  A    between atoms: C_23  and  O_26
REMARK    7  A    between atoms: C_24  and  O_25
REMARK                            x       y       z     vdW  Elec       q    Type
REMARK                         _______ _______ _______ _____ _____    ______ ____
ROOT
ATOM      1  C   UNL     1      -0.864  -0.562   3.381  0.00  0.00    -0.002 A 
ATOM      2  C   UNL     1      -0.404  -1.429   4.365  0.00  0.00    +0.015 A 
ATOM      3  C   UNL     1      -1.349  -1.987   5.199  0.00  0.00    +0.005 A 
ATOM      4  C   UNL     1      -2.716  -1.711   5.077  0.00  0.00    +0.129 A 
ATOM      5  C   UNL     1      -3.168  -0.839   4.088  0.00  0.00    +0.091 A 
ATOM      6  C   UNL     1      -2.212  -0.272   3.252  0.00  0.00    +0.124 A 
ATOM      7  O   UNL     1      -3.437  -2.387   5.997  0.00  0.00    -0.483 OA
ATOM      8  C   UNL     1      -2.558  -2.817   7.052  0.00  0.00    +0.218 C 
ATOM      9  C   UNL     1      -1.193  -2.945   6.353  0.00  0.00    +0.105 C 
ATOM     10  C   UNL     1      -0.999  -4.360   5.809  0.00  0.00    +0.241 C 
ATOM     11  O   UNL     1      -1.114  -5.293   6.887  0.00  0.00    -0.487 OA
ATOM     12  C   UNL     1      -2.309  -5.282   7.541  0.00  0.00    +0.172 A 
ATOM     13  C   UNL     1      -3.042  -4.106   7.642  0.00  0.00    +0.039 A 
ATOM     14  C   UNL     1      -4.262  -4.115   8.306  0.00  0.00    +0.015 A 
ATOM     15  C   UNL     1      -4.747  -5.277   8.871  0.00  0.00    +0.050 A 
ATOM     16  C   UNL     1      -4.018  -6.453   8.782  0.00  0.00    +0.162 A 
ATOM     17  C   UNL     1      -2.786  -6.459   8.106  0.00  0.00    +0.201 A 
ENDROOT
BRANCH   6  18
ATOM     18  O   UNL     1      -2.612   0.587   2.278  0.00  0.00    -0.506 OA
ATOM     19  H   UNL     1      -2.820   0.159   1.437  0.00  0.00    +0.292 HD
ENDBRANCH   6  18
BRANCH  17  20
ATOM     20  O   UNL     1      -2.058  -7.605   8.009  0.00  0.00    -0.501 OA
ATOM     21  H   UNL     1      -1.438  -7.739   8.739  0.00  0.00    +0.292 HD
ENDBRANCH  17  20
BRANCH  16  22
ATOM     22  O   UNL     1      -4.495  -7.598   9.341  0.00  0.00    -0.503 OA
ATOM     23  H   UNL     1      -5.045  -8.127   8.746  0.00  0.00    +0.292 HD
ENDBRANCH  16  22
BRANCH   1  24
ATOM     24  C   UNL     1       0.123   0.078   2.439  0.00  0.00    +0.066 C 
BRANCH  24  27
ATOM     25  C   UNL     1      -0.178   1.490   0.016  0.00  0.00    +0.038 C 
ATOM     26  C   UNL     1      -0.080  -0.014   0.008  0.00  0.00    -0.079 C 
ATOM     27  C   UNL     1       0.121  -0.664   1.128  0.00  0.00    -0.023 C 
ATOM     28  C   UNL     1      -0.213  -0.770  -1.289  0.00  0.00    +0.038 C 
ENDBRANCH  24  27
ENDBRANCH   1  24
TORSDOF 5
