REMARK  Name = ZINC54861272
REMARK  4 active torsions:
REMARK  status: ('A' for Active; 'I' for Inactive)
REMARK    1  A    between atoms: C_1  and  C_2
REMARK    2  A    between atoms: C_2  and  C_3
REMARK    3  A    between atoms: C_17  and  C_19
REMARK    4  A    between atoms: C_17  and  C_20
REMARK                            x       y       z     vdW  Elec       q    Type
REMARK                         _______ _______ _______ _____ _____    ______ ____
ROOT
ATOM      1  C   UNL     1       0.740  -0.609  -0.968  0.00  0.00    +0.075 C 
ATOM      2  C   UNL     1       0.571  -2.141  -1.058  0.00  0.00    +0.024 C 
ATOM      3  C   UNL     1       1.857  -2.589  -1.801  0.00  0.00    +0.021 C 
ATOM      4  C   UNL     1       2.904  -1.594  -1.240  0.00  0.00    +0.107 C 
ATOM      5  N   UNL     1       2.174  -0.316  -1.101  0.00  0.00    -0.307 N 
ATOM      6  C   UNL     1       2.741   0.938  -1.096  0.00  0.00    +0.162 A 
ATOM      7  N   UNL     1       4.027   1.256  -1.108  0.00  0.00    -0.229 NA
ATOM      8  C   UNL     1       4.438   2.501  -1.103  0.00  0.00    +0.062 A 
ATOM      9  C   UNL     1       3.406   3.449  -1.087  0.00  0.00    +0.079 A 
ATOM     10  S   UNL     1       1.961   2.434  -1.082  0.00  0.00    -0.049 S 
ATOM     11  C   UNL     1       3.580   4.827  -1.086  0.00  0.00    +0.172 C 
ATOM     12  O   UNL     1       2.631   5.585  -1.049  0.00  0.00    -0.291 OA
ATOM     13  C   UNL     1       5.006   5.346  -1.133  0.00  0.00    +0.087 C 
ATOM     14  C   UNL     1       5.931   4.352  -0.431  0.00  0.00    -0.022 C 
ATOM     15  C   UNL     1       5.882   2.980  -1.110  0.00  0.00    +0.063 C 
ATOM     16  C   UNL     1       7.365   4.883  -0.476  0.00  0.00    +0.011 C 
ATOM     17  C   UNL     1       5.496   4.206   1.029  0.00  0.00    +0.011 C 
ENDROOT
BRANCH   1  19
ATOM     18  C   UNL     1      -1.288  -0.293   0.457  0.00  0.00    +0.006 C 
ATOM     19  C   UNL     1       0.229  -0.108   0.385  0.00  0.00    +0.019 C 
ENDBRANCH   1  19
TORSDOF 1
