REMARK  Name = ZINC23557808
REMARK  8 active torsions:
REMARK  status: ('A' for Active; 'I' for Inactive)
REMARK    1  A    between atoms: C_1  and  C_2
REMARK    2  A    between atoms: C_2  and  O_3
REMARK    3  A    between atoms: O_3  and  C_4
REMARK    4  A    between atoms: C_9  and  N_10
REMARK    5  A    between atoms: C_14  and  S_16
REMARK    6  A    between atoms: S_16  and  C_17
REMARK    7  A    between atoms: C_17  and  C_18
REMARK    8  A    between atoms: C_24  and  C_29
REMARK                            x       y       z     vdW  Elec       q    Type
REMARK                         _______ _______ _______ _____ _____    ______ ____
ROOT
ATOM      1  C   UNL     1       4.681  -4.527   8.746  0.00  0.00    +0.150 C 
ENDROOT
BRANCH   1   2
ATOM      2  C   UNL     1       5.327  -4.761  10.087  0.00  0.00    +0.121 A 
ATOM      3  N   UNL     1       5.572  -6.032  10.497  0.00  0.00    -0.310 N 
ATOM      4  H   UNL     1       5.328  -6.772   9.920  0.00  0.00    +0.170 HD
ATOM      5  C   UNL     1       6.148  -6.284  11.687  0.00  0.00    +0.260 A 
ATOM      6  O   UNL     1       6.362  -7.431  12.040  0.00  0.00    -0.267 OA
ATOM      7  C   UNL     1       6.506  -5.185  12.531  0.00  0.00    +0.080 A 
ATOM      8  C   UNL     1       7.133  -5.198  13.847  0.00  0.00    +0.004 A 
ATOM      9  C   UNL     1       7.379  -4.017  14.464  0.00  0.00    +0.056 A 
ATOM     10  S   UNL     1       6.777  -2.810  13.299  0.00  0.00    -0.076 S 
ATOM     11  C   UNL     1       6.214  -3.908  12.024  0.00  0.00    +0.116 A 
ATOM     12  N   UNL     1       5.647  -3.737  10.833  0.00  0.00    -0.226 NA
BRANCH   8  13
ATOM     13  C   UNL     1       7.494  -6.480  14.499  0.00  0.00    -0.017 A 
ATOM     14  C   UNL     1       6.556  -7.508  14.587  0.00  0.00    +0.008 A 
ATOM     15  C   UNL     1       6.898  -8.700  15.194  0.00  0.00    +0.001 A 
ATOM     16  C   UNL     1       8.167  -8.874  15.715  0.00  0.00    +0.000 A 
ATOM     17  C   UNL     1       9.101  -7.857  15.631  0.00  0.00    +0.001 A 
ATOM     18  C   UNL     1       8.773  -6.664  15.021  0.00  0.00    +0.008 A 
ENDBRANCH   8  13
ENDBRANCH   1   2
BRANCH   1  19
ATOM     19  S   UNL     1       4.488  -2.744   8.470  0.00  0.00    -0.089 S 
BRANCH  19  24
ATOM     20  N   UNL     1       2.017  -1.505   3.374  0.00  0.00    -0.289 N 
ATOM     21  C   UNL     1       2.584  -2.035   4.527  0.00  0.00    +0.187 A 
ATOM     22  N   UNL     1       2.785  -3.297   4.856  0.00  0.00    -0.125 NA
ATOM     23  N   UNL     1       3.370  -3.605   6.062  0.00  0.00    -0.133 NA
ATOM     24  C   UNL     1       3.729  -2.638   6.884  0.00  0.00    +0.160 A 
ATOM     25  S   UNL     1       3.244  -1.190   5.956  0.00  0.00    -0.024 S 
ATOM     26  H   UNL     1       1.859  -0.551   3.306  0.00  0.00    +0.154 HD
BRANCH  20  32
ATOM     27  C   UNL     1       0.921  -1.859   1.246  0.00  0.00    +0.142 A 
ATOM     28  C   UNL     1       0.589  -2.697   0.194  0.00  0.00    +0.047 A 
ATOM     29  C   UNL     1       1.000  -4.018   0.205  0.00  0.00    +0.004 A 
ATOM     30  C   UNL     1       1.742  -4.506   1.265  0.00  0.00    +0.002 A 
ATOM     31  C   UNL     1       2.078  -3.676   2.318  0.00  0.00    +0.027 A 
ATOM     32  C   UNL     1       1.674  -2.349   2.311  0.00  0.00    +0.075 A 
BRANCH  27  33
ATOM     33  O   UNL     1       0.517  -0.561   1.236  0.00  0.00    -0.490 OA
BRANCH  33  35
ATOM     34  C   UNL     1      -0.611   1.349   0.278  0.00  0.00    +0.048 C 
ATOM     35  C   UNL     1      -0.252  -0.129   0.112  0.00  0.00    +0.226 C 
ENDBRANCH  33  35
ENDBRANCH  27  33
ENDBRANCH  20  32
ENDBRANCH  19  24
ENDBRANCH   1  19
TORSDOF 7
