REMARK  Name = ZINC14459285
REMARK  8 active torsions:
REMARK  status: ('A' for Active; 'I' for Inactive)
REMARK    1  A    between atoms: C_1  and  O_2
REMARK    2  A    between atoms: O_2  and  C_3
REMARK    3  A    between atoms: C_5  and  C_10
REMARK    4  A    between atoms: C_8  and  O_9
REMARK    5  A    between atoms: C_21  and  O_26
REMARK    6  A    between atoms: O_26  and  C_27
REMARK    7  A    between atoms: C_27  and  C_28
REMARK    8  A    between atoms: C_28  and  C_29
REMARK                            x       y       z     vdW  Elec       q    Type
REMARK                         _______ _______ _______ _____ _____    ______ ____
ROOT
ATOM      1  C   UNL     1      -2.482   5.194   0.544  0.00  0.00    +0.105 C 
ATOM      2  C   UNL     1      -1.399   5.993  -0.157  0.00  0.00    +0.029 C 
ATOM      3  C   UNL     1      -1.552   5.906  -1.694  0.00  0.00    +0.033 C 
ATOM      4  C   UNL     1      -0.129   6.097  -2.187  0.00  0.00    -0.030 C 
ATOM      5  C   UNL     1       0.727   5.801  -1.241  0.00  0.00    -0.023 C 
ATOM      6  C   UNL     1      -0.005   5.365   0.020  0.00  0.00    +0.049 C 
ATOM      7  C   UNL     1      -0.049   3.861   0.021  0.00  0.00    -0.016 A 
ATOM      8  C   UNL     1       1.158   3.173   0.007  0.00  0.00    +0.051 A 
ATOM      9  C   UNL     1       1.177   1.789   0.000  0.00  0.00    +0.121 A 
ATOM     10  C   UNL     1      -0.013   1.076   0.008  0.00  0.00    +0.047 A 
ATOM     11  C   UNL     1      -1.215   1.753   0.017  0.00  0.00    +0.027 A 
ATOM     12  C   UNL     1      -1.231   3.143   0.031  0.00  0.00    +0.032 A 
ATOM     13  N   UNL     1      -2.464   3.811   0.055  0.00  0.00    -0.336 N 
ATOM     14  H   UNL     1      -3.277   3.373  -0.242  0.00  0.00    +0.147 HD
ENDROOT
BRANCH   1  17
ATOM     15  C   UNL     1      -2.708   6.081   4.209  0.00  0.00    +0.162 A 
ATOM     16  C   UNL     1      -2.934   6.074   2.842  0.00  0.00    +0.054 A 
ATOM     17  C   UNL     1      -2.231   5.204   2.030  0.00  0.00    -0.023 A 
ATOM     18  C   UNL     1      -1.293   4.348   2.577  0.00  0.00    +0.009 A 
ATOM     19  C   UNL     1      -1.059   4.354   3.939  0.00  0.00    +0.049 A 
ATOM     20  C   UNL     1      -1.765   5.219   4.760  0.00  0.00    +0.158 A 
BRANCH  15  22
ATOM     21  C   UNL     1      -4.356   7.788   4.376  0.00  0.00    +0.277 C 
ATOM     22  O   UNL     1      -3.404   6.932   5.010  0.00  0.00    -0.491 OA
ENDBRANCH  15  22
BRANCH  20  23
ATOM     23  O   UNL     1      -1.536   5.226   6.100  0.00  0.00    -0.503 OA
ATOM     24  H   UNL     1      -0.844   5.843   6.378  0.00  0.00    +0.292 HD
ENDBRANCH  20  23
ENDBRANCH   1  17
BRANCH   9  25
ATOM     25  O   UNL     1       2.365   1.127  -0.013  0.00  0.00    -0.492 OA
BRANCH  25  26
ATOM     26  C   UNL     1       2.312  -0.301  -0.019  0.00  0.00    +0.233 C 
BRANCH  26  27
ATOM     27  C   UNL     1       3.734  -0.864  -0.034  0.00  0.00    +0.076 C 
BRANCH  27  28
ATOM     28  C   UNL     1       3.678  -2.370  -0.040  0.00  0.00    -0.044 A 
ATOM     29  C   UNL     1       3.669  -3.066   1.154  0.00  0.00    +0.004 A 
ATOM     30  C   UNL     1       3.613  -4.447   1.149  0.00  0.00    +0.000 A 
ATOM     31  C   UNL     1       3.576  -5.133  -0.051  0.00  0.00    +0.000 A 
ATOM     32  C   UNL     1       3.590  -4.437  -1.246  0.00  0.00    +0.000 A 
ATOM     33  C   UNL     1       3.642  -3.055  -1.240  0.00  0.00    +0.004 A 
ENDBRANCH  27  28
ENDBRANCH  26  27
ENDBRANCH  25  26
ENDBRANCH   9  25
TORSDOF 7
