REMARK  Name = ZINC37915600
REMARK  7 active torsions:
REMARK  status: ('A' for Active; 'I' for Inactive)
REMARK    1  A    between atoms: C_1  and  C_2
REMARK    2  A    between atoms: C_2  and  C_3
REMARK    3  A    between atoms: N_8  and  S_9
REMARK    4  A    between atoms: S_9  and  C_12
REMARK    5  A    between atoms: C_15  and  C_19
REMARK    6  A    between atoms: C_20  and  C_21
REMARK    7  A    between atoms: C_21  and  N_22
REMARK                            x       y       z     vdW  Elec       q    Type
REMARK                         _______ _______ _______ _____ _____    ______ ____
ROOT
ATOM      1  C   UNL     1       0.681   1.950  -4.275  0.00  0.00    +0.124 A 
ATOM      2  C   UNL     1       0.428   2.006  -5.634  0.00  0.00    +0.031 A 
ATOM      3  C   UNL     1       1.433   2.356  -6.511  0.00  0.00    +0.019 A 
ATOM      4  C   UNL     1       2.707   2.656  -6.026  0.00  0.00    +0.026 A 
ATOM      5  C   UNL     1       2.956   2.599  -4.655  0.00  0.00    +0.038 A 
ATOM      6  C   UNL     1       1.941   2.252  -3.786  0.00  0.00    +0.068 A 
ATOM      7 CL   UNL     1       2.246   2.186  -2.078  0.00  0.00    -0.081 Cl
ENDROOT
BRANCH   1   8
ATOM      8  S   UNL     1      -0.608   1.502  -3.160  0.00  0.00    +0.062 S 
ATOM      9  O   UNL     1      -1.764   1.264  -3.952  0.00  0.00    -0.153 OA
ATOM     10  O   UNL     1      -0.588   2.458  -2.109  0.00  0.00    -0.153 OA
BRANCH   8  15
ATOM     11  C   UNL     1      -0.436  -1.274  -3.079  0.00  0.00    +0.080 C 
ATOM     12  C   UNL     1       0.097  -2.331  -2.089  0.00  0.00    +0.022 C 
ATOM     13  C   UNL     1       0.107  -1.568  -0.738  0.00  0.00    +0.019 C 
ATOM     14  C   UNL     1       0.497  -0.139  -1.191  0.00  0.00    +0.110 C 
ATOM     15  N   UNL     1      -0.189   0.048  -2.486  0.00  0.00    -0.174 NA
BRANCH  11  17
ATOM     16  C   UNL     1      -0.057  -2.722  -5.080  0.00  0.00    +0.005 C 
ATOM     17  C   UNL     1       0.302  -1.392  -4.414  0.00  0.00    +0.017 C 
ENDBRANCH  11  17
ENDBRANCH   8  15
ENDBRANCH   1   8
BRANCH   4  18
ATOM     18  C   UNL     1       3.755   3.020  -6.933  0.00  0.00    -0.068 C 
ATOM     19  C   UNL     1       4.613   3.318  -7.676  0.00  0.00    -0.117 C 
BRANCH  19  20
ATOM     20  C   UNL     1       5.689   3.693  -8.607  0.00  0.00    +0.005 C 
BRANCH  20  21
ATOM     21  N   UNL     1       6.921   3.956  -7.852  0.00  0.00    +0.385 N 
ATOM     22  H   UNL     1       6.762   4.711  -7.201  0.00  0.00    -0.089 HD
ATOM     23  H   UNL     1       7.189   3.126  -7.345  0.00  0.00    -0.089 HD
ATOM     24  H   UNL     1       7.659   4.213  -8.490  0.00  0.00    -0.089 HD
ENDBRANCH  20  21
ENDBRANCH  19  20
ENDBRANCH   4  18
TORSDOF 6
