REMARK  Name = ZINC24884084
REMARK  3 active torsions:
REMARK  status: ('A' for Active; 'I' for Inactive)
REMARK    1  A    between atoms: C_4  and  N_23
REMARK    2  A    between atoms: C_5  and  C_7
REMARK    3  A    between atoms: C_8  and  C_9
REMARK                            x       y       z     vdW  Elec       q    Type
REMARK                         _______ _______ _______ _____ _____    ______ ____
ROOT
ATOM      1  C   UNL     1       0.903   1.254  -3.323  0.00  0.00    +0.240 C 
ATOM      2  O   UNL     1       1.179   0.070  -3.273  0.00  0.00    -0.271 OA
ATOM      3  N   UNL     1       1.270   2.075  -2.320  0.00  0.00    -0.295 N 
ATOM      4  C   UNL     1       1.099   3.531  -2.438  0.00  0.00    +0.108 C 
ATOM      5  C   UNL     1       0.316   4.037  -1.222  0.00  0.00    +0.019 C 
ATOM      6  C   UNL     1       1.015   3.584   0.062  0.00  0.00    +0.007 C 
ATOM      7  C   UNL     1       1.042   2.051   0.109  0.00  0.00    +0.010 C 
ATOM      8  C   UNL     1       1.851   1.537  -1.084  0.00  0.00    +0.079 C 
ATOM      9  C   UNL     1       1.836   0.012  -1.117  0.00  0.00    +0.023 C 
ATOM     10  C   UNL     1       0.395  -0.493  -1.208  0.00  0.00    +0.002 C 
ATOM     11  C   UNL     1      -0.390   0.001   0.009  0.00  0.00    +0.000 C 
ATOM     12  C   UNL     1      -0.395   1.530   0.020  0.00  0.00    +0.005 C 
ENDROOT
BRANCH   1  14
ATOM     13  C   UNL     1      -0.288   0.951  -5.427  0.00  0.00    +0.015 C 
ATOM     14  C   UNL     1       0.170   1.787  -4.474  0.00  0.00    +0.068 C 
BRANCH  13  19
ATOM     15  C   UNL     1      -1.822   3.362  -7.856  0.00  0.00    +0.001 A 
ATOM     16  C   UNL     1      -2.412   2.494  -8.759  0.00  0.00    +0.002 A 
ATOM     17  C   UNL     1      -2.312   1.125  -8.581  0.00  0.00    +0.033 A 
ATOM     18  C   UNL     1      -1.623   0.616  -7.500  0.00  0.00    +0.133 A 
ATOM     19  C   UNL     1      -1.025   1.486  -6.583  0.00  0.00    +0.005 A 
ATOM     20  C   UNL     1      -1.135   2.868  -6.768  0.00  0.00    +0.010 A 
BRANCH  18  21
ATOM     21  N   UNL     1      -1.517  -0.849  -7.310  0.00  0.00    +0.057 N 
ATOM     22  O   UNL     1      -2.137  -1.603  -8.038  0.00  0.00    -0.126 OA
ATOM     23  O   UNL     1      -0.809  -1.299  -6.427  0.00  0.00    -0.126 OA
ENDBRANCH  18  21
ENDBRANCH  13  19
ENDBRANCH   1  14
TORSDOF 3
