REMARK  Name = ZINC45616343
REMARK  7 active torsions:
REMARK  status: ('A' for Active; 'I' for Inactive)
REMARK    1  A    between atoms: C_1  and  N_2
REMARK    2  A    between atoms: N_2  and  S_3
REMARK    3  A    between atoms: S_3  and  C_6
REMARK    4  A    between atoms: C_10  and  C_12
REMARK    5  A    between atoms: C_12  and  O_14
REMARK    6  A    between atoms: O_14  and  C_15
REMARK    7  A    between atoms: C_15  and  C_16
REMARK                            x       y       z     vdW  Elec       q    Type
REMARK                         _______ _______ _______ _____ _____    ______ ____
ROOT
ATOM      1  C   UNL     1      -2.444  -1.857  -4.998  0.00  0.00    +0.342 C 
ATOM      2  O   UNL     1      -3.015  -1.611  -6.042  0.00  0.00    -0.245 OA
ENDROOT
BRANCH   1   7
ATOM      3  C   UNL     1      -2.247  -0.499  -1.505  0.00  0.00    +0.106 A 
ATOM      4  C   UNL     1      -3.118   0.575  -1.582  0.00  0.00    +0.031 A 
ATOM      5  C   UNL     1      -3.771   0.860  -2.766  0.00  0.00    +0.041 A 
ATOM      6  C   UNL     1      -3.558   0.074  -3.884  0.00  0.00    +0.137 A 
ATOM      7  C   UNL     1      -2.678  -1.012  -3.812  0.00  0.00    +0.096 A 
ATOM      8  C   UNL     1      -2.019  -1.289  -2.611  0.00  0.00    +0.046 A 
ATOM      9  F   UNL     1      -4.196   0.352  -5.041  0.00  0.00    -0.205 F 
BRANCH   3  10
ATOM     10  S   UNL     1      -1.421  -0.852   0.011  0.00  0.00    +0.058 S 
ATOM     11  O   UNL     1      -1.073  -2.229  -0.027  0.00  0.00    -0.153 OA
ATOM     12  O   UNL     1      -2.218  -0.295   1.047  0.00  0.00    -0.153 OA
BRANCH  10  14
ATOM     13  C   UNL     1      -0.018   1.461   0.010  0.00  0.00    +0.127 C 
ATOM     14  N   UNL     1       0.002  -0.004   0.002  0.00  0.00    -0.193 NA
ATOM     15  H   UNL     1       0.849  -0.478  -0.009  0.00  0.00    +0.148 HD
ENDBRANCH  10  14
ENDBRANCH   3  10
ENDBRANCH   1   7
BRANCH   1  16
ATOM     16  O   UNL     1      -1.597  -2.902  -4.925  0.00  0.00    -0.456 OA
BRANCH  16  17
ATOM     17  C   UNL     1      -1.418  -3.677  -6.112  0.00  0.00    +0.269 C 
BRANCH  17  18
ATOM     18  C   UNL     1      -0.442  -4.793  -5.841  0.00  0.00    +0.007 A 
ATOM     19  C   UNL     1       0.115  -4.933  -4.583  0.00  0.00    +0.057 A 
ATOM     20  C   UNL     1       1.012  -5.959  -4.330  0.00  0.00    +0.163 A 
ATOM     21  C   UNL     1       1.348  -6.849  -5.344  0.00  0.00    +0.163 A 
ATOM     22  C   UNL     1       0.787  -6.704  -6.604  0.00  0.00    +0.065 A 
ATOM     23  C   UNL     1      -0.110  -5.680  -6.848  0.00  0.00    +0.028 A 
ATOM     24 BR   UNL     1      -0.880  -5.489  -8.565  0.00  0.00    -0.050 Br
ATOM     25  O   UNL     1       2.220  -7.869  -5.115  0.00  0.00    -0.485 OA
ATOM     26  C   UNL     1       3.044  -7.761  -3.949  0.00  0.00    +0.270 C 
ATOM     27  C   UNL     1       2.156  -7.341  -2.770  0.00  0.00    +0.270 C 
ATOM     28  O   UNL     1       1.555  -6.081  -3.088  0.00  0.00    -0.485 OA
ENDBRANCH  17  18
ENDBRANCH  16  17
ENDBRANCH   1  16
TORSDOF 6
