REMARK  Name = ZINC46729634
REMARK  11 active torsions:
REMARK  status: ('A' for Active; 'I' for Inactive)
REMARK    1  A    between atoms: C_1  and  C_2
REMARK    2  A    between atoms: C_2  and  C_3
REMARK    3  A    between atoms: C_3  and  C_5
REMARK    4  A    between atoms: C_3  and  N_13
REMARK    5  A    between atoms: C_10  and  O_11
REMARK    6  A    between atoms: O_11  and  C_12
REMARK    7  A    between atoms: C_14  and  C_16
REMARK    8  A    between atoms: C_16  and  N_17
REMARK    9  A    between atoms: C_22  and  C_29
REMARK   10  A    between atoms: C_25  and  C_27
REMARK   11  A    between atoms: C_25  and  C_28
REMARK                            x       y       z     vdW  Elec       q    Type
REMARK                         _______ _______ _______ _____ _____    ______ ____
ROOT
ATOM      1  C   UNL     1      -3.185   1.705  -1.857  0.00  0.00    +0.213 C 
ENDROOT
BRANCH   1   2
ATOM      2  N   UNL     1      -3.801   3.034  -1.906  0.00  0.00    -0.215 N 
ATOM      3  C   UNL     1      -5.074   3.293  -1.541  0.00  0.00    +0.247 C 
ATOM      4  O   UNL     1      -5.894   2.502  -1.126  0.00  0.00    -0.273 OA
ATOM      5  C   UNL     1      -5.261   4.777  -1.758  0.00  0.00    +0.113 C 
ATOM      6  C   UNL     1      -5.592   5.469  -0.440  0.00  0.00    +0.038 C 
ATOM      7  C   UNL     1      -5.748   6.974  -0.677  0.00  0.00    -0.011 C 
ATOM      8  C   UNL     1      -6.865   7.216  -1.694  0.00  0.00    +0.009 C 
ATOM      9  C   UNL     1      -6.508   6.535  -3.017  0.00  0.00    -0.032 C 
ATOM     10  C   UNL     1      -6.355   5.029  -2.790  0.00  0.00    +0.041 C 
ATOM     11  C   UNL     1      -5.191   7.107  -3.546  0.00  0.00    +0.011 C 
ATOM     12  C   UNL     1      -7.621   6.787  -4.037  0.00  0.00    +0.011 C 
ATOM     13  C   UNL     1      -6.100   7.664   0.642  0.00  0.00    +0.007 C 
ATOM     14  N   UNL     1      -3.960   5.231  -2.266  0.00  0.00    -0.285 N 
ATOM     15  C   UNL     1      -3.169   4.141  -2.313  0.00  0.00    +0.310 C 
ATOM     16  O   UNL     1      -2.013   4.162  -2.687  0.00  0.00    -0.252 OA
ATOM     17  H   UNL     1      -3.717   6.136  -2.514  0.00  0.00    +0.151 HD
ENDBRANCH   1   2
BRANCH   1  19
ATOM     18  N   UNL     1      -1.916   0.339  -0.232  0.00  0.00    -0.307 N 
ATOM     19  C   UNL     1      -2.547   1.497  -0.507  0.00  0.00    +0.231 C 
ATOM     20  O   UNL     1      -2.602   2.372   0.331  0.00  0.00    -0.274 OA
ATOM     21  H   UNL     1      -1.872  -0.361  -0.903  0.00  0.00    +0.149 HD
BRANCH  18  22
ATOM     22  C   UNL     1      -1.296   0.136   1.079  0.00  0.00    +0.107 C 
BRANCH  22  23
ATOM     23  C   UNL     1      -1.215  -1.340   1.375  0.00  0.00    +0.014 A 
ATOM     24  C   UNL     1      -1.183  -2.252   0.337  0.00  0.00    +0.009 A 
ATOM     25  C   UNL     1      -1.110  -3.605   0.608  0.00  0.00    +0.001 A 
ATOM     26  C   UNL     1      -1.068  -4.050   1.916  0.00  0.00    +0.004 A 
ATOM     27  C   UNL     1      -1.099  -3.143   2.957  0.00  0.00    +0.046 A 
ATOM     28  C   UNL     1      -1.167  -1.783   2.688  0.00  0.00    +0.125 A 
BRANCH  28  29
ATOM     29  O   UNL     1      -1.192  -0.888   3.710  0.00  0.00    -0.495 OA
ATOM     30  C   UNL     1      -1.140  -1.416   5.037  0.00  0.00    +0.277 C 
ENDBRANCH  28  29
ENDBRANCH  22  23
BRANCH  22  32
ATOM     31  C   UNL     1       0.024   2.250   0.900  0.00  0.00    +0.006 C 
ATOM     32  C   UNL     1       0.113   0.733   1.075  0.00  0.00    +0.024 C 
ENDBRANCH  22  32
ENDBRANCH  18  22
ENDBRANCH   1  19
TORSDOF 6
