REMARK  Name = ZINC39311743
REMARK  7 active torsions:
REMARK  status: ('A' for Active; 'I' for Inactive)
REMARK    1  A    between atoms: C_1  and  C_2
REMARK    2  A    between atoms: C_7  and  C_9
REMARK    3  A    between atoms: C_7  and  C_10
REMARK    4  A    between atoms: N_11  and  C_13
REMARK    5  A    between atoms: C_13  and  N_14
REMARK    6  A    between atoms: N_22  and  N_23
REMARK    7  A    between atoms: C_24  and  C_26
REMARK                            x       y       z     vdW  Elec       q    Type
REMARK                         _______ _______ _______ _____ _____    ______ ____
ROOT
ATOM      1  N   UNL     1      -3.509  -2.723  -0.667  0.00  0.00    -0.282 N 
ATOM      2  C   UNL     1      -4.219  -2.079   0.340  0.00  0.00    +0.044 A 
ATOM      3  C   UNL     1      -3.817  -1.559   1.565  0.00  0.00    +0.024 A 
ATOM      4  C   UNL     1      -4.739  -0.958   2.398  0.00  0.00    +0.002 A 
ATOM      5  C   UNL     1      -6.070  -0.866   2.028  0.00  0.00    +0.001 A 
ATOM      6  C   UNL     1      -6.487  -1.377   0.815  0.00  0.00    +0.012 A 
ATOM      7  C   UNL     1      -5.566  -1.984  -0.031  0.00  0.00    +0.028 A 
ATOM      8  C   UNL     1      -5.678  -2.618  -1.365  0.00  0.00    +0.153 C 
ATOM      9  N   UNL     1      -6.758  -2.755  -2.096  0.00  0.00    -0.174 NA
ATOM     10  C   UNL     1      -4.308  -3.058  -1.695  0.00  0.00    +0.270 C 
ATOM     11  O   UNL     1      -3.963  -3.626  -2.714  0.00  0.00    -0.268 OA
ENDROOT
BRANCH   9  12
ATOM     12  N   UNL     1      -6.684  -3.386  -3.345  0.00  0.00    -0.201 N 
ATOM     13  C   UNL     1      -7.794  -3.526  -4.096  0.00  0.00    +0.282 C 
ATOM     14  O   UNL     1      -8.859  -3.106  -3.690  0.00  0.00    -0.267 OA
ATOM     15  H   UNL     1      -5.833  -3.721  -3.669  0.00  0.00    +0.178 HD
BRANCH  13  16
ATOM     16  C   UNL     1      -7.715  -4.193  -5.416  0.00  0.00    +0.127 A 
ATOM     17  C   UNL     1      -8.866  -4.330  -6.190  0.00  0.00    +0.033 A 
ATOM     18  C   UNL     1      -8.776  -4.956  -7.423  0.00  0.00    +0.004 A 
ATOM     19  C   UNL     1      -7.539  -5.423  -7.840  0.00  0.00    +0.020 A 
ATOM     20  C   UNL     1      -6.436  -5.252  -7.018  0.00  0.00    +0.111 A 
ATOM     21  N   UNL     1      -6.548  -4.650  -5.854  0.00  0.00    -0.250 NA
ENDBRANCH  13  16
ENDBRANCH   9  12
BRANCH   1  22
ATOM     22  C   UNL     1      -2.070  -2.995  -0.618  0.00  0.00    +0.039 C 
BRANCH  22  32
ATOM     23  C   UNL     1      -0.142   1.522  -0.836  0.00  0.00    +0.009 C 
ATOM     24  C   UNL     1      -0.069   0.013  -0.557  0.00  0.00    -0.048 C 
ATOM     25  C   UNL     1       0.678  -0.760  -1.679  0.00  0.00    -0.011 C 
ATOM     26  C   UNL     1       0.095  -2.180  -1.437  0.00  0.00    -0.065 C 
ATOM     27  C   UNL     1       0.730  -2.732  -0.175  0.00  0.00    -0.009 C 
ATOM     28  C   UNL     1       0.851  -1.792   1.004  0.00  0.00    -0.036 C 
ATOM     29  C   UNL     1       0.656  -0.310   0.749  0.00  0.00    +0.011 C 
ATOM     30  C   UNL     1      -0.110  -2.243   2.120  0.00  0.00    +0.011 C 
ATOM     31  C   UNL     1       2.281  -1.967   1.579  0.00  0.00    +0.011 C 
ATOM     32  N   UNL     1      -1.347  -1.911  -1.272  0.00  0.00    +0.393 N 
ATOM     33  C   UNL     1      -1.466  -0.647  -0.522  0.00  0.00    -0.070 C 
ATOM     34  H   UNL     1      -1.753  -1.764  -2.199  0.00  0.00    -0.079 HD
ENDBRANCH  22  32
ENDBRANCH   1  22
TORSDOF 4
