REMARK  Name = ZINC63362629
REMARK  9 active torsions:
REMARK  status: ('A' for Active; 'I' for Inactive)
REMARK    1  A    between atoms: C_1  and  C_2
REMARK    2  A    between atoms: C_2  and  C_3
REMARK    3  A    between atoms: C_3  and  C_4
REMARK    4  A    between atoms: C_4  and  C_5
REMARK    5  A    between atoms: C_5  and  C_6
REMARK    6  A    between atoms: C_6  and  N_7
REMARK    7  A    between atoms: C_8  and  C_10
REMARK    8  A    between atoms: C_15  and  N_16
REMARK    9  A    between atoms: C_19  and  C_35
REMARK                            x       y       z     vdW  Elec       q    Type
REMARK                         _______ _______ _______ _____ _____    ______ ____
ROOT
ATOM      1  N   UNL     1       2.716  -8.669   4.354  0.00  0.00    -0.192 N 
ATOM      2  C   UNL     1       3.395  -9.154   3.294  0.00  0.00    +0.253 C 
ATOM      3  O   UNL     1       4.519  -8.861   2.947  0.00  0.00    -0.272 OA
ATOM      4  C   UNL     1       2.461 -10.140   2.628  0.00  0.00    +0.137 C 
ATOM      5  C   UNL     1       2.186  -9.730   1.182  0.00  0.00    +0.139 C 
ATOM      6  C   UNL     1       0.732  -9.288   1.104  0.00  0.00    -0.034 C 
ATOM      7  C   UNL     1       0.745  -8.052   0.610  0.00  0.00    -0.001 A 
ATOM      8  C   UNL     1      -0.346  -7.133   0.249  0.00  0.00    +0.010 A 
ATOM      9  C   UNL     1       0.029  -5.917  -0.228  0.00  0.00    +0.001 A 
ATOM     10  C   UNL     1       1.364  -5.529  -0.380  0.00  0.00    +0.002 A 
ATOM     11  C   UNL     1       2.430  -6.311  -0.077  0.00  0.00    +0.026 A 
ATOM     12  C   UNL     1       2.163  -7.616   0.430  0.00  0.00    +0.043 A 
ATOM     13  N   UNL     1       2.991  -8.576   0.778  0.00  0.00    -0.375 N 
ATOM     14  C   UNL     1      -0.425 -10.128   1.588  0.00  0.00    +0.052 C 
ATOM     15  C   UNL     1      -0.087 -10.576   3.024  0.00  0.00    +0.115 C 
ATOM     16  N   UNL     1       1.204  -9.984   3.388  0.00  0.00    -0.268 N 
ATOM     17  C   UNL     1       1.479  -9.179   4.424  0.00  0.00    +0.317 C 
ATOM     18  O   UNL     1       0.696  -8.937   5.321  0.00  0.00    -0.252 OA
ATOM     19  C   UNL     1       2.999 -11.569   2.724  0.00  0.00    +0.044 C 
ATOM     20  H   UNL     1       3.960  -8.533   0.775  0.00  0.00    +0.160 HD
ENDROOT
BRANCH   1  26
ATOM     21  C   UNL     1       3.089  -6.376   5.051  0.00  0.00    +0.059 A 
ATOM     22  C   UNL     1       3.613  -5.470   5.976  0.00  0.00    +0.015 A 
ATOM     23  C   UNL     1       4.278  -5.933   7.091  0.00  0.00    +0.001 A 
ATOM     24  C   UNL     1       4.430  -7.294   7.299  0.00  0.00    +0.002 A 
ATOM     25  C   UNL     1       3.918  -8.201   6.394  0.00  0.00    +0.025 A 
ATOM     26  C   UNL     1       3.240  -7.753   5.269  0.00  0.00    +0.058 A 
BRANCH  21  28
ATOM     27  N   UNL     1       2.232  -4.563   3.651  0.00  0.00    -0.311 N 
ATOM     28  C   UNL     1       2.375  -5.887   3.856  0.00  0.00    +0.246 C 
ATOM     29  O   UNL     1       1.916  -6.679   3.056  0.00  0.00    -0.270 OA
ATOM     30  H   UNL     1       2.598  -3.931   4.290  0.00  0.00    +0.149 HD
BRANCH  27  31
ATOM     31  C   UNL     1       1.524  -4.077   2.464  0.00  0.00    +0.104 C 
BRANCH  31  32
ATOM     32  C   UNL     1       1.503  -2.548   2.473  0.00  0.00    +0.019 C 
BRANCH  32  33
ATOM     33  C   UNL     1       0.763  -2.041   1.233  0.00  0.00    +0.002 C 
BRANCH  33  34
ATOM     34  C   UNL     1       0.742  -0.511   1.242  0.00  0.00    -0.000 C 
BRANCH  34  36
ATOM     35  C   UNL     1      -0.019   1.526   0.010  0.00  0.00    +0.004 C 
ATOM     36  C   UNL     1       0.002  -0.004   0.002  0.00  0.00    -0.003 C 
ENDBRANCH  34  36
ENDBRANCH  33  34
ENDBRANCH  32  33
ENDBRANCH  31  32
ENDBRANCH  27  31
ENDBRANCH  21  28
ENDBRANCH   1  26
TORSDOF 7
