REMARK  Name = ZINC40374104
REMARK  16 active torsions:
REMARK  status: ('A' for Active; 'I' for Inactive)
REMARK    1  A    between atoms: C_1  and  C_2
REMARK    2  A    between atoms: C_2  and  N_3
REMARK    3  A    between atoms: N_3  and  C_4
REMARK    4  A    between atoms: N_3  and  C_6
REMARK    5  A    between atoms: C_4  and  C_5
REMARK    6  A    between atoms: C_6  and  C_8
REMARK    7  A    between atoms: C_6  and  C_26
REMARK    8  A    between atoms: C_8  and  N_9
REMARK    9  A    between atoms: N_9  and  C_10
REMARK   10  A    between atoms: C_11  and  C_24
REMARK   11  A    between atoms: C_13  and  C_15
REMARK   12  A    between atoms: C_20  and  N_21
REMARK   13  A    between atoms: C_29  and  C_32
REMARK   14  A    between atoms: C_32  and  C_33
REMARK   15  A    between atoms: C_32  and  C_34
REMARK   16  A    between atoms: C_32  and  C_35
REMARK                            x       y       z     vdW  Elec       q    Type
REMARK                         _______ _______ _______ _____ _____    ______ ____
ROOT
ATOM      1  C   UNL     1       1.143  -1.115   1.865  0.00  0.00    +0.094 C 
ENDROOT
BRANCH   1   2
ATOM      2  N   UNL     1       1.570  -2.383   1.269  0.00  0.00    -0.314 N 
ATOM      3  H   UNL     1       2.451  -2.461   0.872  0.00  0.00    +0.149 HD
BRANCH   2   4
ATOM      4  C   UNL     1       0.718  -3.466   1.271  0.00  0.00    +0.225 A 
ATOM      5  C   UNL     1       1.012  -4.752   0.840  0.00  0.00    +0.201 A 
ATOM      6  N   UNL     1      -0.111  -5.495   1.021  0.00  0.00    -0.196 NA
ATOM      7  C   UNL     1      -1.041  -4.730   1.530  0.00  0.00    +0.233 A 
ATOM      8  O   UNL     1      -0.557  -3.484   1.698  0.00  0.00    -0.420 OA
BRANCH   7   9
ATOM      9  C   UNL     1      -2.411  -5.166   1.873  0.00  0.00    +0.067 A 
ATOM     10  C   UNL     1      -2.607  -6.261   2.718  0.00  0.00    +0.015 A 
ATOM     11  C   UNL     1      -3.888  -6.662   3.035  0.00  0.00    +0.001 A 
ATOM     12  C   UNL     1      -4.977  -5.984   2.517  0.00  0.00    +0.002 A 
ATOM     13  C   UNL     1      -4.790  -4.899   1.680  0.00  0.00    +0.033 A 
ATOM     14  C   UNL     1      -3.514  -4.483   1.359  0.00  0.00    +0.138 A 
BRANCH  14  15
ATOM     15  N   UNL     1      -3.315  -3.317   0.468  0.00  0.00    +0.057 N 
ATOM     16  O   UNL     1      -4.265  -2.658   0.114  0.00  0.00    -0.126 OA
ATOM     17  O   UNL     1      -2.203  -3.025   0.094  0.00  0.00    -0.126 OA
ENDBRANCH  14  15
ENDBRANCH   7   9
BRANCH   5  18
ATOM     18  C   UNL     1       2.260  -5.207   0.305  0.00  0.00    +0.124 C 
ATOM     19  N   UNL     1       3.249  -5.569  -0.119  0.00  0.00    -0.189 NA
ENDBRANCH   5  18
ENDBRANCH   2   4
ENDBRANCH   1   2
BRANCH   1  20
ATOM     20  C   UNL     1       2.206  -0.046   1.604  0.00  0.00    -0.020 C 
BRANCH  20  21
ATOM     21  C   UNL     1       1.716   1.285   2.113  0.00  0.00    -0.059 A 
ATOM     22  C   UNL     1       0.735   1.334   3.085  0.00  0.00    +0.002 A 
ATOM     23  C   UNL     1       0.284   2.555   3.551  0.00  0.00    +0.004 A 
ATOM     24  C   UNL     1       0.815   3.727   3.045  0.00  0.00    -0.042 A 
ATOM     25  C   UNL     1       1.797   3.678   2.073  0.00  0.00    +0.004 A 
ATOM     26  C   UNL     1       2.250   2.457   1.610  0.00  0.00    +0.002 A 
BRANCH  24  27
ATOM     27  C   UNL     1       0.324   5.058   3.553  0.00  0.00    -0.013 C 
ATOM     28  C   UNL     1       0.580   5.156   5.058  0.00  0.00    +0.015 C 
ATOM     29  C   UNL     1       1.069   6.185   2.834  0.00  0.00    +0.015 C 
ATOM     30  C   UNL     1      -1.177   5.185   3.281  0.00  0.00    +0.015 C 
ENDBRANCH  24  27
ENDBRANCH  20  21
BRANCH  20  31
ATOM     31  N   UNL     1       2.465   0.046   0.161  0.00  0.00    +0.385 N 
ATOM     32  H   UNL     1       2.353  -0.864  -0.259  0.00  0.00    -0.081 HD
BRANCH  31  34
ATOM     33  C   UNL     1       0.085   0.534  -0.147  0.00  0.00    -0.017 C 
ATOM     34  C   UNL     1       1.515   0.987  -0.448  0.00  0.00    -0.081 C 
ENDBRANCH  31  34
BRANCH  31  35
ATOM     35  C   UNL     1       3.837   0.523  -0.061  0.00  0.00    -0.081 C 
ATOM     36  C   UNL     1       4.829  -0.556   0.378  0.00  0.00    -0.017 C 
ENDBRANCH  31  35
ENDBRANCH  20  31
ENDBRANCH   1  20
TORSDOF 11
