REMARK  Name = ZINC00918889
REMARK  8 active torsions:
REMARK  status: ('A' for Active; 'I' for Inactive)
REMARK    1  A    between atoms: C_4  and  O_10
REMARK    2  A    between atoms: C_5  and  N_7
REMARK    3  A    between atoms: O_10  and  C_11
REMARK    4  A    between atoms: C_11  and  C_12
REMARK    5  A    between atoms: N_14  and  N_15
REMARK    6  A    between atoms: C_16  and  C_17
REMARK    7  A    between atoms: C_20  and  O_25
REMARK    8  A    between atoms: C_22  and  O_23
REMARK                            x       y       z     vdW  Elec       q    Type
REMARK                         _______ _______ _______ _____ _____    ______ ____
ROOT
ATOM      1  C   UNL     1       5.981  -0.737  -0.062  0.00  0.00    +0.270 C 
ATOM      2  O   UNL     1       5.839  -1.942  -0.067  0.00  0.00    -0.270 OA
ATOM      3  N   UNL     1       7.218  -0.204  -0.072  0.00  0.00    -0.204 N 
ATOM      4  H   UNL     1       7.332   0.760  -0.068  0.00  0.00    +0.177 HD
ENDROOT
BRANCH   3   5
ATOM      5  N   UNL     1       8.342  -1.041  -0.088  0.00  0.00    -0.188 NA
ATOM      6  C   UNL     1       9.534  -0.527  -0.098  0.00  0.00    +0.142 C 
BRANCH   6   7
ATOM      7  C   UNL     1      10.715  -1.407  -0.115  0.00  0.00    +0.038 A 
ATOM      8  C   UNL     1      12.000  -0.857  -0.119  0.00  0.00    +0.032 A 
ATOM      9  C   UNL     1      13.102  -1.684  -0.135  0.00  0.00    +0.061 A 
ATOM     10  C   UNL     1      12.941  -3.065  -0.146  0.00  0.00    +0.148 A 
ATOM     11  C   UNL     1      11.670  -3.621  -0.142  0.00  0.00    +0.102 A 
ATOM     12  C   UNL     1      10.555  -2.800  -0.121  0.00  0.00    +0.143 A 
ATOM     13 BR   UNL     1      11.460  -5.500  -0.159  0.00  0.00    -0.043 Br
ATOM     14 BR   UNL     1      14.840  -0.938  -0.141  0.00  0.00    -0.046 Br
BRANCH  12  15
ATOM     15  O   UNL     1       9.309  -3.342  -0.111  0.00  0.00    -0.505 OA
ATOM     16  H   UNL     1       8.940  -3.495  -0.992  0.00  0.00    +0.292 HD
ENDBRANCH  12  15
BRANCH  10  17
ATOM     17  O   UNL     1      14.033  -3.874  -0.162  0.00  0.00    -0.504 OA
ATOM     18  H   UNL     1      14.356  -4.116   0.717  0.00  0.00    +0.292 HD
ENDBRANCH  10  17
ENDBRANCH   6   7
ENDBRANCH   3   5
BRANCH   1  19
ATOM     19  C   UNL     1       4.772   0.164  -0.045  0.00  0.00    +0.326 C 
BRANCH  19  20
ATOM     20  O   UNL     1       3.586  -0.632  -0.037  0.00  0.00    -0.480 OA
BRANCH  20  24
ATOM     21  C   UNL     1      -0.017   1.378   0.010  0.00  0.00    +0.002 A 
ATOM     22  C   UNL     1       1.170   2.088   0.002  0.00  0.00    +0.004 A 
ATOM     23  C   UNL     1       2.377   1.417  -0.013  0.00  0.00    +0.048 A 
ATOM     24  C   UNL     1       2.399   0.030  -0.021  0.00  0.00    +0.151 A 
ATOM     25  C   UNL     1       1.207  -0.680  -0.013  0.00  0.00    +0.168 A 
ATOM     26  C   UNL     1       0.002  -0.004   0.002  0.00  0.00    +0.036 A 
BRANCH  25  27
ATOM     27  N   UNL     1       1.226  -2.160  -0.022  0.00  0.00    +0.060 N 
ATOM     28  O   UNL     1       0.188  -2.778  -0.015  0.00  0.00    -0.126 OA
ATOM     29  O   UNL     1       2.281  -2.750  -0.036  0.00  0.00    -0.126 OA
ENDBRANCH  25  27
ENDBRANCH  20  24
ENDBRANCH  19  20
ENDBRANCH   1  19
TORSDOF 8
