REMARK  Name = ZINC04402154
REMARK  8 active torsions:
REMARK  status: ('A' for Active; 'I' for Inactive)
REMARK    1  A    between atoms: C_1  and  C_2
REMARK    2  A    between atoms: C_2  and  C_3
REMARK    3  A    between atoms: C_2  and  C_4
REMARK    4  A    between atoms: C_4  and  C_6
REMARK    5  A    between atoms: C_4  and  N_10
REMARK    6  A    between atoms: N_8  and  C_9
REMARK    7  A    between atoms: N_10  and  S_11
REMARK    8  A    between atoms: S_11  and  C_14
REMARK                            x       y       z     vdW  Elec       q    Type
REMARK                         _______ _______ _______ _____ _____    ______ ____
ROOT
ATOM      1  N   UNL     1      -2.674   0.362  -0.917  0.00  0.00    -0.178 NA
ATOM      2  H   UNL     1      -2.631   0.320  -1.885  0.00  0.00    +0.149 HD
ENDROOT
BRANCH   1   3
ATOM      3  S   UNL     1      -3.947   1.119  -0.176  0.00  0.00    +0.059 S 
ATOM      4  O   UNL     1      -4.787   1.608  -1.213  0.00  0.00    -0.153 OA
ATOM      5  O   UNL     1      -4.416   0.233   0.831  0.00  0.00    -0.153 OA
BRANCH   3   6
ATOM      6  C   UNL     1      -3.301   2.531   0.657  0.00  0.00    +0.105 A 
ATOM      7  C   UNL     1      -2.823   2.412   1.948  0.00  0.00    +0.029 A 
ATOM      8  C   UNL     1      -2.316   3.520   2.602  0.00  0.00    +0.016 A 
ATOM      9  C   UNL     1      -2.288   4.746   1.964  0.00  0.00    +0.013 A 
ATOM     10  C   UNL     1      -2.766   4.864   0.671  0.00  0.00    +0.016 A 
ATOM     11  C   UNL     1      -3.267   3.755   0.016  0.00  0.00    +0.029 A 
ATOM     12  I   UNL     1      -1.520   6.425   2.954  0.00  0.00    -0.044 I 
ENDBRANCH   3   6
ENDBRANCH   1   3
BRANCH   1  13
ATOM     13  C   UNL     1      -1.612  -0.244  -0.110  0.00  0.00    +0.165 C 
BRANCH  13  14
ATOM     14  C   UNL     1      -1.889  -1.715   0.062  0.00  0.00    +0.232 C 
ATOM     15  O   UNL     1      -2.657  -2.279  -0.688  0.00  0.00    -0.274 OA
ATOM     16  N   UNL     1      -1.284  -2.404   1.050  0.00  0.00    -0.317 N 
ATOM     17  C   UNL     1      -1.473  -3.853   1.155  0.00  0.00    +0.128 C 
ATOM     18  H   UNL     1      -0.724  -1.940   1.692  0.00  0.00    +0.148 HD
ENDBRANCH  13  14
BRANCH  13  20
ATOM     19  C   UNL     1      -0.304  -0.754  -2.177  0.00  0.00    +0.009 C 
ATOM     20  C   UNL     1      -0.266  -0.058  -0.815  0.00  0.00    +0.010 C 
ATOM     21  C   UNL     1       0.004   1.435  -1.013  0.00  0.00    +0.009 C 
ENDBRANCH  13  20
ENDBRANCH   1  13
TORSDOF 5
