REMARK  Name = ZINC35781252
REMARK  10 active torsions:
REMARK  status: ('A' for Active; 'I' for Inactive)
REMARK    1  A    between atoms: C_2  and  C_3
REMARK    2  A    between atoms: C_3  and  C_4
REMARK    3  A    between atoms: C_4  and  C_5
REMARK    4  A    between atoms: C_5  and  C_7
REMARK    5  A    between atoms: C_5  and  O_32
REMARK    6  A    between atoms: C_7  and  N_8
REMARK    7  A    between atoms: N_8  and  C_9
REMARK    8  A    between atoms: N_8  and  C_15
REMARK    9  A    between atoms: C_9  and  C_10
REMARK   10  A    between atoms: C_15  and  C_16
REMARK                            x       y       z     vdW  Elec       q    Type
REMARK                         _______ _______ _______ _____ _____    ______ ____
ROOT
ATOM      1  C   UNL     1      -4.686  -4.752  -3.498  0.00  0.00    -0.003 C 
ENDROOT
BRANCH   1   2
ATOM      2  C   UNL     1      -6.061  -5.334  -3.298  0.00  0.00    +0.094 A 
ATOM      3  N   UNL     1      -6.594  -6.132  -4.259  0.00  0.00    -0.312 N 
ATOM      4  H   UNL     1      -6.081  -6.317  -5.061  0.00  0.00    +0.170 HD
ATOM      5  C   UNL     1      -7.819  -6.672  -4.120  0.00  0.00    +0.260 A 
ATOM      6  O   UNL     1      -8.284  -7.387  -4.992  0.00  0.00    -0.267 OA
ATOM      7  C   UNL     1      -8.568  -6.393  -2.930  0.00  0.00    +0.075 A 
ATOM      8  C   UNL     1      -9.907  -6.868  -2.571  0.00  0.00    -0.023 A 
ATOM      9  C   UNL     1     -10.398  -6.455  -1.384  0.00  0.00    -0.004 A 
ATOM     10  S   UNL     1      -9.125  -5.437  -0.685  0.00  0.00    -0.073 S 
ATOM     11  C   UNL     1      -7.936  -5.560  -1.996  0.00  0.00    +0.116 A 
ATOM     12  N   UNL     1      -6.717  -5.066  -2.200  0.00  0.00    -0.229 NA
ATOM     13  C   UNL     1     -11.733  -6.770  -0.783  0.00  0.00    +0.043 C 
ATOM     14  C   UNL     1     -11.977  -8.283  -0.856  0.00  0.00    +0.005 C 
ATOM     15  C   UNL     1     -12.666  -8.596  -2.180  0.00  0.00    +0.001 C 
ATOM     16  C   UNL     1     -12.185  -7.630  -3.261  0.00  0.00    +0.005 C 
ATOM     17  C   UNL     1     -10.689  -7.795  -3.498  0.00  0.00    +0.037 C 
ENDBRANCH   1   2
BRANCH   1  18
ATOM     18  N   UNL     1      -4.325  -3.935  -2.332  0.00  0.00    +0.391 N 
ATOM     19  H   UNL     1      -5.038  -3.238  -2.176  0.00  0.00    -0.080 HD
BRANCH  18  20
ATOM     20  C   UNL     1      -3.038  -3.271  -2.578  0.00  0.00    -0.046 C 
BRANCH  20  21
ATOM     21  C   UNL     1      -3.192  -2.268  -3.722  0.00  0.00    +0.098 C 
BRANCH  21  22
ATOM     22  O   UNL     1      -4.145  -1.268  -3.354  0.00  0.00    -0.394 OA
ATOM     23  H   UNL     1      -3.872  -0.722  -2.605  0.00  0.00    +0.210 HD
ENDBRANCH  21  22
BRANCH  21  24
ATOM     24  C   UNL     1      -1.842  -1.605  -4.005  0.00  0.00    +0.033 C 
BRANCH  24  25
ATOM     25  C   UNL     1      -1.967  -0.695  -5.228  0.00  0.00    +0.029 C 
BRANCH  25  27
ATOM     26  C   UNL     1      -0.086  -0.157  -6.689  0.00  0.00    +0.004 C 
ATOM     27  C   UNL     1      -0.637  -0.042  -5.506  0.00  0.00    -0.034 C 
ENDBRANCH  25  27
ENDBRANCH  24  25
ENDBRANCH  21  24
ENDBRANCH  20  21
ENDBRANCH  18  20
BRANCH  18  28
ATOM     28  C   UNL     1      -4.213  -4.796  -1.147  0.00  0.00    -0.002 C 
BRANCH  28  29
ATOM     29  C   UNL     1      -3.986  -3.943   0.074  0.00  0.00    +0.089 A 
ATOM     30  C   UNL     1      -4.943  -3.341   0.803  0.00  0.00    +0.042 A 
ATOM     31  C   UNL     1      -4.288  -2.650   1.848  0.00  0.00    +0.041 A 
ATOM     32  C   UNL     1      -2.970  -2.871   1.696  0.00  0.00    +0.195 A 
ATOM     33  O   UNL     1      -2.793  -3.659   0.623  0.00  0.00    -0.470 OA
ENDBRANCH  28  29
ENDBRANCH  18  28
ENDBRANCH   1  18
TORSDOF 10
