REMARK  Name = ZINC64219024
REMARK  9 active torsions:
REMARK  status: ('A' for Active; 'I' for Inactive)
REMARK    1  A    between atoms: C_4  and  C_7
REMARK    2  A    between atoms: C_7  and  O_8
REMARK    3  A    between atoms: O_8  and  C_9
REMARK    4  A    between atoms: N_11  and  C_12
REMARK    5  A    between atoms: C_12  and  C_14
REMARK    6  A    between atoms: C_12  and  C_24
REMARK    7  A    between atoms: C_14  and  C_15
REMARK    8  A    between atoms: N_26  and  C_27
REMARK    9  A    between atoms: C_27  and  C_28
REMARK                            x       y       z     vdW  Elec       q    Type
REMARK                         _______ _______ _______ _____ _____    ______ ____
ROOT
ATOM      1  C   UNL     1       6.935  -2.559   2.784  0.00  0.00    +0.166 C 
ENDROOT
BRANCH   1   4
ATOM      2  C   UNL     1       5.254  -1.862   1.164  0.00  0.00    +0.401 C 
ATOM      3  O   UNL     1       5.983  -2.261   0.279  0.00  0.00    -0.226 OA
ATOM      4  N   UNL     1       5.638  -1.965   2.452  0.00  0.00    -0.270 N 
ATOM      5  H   UNL     1       5.055  -1.646   3.159  0.00  0.00    +0.153 HD
BRANCH   2   6
ATOM      6  O   UNL     1       4.061  -1.316   0.859  0.00  0.00    -0.446 OA
BRANCH   6   7
ATOM      7  C   UNL     1       3.719  -1.238  -0.526  0.00  0.00    +0.269 C 
BRANCH   7  11
ATOM      8  C   UNL     1      -0.133   0.560  -0.945  0.00  0.00    +0.000 A 
ATOM      9  C   UNL     1       1.002   1.349  -0.942  0.00  0.00    +0.000 A 
ATOM     10  C   UNL     1       2.248   0.767  -0.806  0.00  0.00    +0.007 A 
ATOM     11  C   UNL     1       2.360  -0.604  -0.673  0.00  0.00    -0.010 A 
ATOM     12  C   UNL     1       1.225  -1.393  -0.675  0.00  0.00    +0.007 A 
ATOM     13  C   UNL     1      -0.021  -0.811  -0.812  0.00  0.00    +0.000 A 
ENDBRANCH   7  11
ENDBRANCH   6   7
ENDBRANCH   2   6
ENDBRANCH   1   4
BRANCH   1  14
ATOM     14  C   UNL     1       7.441  -1.970   4.076  0.00  0.00    +0.234 C 
ATOM     15  O   UNL     1       6.783  -1.136   4.661  0.00  0.00    -0.274 OA
ATOM     16  N   UNL     1       8.625  -2.369   4.580  0.00  0.00    -0.308 N 
ATOM     17  H   UNL     1       9.152  -3.036   4.112  0.00  0.00    +0.149 HD
BRANCH  16  18
ATOM     18  C   UNL     1       9.117  -1.797   5.836  0.00  0.00    +0.159 C 
BRANCH  18  19
ATOM     19  C   UNL     1      10.452  -2.408   6.177  0.00  0.00    +0.058 A 
ATOM     20  C   UNL     1      11.615  -1.757   5.811  0.00  0.00    +0.025 A 
ATOM     21  C   UNL     1      12.838  -2.327   6.131  0.00  0.00    +0.003 A 
ATOM     22  C   UNL     1      12.844  -3.537   6.809  0.00  0.00    +0.020 A 
ATOM     23  C   UNL     1      11.641  -4.129   7.142  0.00  0.00    +0.111 A 
ATOM     24  N   UNL     1      10.497  -3.554   6.827  0.00  0.00    -0.258 NA
ENDBRANCH  18  19
ENDBRANCH  16  18
ENDBRANCH   1  14
BRANCH   1  25
ATOM     25  C   UNL     1       6.777  -4.072   2.942  0.00  0.00    +0.065 C 
BRANCH  25  26
ATOM     26  C   UNL     1       5.772  -4.363   4.026  0.00  0.00    -0.039 C 
ATOM     27  C   UNL     1       4.450  -4.600   3.867  0.00  0.00    -0.001 A 
ATOM     28  C   UNL     1       3.585  -4.654   2.682  0.00  0.00    +0.010 A 
ATOM     29  C   UNL     1       2.268  -4.918   2.842  0.00  0.00    +0.001 A 
ATOM     30  C   UNL     1       1.710  -5.141   4.109  0.00  0.00    +0.002 A 
ATOM     31  C   UNL     1       2.441  -5.107   5.243  0.00  0.00    +0.026 A 
ATOM     32  C   UNL     1       3.836  -4.838   5.192  0.00  0.00    +0.043 A 
ATOM     33  N   UNL     1       4.744  -4.753   6.135  0.00  0.00    -0.380 N 
ATOM     34  C   UNL     1       6.038  -4.456   5.512  0.00  0.00    +0.144 C 
ATOM     35  H   UNL     1       4.586  -4.870   7.085  0.00  0.00    +0.160 HD
ENDBRANCH  25  26
ENDBRANCH   1  25
TORSDOF 9
