REMARK  Name = ZINC21841282
REMARK  9 active torsions:
REMARK  status: ('A' for Active; 'I' for Inactive)
REMARK    1  A    between atoms: C_1  and  N_2
REMARK    2  A    between atoms: N_2  and  C_3
REMARK    3  A    between atoms: N_2  and  C_4
REMARK    4  A    between atoms: C_4  and  C_6
REMARK    5  A    between atoms: C_4  and  C_24
REMARK    6  A    between atoms: C_6  and  N_7
REMARK    7  A    between atoms: N_7  and  C_8
REMARK    8  A    between atoms: C_8  and  C_9
REMARK    9  A    between atoms: C_12  and  N_15
REMARK                            x       y       z     vdW  Elec       q    Type
REMARK                         _______ _______ _______ _____ _____    ______ ____
ROOT
ATOM      1  C   UNL     1       0.141  -3.444   1.134  0.00  0.00    -0.047 C 
ENDROOT
BRANCH   1   2
ATOM      2  C   UNL     1       0.952  -3.770   2.362  0.00  0.00    -0.064 A 
ATOM      3  C   UNL     1       2.333  -3.715   2.311  0.00  0.00    +0.004 A 
ATOM      4  C   UNL     1       3.079  -4.014   3.435  0.00  0.00    +0.026 A 
ATOM      5  C   UNL     1       2.441  -4.368   4.616  0.00  0.00    +0.048 A 
ATOM      6  C   UNL     1       1.054  -4.421   4.664  0.00  0.00    +0.026 A 
ATOM      7  C   UNL     1       0.314  -4.117   3.538  0.00  0.00    +0.004 A 
BRANCH   5   8
ATOM      8  N   UNL     1       3.195  -4.672   5.757  0.00  0.00    -0.299 N 
ATOM      9  C   UNL     1       4.250  -5.531   5.824  0.00  0.00    +0.205 A 
ATOM     10  N   UNL     1       4.716  -5.574   7.038  0.00  0.00    -0.235 NA
ATOM     11  C   UNL     1       3.993  -4.746   7.835  0.00  0.00    +0.089 A 
ATOM     12  C   UNL     1       3.010  -4.151   7.025  0.00  0.00    +0.073 A 
ATOM     13  C   UNL     1       2.116  -3.243   7.574  0.00  0.00    +0.028 A 
ATOM     14  C   UNL     1       2.198  -2.925   8.913  0.00  0.00    +0.002 A 
ATOM     15  C   UNL     1       3.167  -3.507   9.716  0.00  0.00    +0.002 A 
ATOM     16  C   UNL     1       4.058  -4.415   9.191  0.00  0.00    +0.030 A 
ENDBRANCH   5   8
ENDBRANCH   1   2
BRANCH   1  17
ATOM     17  N   UNL     1      -0.155  -2.005   1.110  0.00  0.00    +0.381 N 
ATOM     18  H   UNL     1       0.709  -1.484   1.091  0.00  0.00    -0.086 HD
ATOM     19  H   UNL     1      -0.679  -1.756   1.935  0.00  0.00    -0.086 HD
BRANCH  17  20
ATOM     20  C   UNL     1      -0.945  -1.688  -0.087  0.00  0.00    -0.090 C 
BRANCH  20  21
ATOM     21  C   UNL     1      -1.306  -0.201  -0.080  0.00  0.00    -0.019 C 
BRANCH  21  22
ATOM     22  C   UNL     1      -2.222   0.088   1.081  0.00  0.00    +0.090 A 
ATOM     23  C   UNL     1      -1.856   0.631   2.256  0.00  0.00    +0.043 A 
ATOM     24  C   UNL     1      -3.025   0.723   3.046  0.00  0.00    +0.041 A 
ATOM     25  C   UNL     1      -4.035   0.232   2.307  0.00  0.00    +0.195 A 
ATOM     26  O   UNL     1      -3.544  -0.146   1.115  0.00  0.00    -0.470 OA
ENDBRANCH  21  22
BRANCH  21  28
ATOM     27  C   UNL     1      -2.405   1.551  -1.296  0.00  0.00    -0.096 C 
ATOM     28  N   UNL     1      -1.983   0.144  -1.337  0.00  0.00    +0.381 N 
ATOM     29  C   UNL     1      -1.060  -0.057  -2.462  0.00  0.00    -0.096 C 
ATOM     30  H   UNL     1      -2.793  -0.446  -1.456  0.00  0.00    -0.082 HD
ENDBRANCH  21  28
ENDBRANCH  20  21
ENDBRANCH  17  20
ENDBRANCH   1  17
TORSDOF 7
