REMARK  Name = ZINC39369758
REMARK  8 active torsions:
REMARK  status: ('A' for Active; 'I' for Inactive)
REMARK    1  A    between atoms: C_1  and  O_2
REMARK    2  A    between atoms: O_2  and  C_3
REMARK    3  A    between atoms: C_8  and  C_13
REMARK    4  A    between atoms: C_13  and  C_30
REMARK    5  A    between atoms: C_14  and  C_15
REMARK    6  A    between atoms: C_18  and  O_21
REMARK    7  A    between atoms: O_21  and  C_22
REMARK    8  A    between atoms: C_22  and  C_23
REMARK                            x       y       z     vdW  Elec       q    Type
REMARK                         _______ _______ _______ _____ _____    ______ ____
ROOT
ATOM      1  C   UNL     1       1.199  -5.196   4.428  0.00  0.00    +0.072 C 
ATOM      2  C   UNL     1       1.929  -5.909   5.312  0.00  0.00    +0.026 C 
ENDROOT
BRANCH   1   8
ATOM      3  C   UNL     1      -0.623  -2.794  -0.290  0.00  0.00    +0.122 A 
ATOM      4  C   UNL     1       0.290  -1.736   0.122  0.00  0.00    +0.048 A 
ATOM      5  C   UNL     1       1.196  -1.920   1.100  0.00  0.00    +0.031 A 
ATOM      6  C   UNL     1       1.282  -3.220   1.782  0.00  0.00    +0.061 A 
ATOM      7  N   UNL     1       2.049  -3.659   2.738  0.00  0.00    -0.359 N 
ATOM      8  C   UNL     1       1.671  -5.052   3.004  0.00  0.00    +0.216 C 
ATOM      9  N   UNL     1       0.579  -5.370   2.076  0.00  0.00    -0.359 N 
ATOM     10  C   UNL     1       0.350  -4.302   1.361  0.00  0.00    +0.064 A 
ATOM     11  C   UNL     1      -0.610  -4.017   0.293  0.00  0.00    +0.073 A 
ATOM     12  H   UNL     1       2.745  -3.157   3.191  0.00  0.00    +0.162 HD
ATOM     13  H   UNL     1       0.113  -6.218   2.007  0.00  0.00    +0.162 HD
BRANCH   3  15
ATOM     14  C   UNL     1      -1.490  -1.242  -1.866  0.00  0.00    +0.277 C 
ATOM     15  O   UNL     1      -1.514  -2.546  -1.282  0.00  0.00    -0.495 OA
ENDBRANCH   3  15
ENDBRANCH   1   8
BRANCH   2  16
ATOM     16  C   UNL     1       3.263  -6.400   4.937  0.00  0.00    -0.024 A 
ATOM     17  C   UNL     1       4.103  -5.611   4.143  0.00  0.00    +0.011 A 
ATOM     18  C   UNL     1       5.352  -6.075   3.795  0.00  0.00    +0.046 A 
ATOM     19  C   UNL     1       5.779  -7.323   4.232  0.00  0.00    +0.121 A 
ATOM     20  C   UNL     1       4.949  -8.110   5.021  0.00  0.00    +0.046 A 
ATOM     21  C   UNL     1       3.700  -7.654   5.379  0.00  0.00    +0.011 A 
BRANCH  19  22
ATOM     22  O   UNL     1       7.012  -7.776   3.886  0.00  0.00    -0.487 OA
BRANCH  22  23
ATOM     23  C   UNL     1       7.388  -9.068   4.368  0.00  0.00    +0.264 C 
BRANCH  23  24
ATOM     24  C   UNL     1       8.777  -9.399   3.887  0.00  0.00    -0.010 A 
ATOM     25  C   UNL     1       8.953 -10.048   2.679  0.00  0.00    +0.008 A 
ATOM     26  C   UNL     1      10.227 -10.351   2.237  0.00  0.00    +0.015 A 
ATOM     27  C   UNL     1      11.326 -10.006   3.004  0.00  0.00    +0.018 A 
ATOM     28  C   UNL     1      11.149  -9.357   4.213  0.00  0.00    +0.015 A 
ATOM     29  C   UNL     1       9.874  -9.049   4.651  0.00  0.00    +0.008 A 
ATOM     30 BR   UNL     1      13.069 -10.422   2.400  0.00  0.00    -0.050 Br
ENDBRANCH  23  24
ENDBRANCH  22  23
ENDBRANCH  19  22
ENDBRANCH   2  16
BRANCH   1  31
ATOM     31  C   UNL     1      -0.023  -4.576   4.844  0.00  0.00    +0.099 C 
ATOM     32  N   UNL     1      -0.993  -4.085   5.174  0.00  0.00    -0.191 NA
ENDBRANCH   1  31
TORSDOF 7
