REMARK  Name = ZINC09885879
REMARK  10 active torsions:
REMARK  status: ('A' for Active; 'I' for Inactive)
REMARK    1  A    between atoms: C_1  and  C_2
REMARK    2  A    between atoms: C_2  and  C_3
REMARK    3  A    between atoms: N_9  and  C_32
REMARK    4  A    between atoms: N_11  and  C_12
REMARK    5  A    between atoms: C_12  and  C_14
REMARK    6  A    between atoms: C_17  and  S_20
REMARK    7  A    between atoms: S_20  and  N_23
REMARK    8  A    between atoms: N_23  and  C_24
REMARK    9  A    between atoms: N_23  and  C_25
REMARK   10  A    between atoms: C_32  and  C_33
REMARK                            x       y       z     vdW  Elec       q    Type
REMARK                         _______ _______ _______ _____ _____    ______ ____
ROOT
ATOM      1  C   UNL     1      -4.790  -0.843   6.059  0.00  0.00    +0.039 A 
ATOM      2  C   UNL     1      -5.757  -0.290   5.219  0.00  0.00    +0.015 A 
ATOM      3  C   UNL     1      -7.038  -0.084   5.688  0.00  0.00    +0.029 A 
ATOM      4  C   UNL     1      -7.365  -0.424   6.989  0.00  0.00    +0.106 A 
ATOM      5  C   UNL     1      -6.410  -0.973   7.827  0.00  0.00    +0.029 A 
ATOM      6  C   UNL     1      -5.127  -1.189   7.368  0.00  0.00    +0.015 A 
ENDROOT
BRANCH   4   7
ATOM      7  S   UNL     1      -9.002  -0.156   7.581  0.00  0.00    +0.061 S 
ATOM      8  O   UNL     1      -8.911  -0.051   8.995  0.00  0.00    -0.153 OA
ATOM      9  O   UNL     1      -9.563   0.872   6.776  0.00  0.00    -0.153 OA
BRANCH   7  10
ATOM     10  N   UNL     1      -9.869  -1.531   7.264  0.00  0.00    -0.177 NA
ATOM     11  C   UNL     1      -9.920  -2.610   8.254  0.00  0.00    +0.132 C 
BRANCH  10  12
ATOM     12  C   UNL     1     -10.584  -1.670   5.992  0.00  0.00    +0.080 C 
ATOM     13  C   UNL     1     -12.078  -1.850   6.265  0.00  0.00    +0.020 C 
ATOM     14  C   UNL     1     -12.825  -1.995   4.938  0.00  0.00    +0.002 C 
ATOM     15  C   UNL     1     -12.293  -3.215   4.183  0.00  0.00    +0.000 C 
ATOM     16  C   UNL     1     -10.798  -3.034   3.910  0.00  0.00    +0.002 C 
ATOM     17  C   UNL     1     -10.052  -2.890   5.238  0.00  0.00    +0.020 C 
ENDBRANCH  10  12
ENDBRANCH   7  10
ENDBRANCH   4   7
BRANCH   1  18
ATOM     18  C   UNL     1      -3.413  -1.068   5.562  0.00  0.00    +0.269 C 
ATOM     19  O   UNL     1      -2.572  -1.556   6.296  0.00  0.00    -0.268 OA
BRANCH  18  28
ATOM     20  C   UNL     1       0.667  -0.740   1.145  0.00  0.00    -0.023 A 
ATOM     21  C   UNL     1       1.996  -1.083   1.053  0.00  0.00    +0.006 A 
ATOM     22  C   UNL     1       2.669  -1.639   2.128  0.00  0.00    +0.001 A 
ATOM     23  C   UNL     1       1.991  -1.853   3.316  0.00  0.00    +0.017 A 
ATOM     24  C   UNL     1       0.663  -1.510   3.409  0.00  0.00    +0.039 A 
ATOM     25  C   UNL     1      -0.041  -0.941   2.338  0.00  0.00    +0.061 A 
ATOM     26  N   UNL     1      -1.363  -0.660   2.626  0.00  0.00    -0.321 N 
ATOM     27  C   UNL     1      -1.858  -0.936   3.861  0.00  0.00    +0.167 A 
ATOM     28  N   UNL     1      -3.094  -0.735   4.307  0.00  0.00    -0.152 NA
ATOM     29  S   UNL     1      -0.558  -1.603   4.691  0.00  0.00    -0.052 S 
BRANCH  20  31
ATOM     30  C   UNL     1       0.987   0.135  -1.153  0.00  0.00    +0.009 C 
ATOM     31  C   UNL     1      -0.033  -0.138  -0.046  0.00  0.00    +0.034 C 
ENDBRANCH  20  31
BRANCH  26  32
ATOM     32  C   UNL     1      -2.228  -0.067   1.604  0.00  0.00    +0.121 C 
ATOM     33  C   UNL     1      -2.116   1.458   1.662  0.00  0.00    +0.027 C 
ENDBRANCH  26  32
ENDBRANCH  18  28
ENDBRANCH   1  18
TORSDOF 7
