REMARK  Name = ZINC66953083
REMARK  5 active torsions:
REMARK  status: ('A' for Active; 'I' for Inactive)
REMARK    1  A    between atoms: C_10  and  C_11
REMARK    2  A    between atoms: C_10  and  O_28
REMARK    3  A    between atoms: C_11  and  N_12
REMARK    4  A    between atoms: N_15  and  C_16
REMARK    5  A    between atoms: C_21  and  N_22
REMARK                            x       y       z     vdW  Elec       q    Type
REMARK                         _______ _______ _______ _____ _____    ______ ____
ROOT
ATOM      1  N   UNL     1       4.739   1.477  -0.615  0.00  0.00    -0.296 N 
ATOM      2  C   UNL     1       5.417   2.344  -1.394  0.00  0.00    +0.304 C 
ATOM      3  O   UNL     1       5.973   1.950  -2.400  0.00  0.00    -0.253 OA
ATOM      4  N   UNL     1       5.477   3.647  -1.056  0.00  0.00    -0.267 N 
ATOM      5  H   UNL     1       4.295   1.791   0.188  0.00  0.00    +0.150 HD
ATOM      6  H   UNL     1       5.089   3.950  -0.220  0.00  0.00    +0.156 HD
ENDROOT
BRANCH   4   7
ATOM      7  C   UNL     1       6.098   4.564  -1.913  0.00  0.00    +0.063 A 
ATOM      8  C   UNL     1       7.211   4.184  -2.649  0.00  0.00    +0.063 A 
ATOM      9  C   UNL     1       7.823   5.092  -3.495  0.00  0.00    +0.125 A 
ATOM     10  C   UNL     1       7.327   6.380  -3.609  0.00  0.00    +0.040 A 
ATOM     11  C   UNL     1       6.218   6.765  -2.879  0.00  0.00    +0.032 A 
ATOM     12  C   UNL     1       5.596   5.859  -2.033  0.00  0.00    +0.087 A 
ATOM     13  F   UNL     1       8.907   4.721  -4.211  0.00  0.00    -0.205 F 
BRANCH  12  14
ATOM     14  N   UNL     1       4.467   6.247  -1.295  0.00  0.00    -0.238 N 
ATOM     15  C   UNL     1       3.823   7.432  -1.391  0.00  0.00    +0.114 A 
ATOM     16  C   UNL     1       2.791   7.411  -0.516  0.00  0.00    +0.041 A 
ATOM     17  C   UNL     1       2.804   6.174   0.137  0.00  0.00    +0.135 A 
ATOM     18  N   UNL     1       3.805   5.473  -0.333  0.00  0.00    -0.175 NA
ENDBRANCH  12  14
ENDBRANCH   4   7
BRANCH   1  19
ATOM     19  C   UNL     1       4.674   0.060  -0.982  0.00  0.00    +0.145 C 
BRANCH  19  29
ATOM     20  C   UNL     1       3.555  -4.776  -1.211  0.00  0.00    +0.000 A 
ATOM     21  C   UNL     1       3.528  -3.761  -2.150  0.00  0.00    +0.000 A 
ATOM     22  C   UNL     1       3.594  -2.446  -1.738  0.00  0.00    +0.007 A 
ATOM     23  C   UNL     1       3.690  -2.133  -0.388  0.00  0.00    -0.011 A 
ATOM     24  C   UNL     1       3.722  -3.144   0.546  0.00  0.00    -0.041 A 
ATOM     25  C   UNL     1       3.651  -4.467   0.130  0.00  0.00    +0.004 A 
ATOM     26  C   UNL     1       3.840  -2.879   2.024  0.00  0.00    +0.035 C 
ATOM     27  C   UNL     1       3.477  -1.429   2.341  0.00  0.00    +0.008 C 
ATOM     28  C   UNL     1       4.285  -0.514   1.413  0.00  0.00    +0.041 C 
ATOM     29  C   UNL     1       3.751  -0.676  -0.009  0.00  0.00    +0.107 C 
BRANCH  29  30
ATOM     30  O   UNL     1       2.440  -0.114  -0.087  0.00  0.00    -0.382 OA
ATOM     31  H   UNL     1       2.042  -0.165  -0.967  0.00  0.00    +0.211 HD
ENDBRANCH  29  30
ENDBRANCH  19  29
ENDBRANCH   1  19
TORSDOF 5
