REMARK  Name = ZINC09119937
REMARK  11 active torsions:
REMARK  status: ('A' for Active; 'I' for Inactive)
REMARK    1  A    between atoms: C_1  and  C_2
REMARK    2  A    between atoms: C_2  and  C_3
REMARK    3  A    between atoms: C_2  and  C_4
REMARK    4  A    between atoms: C_4  and  C_6
REMARK    5  A    between atoms: C_4  and  N_26
REMARK    6  A    between atoms: C_6  and  O_8
REMARK    7  A    between atoms: O_8  and  C_9
REMARK    8  A    between atoms: C_9  and  C_10
REMARK    9  A    between atoms: N_15  and  C_16
REMARK   10  A    between atoms: N_26  and  S_27
REMARK   11  A    between atoms: S_27  and  C_30
REMARK                            x       y       z     vdW  Elec       q    Type
REMARK                         _______ _______ _______ _____ _____    ______ ____
ROOT
ATOM      1  C   UNL     1       3.366   0.850  -6.061  0.00  0.00    +0.328 C 
ENDROOT
BRANCH   1   2
ATOM      2  C   UNL     1       3.552   2.104  -6.875  0.00  0.00    +0.258 C 
ATOM      3  O   UNL     1       4.155   3.046  -6.407  0.00  0.00    -0.272 OA
ATOM      4  N   UNL     1       3.048   2.180  -8.123  0.00  0.00    -0.237 N 
ATOM      5  C   UNL     1       3.214   3.302  -8.850  0.00  0.00    +0.306 C 
ATOM      6  O   UNL     1       3.818   4.246  -8.381  0.00  0.00    -0.252 OA
ATOM      7  N   UNL     1       2.710   3.377 -10.098  0.00  0.00    -0.294 N 
ATOM      8  H   UNL     1       2.565   1.426  -8.497  0.00  0.00    +0.159 HD
ATOM      9  H   UNL     1       2.227   2.623 -10.472  0.00  0.00    +0.151 HD
BRANCH   7  10
ATOM     10  C   UNL     1       2.891   4.597 -10.889  0.00  0.00    +0.037 C 
ATOM     11  C   UNL     1       2.248   5.778 -10.159  0.00  0.00    +0.029 C 
ATOM     12  C   UNL     1       2.437   7.052 -10.985  0.00  0.00    -0.008 C 
ATOM     13  C   UNL     1       1.774   6.876 -12.352  0.00  0.00    +0.007 C 
ATOM     14  C   UNL     1       2.417   5.695 -13.082  0.00  0.00    -0.008 C 
ATOM     15  C   UNL     1       2.228   4.421 -12.257  0.00  0.00    +0.029 C 
ATOM     16  C   UNL     1       3.911   5.964 -13.271  0.00  0.00    +0.007 C 
ATOM     17  C   UNL     1       4.574   6.140 -11.903  0.00  0.00    -0.008 C 
ATOM     18  C   UNL     1       3.931   7.321 -11.173  0.00  0.00    +0.007 C 
ATOM     19  C   UNL     1       4.385   4.866 -11.077  0.00  0.00    +0.029 C 
ENDBRANCH   7  10
ENDBRANCH   1   2
BRANCH   1  20
ATOM     20  O   UNL     1       3.995   1.017  -4.763  0.00  0.00    -0.454 OA
BRANCH  20  21
ATOM     21  C   UNL     1       3.919  -0.018  -3.912  0.00  0.00    +0.327 C 
ATOM     22  O   UNL     1       3.346  -1.030  -4.240  0.00  0.00    -0.249 OA
BRANCH  21  23
ATOM     23  C   UNL     1       4.548   0.082  -2.546  0.00  0.00    +0.187 C 
BRANCH  23  25
ATOM     24  C   UNL     1       6.671   0.547  -1.312  0.00  0.00    +0.009 C 
ATOM     25  C   UNL     1       6.051   0.330  -2.695  0.00  0.00    +0.012 C 
ATOM     26  C   UNL     1       6.704  -0.882  -3.362  0.00  0.00    +0.009 C 
ENDBRANCH  23  25
BRANCH  23  27
ATOM     27  N   UNL     1       4.329  -1.168  -1.815  0.00  0.00    -0.176 NA
ATOM     28  H   UNL     1       4.732  -1.992  -2.130  0.00  0.00    +0.149 HD
BRANCH  27  29
ATOM     29  S   UNL     1       3.393  -1.175  -0.449  0.00  0.00    +0.059 S 
ATOM     30  O   UNL     1       3.880  -0.130   0.383  0.00  0.00    -0.153 OA
ATOM     31  O   UNL     1       3.321  -2.525  -0.012  0.00  0.00    -0.153 OA
BRANCH  29  32
ATOM     32  C   UNL     1       1.762  -0.715  -0.933  0.00  0.00    +0.105 A 
ATOM     33  C   UNL     1       0.854  -1.685  -1.312  0.00  0.00    +0.028 A 
ATOM     34  C   UNL     1      -0.425  -1.324  -1.692  0.00  0.00    +0.002 A 
ATOM     35  C   UNL     1      -0.796   0.007  -1.692  0.00  0.00    +0.000 A 
ATOM     36  C   UNL     1       0.112   0.978  -1.312  0.00  0.00    +0.002 A 
ATOM     37  C   UNL     1       1.391   0.617  -0.932  0.00  0.00    +0.028 A 
ENDBRANCH  29  32
ENDBRANCH  27  29
ENDBRANCH  23  27
ENDBRANCH  21  23
ENDBRANCH  20  21
ENDBRANCH   1  20
TORSDOF 9
