REMARK  Name = ZINC02254300
REMARK  8 active torsions:
REMARK  status: ('A' for Active; 'I' for Inactive)
REMARK    1  A    between atoms: C_1  and  C_2
REMARK    2  A    between atoms: C_2  and  C_3
REMARK    3  A    between atoms: C_2  and  C_4
REMARK    4  A    between atoms: C_4  and  N_5
REMARK    5  A    between atoms: C_6  and  C_8
REMARK    6  A    between atoms: N_19  and  N_22
REMARK    7  A    between atoms: C_20  and  N_21
REMARK    8  A    between atoms: C_23  and  C_24
REMARK                            x       y       z     vdW  Elec       q    Type
REMARK                         _______ _______ _______ _____ _____    ______ ____
ROOT
ATOM      1  C   UNL     1       1.555  -2.056  -0.023  0.00  0.00    +0.105 A 
ATOM      2  C   UNL     1       1.157  -0.638  -0.012  0.00  0.00    +0.124 A 
ATOM      3  C   UNL     1       2.413   0.118  -0.019  0.00  0.00    +0.183 A 
ATOM      4  N   UNL     1       2.376   1.433  -0.012  0.00  0.00    -0.224 NA
ATOM      5  C   UNL     1       1.197   2.067   0.002  0.00  0.00    +0.092 A 
ATOM      6  C   UNL     1       1.149   3.474   0.009  0.00  0.00    +0.030 A 
ATOM      7  C   UNL     1      -0.054   4.110   0.024  0.00  0.00    +0.002 A 
ATOM      8  C   UNL     1      -1.246   3.389   0.031  0.00  0.00    +0.002 A 
ATOM      9  C   UNL     1      -1.240   2.029   0.019  0.00  0.00    +0.030 A 
ATOM     10  C   UNL     1      -0.016   1.334   0.009  0.00  0.00    +0.090 A 
ATOM     11  N   UNL     1       0.002  -0.004   0.002  0.00  0.00    -0.241 NA
ATOM     12  N   UNL     1       3.440  -0.806  -0.034  0.00  0.00    -0.198 N 
ATOM     13  C   UNL     1       2.945  -2.077  -0.036  0.00  0.00    +0.134 A 
ENDROOT
BRANCH   1  15
ATOM     14  N   UNL     1       0.263  -3.754   1.147  0.00  0.00    -0.311 N 
ATOM     15  C   UNL     1       0.663  -3.214  -0.021  0.00  0.00    +0.250 C 
ATOM     16  O   UNL     1       0.282  -3.691  -1.075  0.00  0.00    -0.270 OA
ATOM     17  H   UNL     1       0.567  -3.374   1.986  0.00  0.00    +0.149 HD
BRANCH  14  18
ATOM     18  C   UNL     1      -0.630  -4.915   1.149  0.00  0.00    +0.107 C 
BRANCH  18  20
ATOM     19  C   UNL     1      -1.958  -6.458   2.598  0.00  0.00    +0.009 C 
ATOM     20  C   UNL     1      -0.928  -5.326   2.593  0.00  0.00    -0.000 C 
ATOM     21  C   UNL     1       0.361  -5.807   3.262  0.00  0.00    +0.009 C 
ENDBRANCH  18  20
ENDBRANCH  14  18
ENDBRANCH   1  15
BRANCH  13  22
ATOM     22  N   UNL     1       3.711  -3.214  -0.049  0.00  0.00    -0.342 N 
ATOM     23  H   UNL     1       3.284  -4.086  -0.050  0.00  0.00    +0.144 HD
ATOM     24  H   UNL     1       4.678  -3.148  -0.058  0.00  0.00    +0.144 HD
ENDBRANCH  13  22
BRANCH  12  25
ATOM     25  N   UNL     1       4.803  -0.482  -0.045  0.00  0.00    -0.171 NA
ATOM     26  C   UNL     1       5.424  -0.326  -1.174  0.00  0.00    +0.141 C 
BRANCH  26  27
ATOM     27  C   UNL     1       6.858   0.015  -1.185  0.00  0.00    -0.005 A 
ATOM     28  C   UNL     1       7.551   0.177   0.017  0.00  0.00    +0.011 A 
ATOM     29  C   UNL     1       8.893   0.491  -0.001  0.00  0.00    +0.020 A 
ATOM     30  C   UNL     1       9.553   0.656  -1.207  0.00  0.00    +0.041 A 
ATOM     31  C   UNL     1       8.871   0.502  -2.403  0.00  0.00    +0.020 A 
ATOM     32  C   UNL     1       7.529   0.183  -2.399  0.00  0.00    +0.011 A 
ATOM     33 CL   UNL     1      11.242   1.058  -1.221  0.00  0.00    -0.084 Cl
ENDBRANCH  26  27
ENDBRANCH  12  25
TORSDOF 6
