REMARK  Name = ZINC03841380
REMARK  5 active torsions:
REMARK  status: ('A' for Active; 'I' for Inactive)
REMARK    1  A    between atoms: C_4  and  C_7
REMARK    2  A    between atoms: C_7  and  S_8
REMARK    3  A    between atoms: S_8  and  N_11
REMARK    4  A    between atoms: N_11  and  C_12
REMARK    5  A    between atoms: C_28  and  C_30
REMARK                            x       y       z     vdW  Elec       q    Type
REMARK                         _______ _______ _______ _____ _____    ______ ____
ROOT
ATOM      1  C   UNL     1      -2.780   2.473  -4.497  0.00  0.00    +0.112 A 
ATOM      2  C   UNL     1      -2.425   1.260  -3.973  0.00  0.00    +0.031 A 
ATOM      3  C   UNL     1      -3.033   0.832  -2.787  0.00  0.00    +0.024 A 
ATOM      4  C   UNL     1      -3.977   1.595  -2.177  0.00  0.00    +0.027 A 
ATOM      5  N   UNL     1      -4.394   2.755  -2.742  0.00  0.00    -0.310 N 
ATOM      6  C   UNL     1      -3.760   3.241  -3.838  0.00  0.00    +0.274 A 
ATOM      7  O   UNL     1      -4.040   4.352  -4.257  0.00  0.00    -0.266 OA
ATOM      8  C   UNL     1      -5.555   3.506  -2.263  0.00  0.00    +0.130 C 
ATOM      9  C   UNL     1      -5.924   3.152  -0.834  0.00  0.00    +0.027 C 
ATOM     10  C   UNL     1      -5.951   1.632  -0.664  0.00  0.00    +0.018 C 
ATOM     11  C   UNL     1      -4.530   1.098  -0.862  0.00  0.00    +0.054 C 
ATOM     12  C   UNL     1      -3.642   1.660   0.255  0.00  0.00    +0.117 C 
ATOM     13  N   UNL     1      -3.679   3.128   0.157  0.00  0.00    -0.297 N 
ATOM     14  C   UNL     1      -4.985   3.798   0.175  0.00  0.00    +0.113 C 
ATOM     15  C   UNL     1      -2.541   3.840   0.048  0.00  0.00    +0.247 C 
ATOM     16  O   UNL     1      -1.474   3.268  -0.065  0.00  0.00    -0.270 OA
ENDROOT
BRANCH  15  17
ATOM     17  C   UNL     1      -2.588   5.317   0.065  0.00  0.00    +0.037 A 
ATOM     18  C   UNL     1      -3.571   5.975   0.828  0.00  0.00    +0.013 A 
ATOM     19  C   UNL     1      -3.639   7.330   0.855  0.00  0.00    +0.009 A 
ATOM     20  C   UNL     1      -2.711   8.096   0.125  0.00  0.00    -0.018 A 
ATOM     21  C   UNL     1      -2.757   9.500   0.143  0.00  0.00    +0.008 A 
ATOM     22  C   UNL     1      -1.846  10.215  -0.573  0.00  0.00    +0.001 A 
ATOM     23  C   UNL     1      -0.864   9.575  -1.326  0.00  0.00    +0.001 A 
ATOM     24  C   UNL     1      -0.788   8.217  -1.369  0.00  0.00    +0.008 A 
ATOM     25  C   UNL     1      -1.712   7.445  -0.642  0.00  0.00    -0.017 A 
ATOM     26  C   UNL     1      -1.661   6.043  -0.663  0.00  0.00    +0.021 A 
ENDBRANCH  15  17
BRANCH   1  27
ATOM     27  N   UNL     1      -2.177   2.944  -5.670  0.00  0.00    -0.215 N 
ATOM     28  H   UNL     1      -2.434   3.805  -6.035  0.00  0.00    +0.173 HD
BRANCH  27  29
ATOM     29  S   UNL     1      -1.026   2.031  -6.434  0.00  0.00    +0.047 S 
ATOM     30  O   UNL     1      -0.626   2.812  -7.551  0.00  0.00    -0.155 OA
ATOM     31  O   UNL     1      -0.096   1.693  -5.415  0.00  0.00    -0.155 OA
BRANCH  29  32
ATOM     32  C   UNL     1      -1.905   0.546  -6.994  0.00  0.00    +0.223 C 
BRANCH  32  36
ATOM     33  C   UNL     1       0.820  -2.041  -9.025  0.00  0.00    +0.000 A 
ATOM     34  C   UNL     1       0.637  -2.165  -7.661  0.00  0.00    +0.000 A 
ATOM     35  C   UNL     1      -0.245  -1.328  -7.003  0.00  0.00    +0.005 A 
ATOM     36  C   UNL     1      -0.944  -0.367  -7.710  0.00  0.00    -0.025 A 
ATOM     37  C   UNL     1      -0.764  -0.247  -9.076  0.00  0.00    +0.005 A 
ATOM     38  C   UNL     1       0.121  -1.081  -9.732  0.00  0.00    +0.000 A 
ENDBRANCH  32  36
ENDBRANCH  29  32
ENDBRANCH  27  29
ENDBRANCH   1  27
TORSDOF 5
