REMARK  Name = ZINC20515705
REMARK  12 active torsions:
REMARK  status: ('A' for Active; 'I' for Inactive)
REMARK    1  A    between atoms: C_1  and  C_2
REMARK    2  A    between atoms: C_2  and  C_3
REMARK    3  A    between atoms: C_2  and  C_4
REMARK    4  A    between atoms: C_2  and  C_30
REMARK    5  A    between atoms: C_4  and  N_5
REMARK    6  A    between atoms: N_5  and  C_6
REMARK    7  A    between atoms: N_17  and  C_20
REMARK    8  A    between atoms: C_20  and  C_21
REMARK    9  A    between atoms: C_21  and  C_22
REMARK   10  A    between atoms: C_30  and  N_31
REMARK   11  A    between atoms: N_31  and  C_32
REMARK   12  A    between atoms: N_31  and  C_33
REMARK                            x       y       z     vdW  Elec       q    Type
REMARK                         _______ _______ _______ _____ _____    ______ ____
ROOT
ATOM      1  C   UNL     1       1.661  -0.745  -0.915  0.00  0.00    -0.067 C 
ATOM      2  C   UNL     1       1.072  -0.345   0.440  0.00  0.00    -0.011 C 
ATOM      3  C   UNL     1       1.151   1.172   0.614  0.00  0.00    +0.035 C 
ATOM      4  C   UNL     1       2.587   1.625   0.364  0.00  0.00    -0.023 A 
ATOM      5  C   UNL     1       3.453   0.827  -0.304  0.00  0.00    -0.006 A 
ATOM      6  S   UNL     1       4.975   1.739  -0.360  0.00  0.00    -0.073 S 
ATOM      7  C   UNL     1       4.450   3.181   0.510  0.00  0.00    +0.116 A 
ATOM      8  C   UNL     1       3.099   2.905   0.818  0.00  0.00    +0.076 A 
ATOM      9  C   UNL     1       2.377   3.913   1.542  0.00  0.00    +0.262 A 
ATOM     10  O   UNL     1       1.208   3.773   1.857  0.00  0.00    -0.267 OA
ATOM     11  N   UNL     1       3.078   5.028   1.854  0.00  0.00    -0.298 N 
ATOM     12  C   UNL     1       4.378   5.204   1.514  0.00  0.00    +0.203 A 
ATOM     13  N   UNL     1       5.072   4.305   0.851  0.00  0.00    -0.230 NA
ATOM     14  C   UNL     1       3.181  -0.531  -0.873  0.00  0.00    +0.027 C 
ENDROOT
BRANCH   1  15
ATOM     15  N   UNL     1       1.370  -2.160  -1.181  0.00  0.00    +0.381 N 
ATOM     16  H   UNL     1       0.384  -2.403  -0.758  0.00  0.00    -0.085 HD
ATOM     17  H   UNL     1       2.140  -2.776  -0.693  0.00  0.00    -0.085 HD
BRANCH  15  18
ATOM     18  C   UNL     1       1.365  -2.435  -2.624  0.00  0.00    -0.078 C 
BRANCH  18  20
ATOM     19  C   UNL     1       2.130  -4.772  -2.182  0.00  0.00    +0.007 C 
ATOM     20  C   UNL     1       1.059  -3.915  -2.861  0.00  0.00    -0.065 C 
ATOM     21  C   UNL     1      -0.312  -4.253  -2.273  0.00  0.00    +0.007 C 
BRANCH  20  22
ATOM     22  C   UNL     1       1.054  -4.201  -4.364  0.00  0.00    -0.075 C 
BRANCH  22  23
ATOM     23  N   UNL     1       0.888  -5.644  -4.587  0.00  0.00    +0.376 N 
ATOM     24  C   UNL     1      -0.533  -6.014  -4.598  0.00  0.00    -0.097 C 
ATOM     25  C   UNL     1       1.551  -6.064  -5.829  0.00  0.00    -0.097 C 
ATOM     26  H   UNL     1       1.369  -6.173  -3.751  0.00  0.00    -0.083 HD
ENDBRANCH  22  23
ENDBRANCH  20  22
ENDBRANCH  18  20
ENDBRANCH  15  18
ENDBRANCH   1  15
BRANCH  11  27
ATOM     27  C   UNL     1       2.400   6.096   2.593  0.00  0.00    +0.131 C 
BRANCH  27  28
ATOM     28  C   UNL     1       1.756   7.071   1.605  0.00  0.00    +0.057 C 
BRANCH  28  29
ATOM     29  C   UNL     1       1.058   8.169   2.365  0.00  0.00    -0.046 A 
ATOM     30  C   UNL     1      -0.269   8.025   2.723  0.00  0.00    +0.006 A 
ATOM     31  C   UNL     1      -0.909   9.030   3.424  0.00  0.00    +0.038 A 
ATOM     32  C   UNL     1      -0.223  10.185   3.760  0.00  0.00    +0.123 A 
ATOM     33  C   UNL     1       1.105  10.330   3.396  0.00  0.00    +0.038 A 
ATOM     34  C   UNL     1       1.745   9.322   2.699  0.00  0.00    +0.006 A 
ATOM     35  F   UNL     1      -0.848  11.169   4.441  0.00  0.00    -0.205 F 
ENDBRANCH  28  29
ENDBRANCH  27  28
ENDBRANCH  11  27
TORSDOF 8
