REMARK  Name = ZINC14474073
REMARK  8 active torsions:
REMARK  status: ('A' for Active; 'I' for Inactive)
REMARK    1  A    between atoms: C_1  and  C_2
REMARK    2  A    between atoms: C_2  and  O_3
REMARK    3  A    between atoms: O_3  and  C_4
REMARK    4  A    between atoms: C_7  and  N_10
REMARK    5  A    between atoms: N_10  and  S_11
REMARK    6  A    between atoms: S_11  and  C_14
REMARK    7  A    between atoms: C_27  and  C_30
REMARK    8  A    between atoms: C_35  and  O_36
REMARK                            x       y       z     vdW  Elec       q    Type
REMARK                         _______ _______ _______ _____ _____    ______ ____
ROOT
ATOM      1  C   UNL     1      -4.746   4.697   2.197  0.00  0.00    +0.109 A 
ATOM      2  C   UNL     1      -5.185   3.701   3.051  0.00  0.00    +0.030 A 
ATOM      3  C   UNL     1      -4.444   2.545   3.191  0.00  0.00    +0.025 A 
ATOM      4  C   UNL     1      -3.262   2.386   2.477  0.00  0.00    +0.031 A 
ATOM      5  C   UNL     1      -2.822   3.364   1.617  0.00  0.00    -0.018 A 
ATOM      6  C   UNL     1      -3.573   4.539   1.488  0.00  0.00    +0.034 A 
ATOM      7  C   UNL     1      -1.556   3.254   0.830  0.00  0.00    +0.049 C 
ATOM      8  C   UNL     1      -1.833   2.963  -0.626  0.00  0.00    -0.023 C 
ATOM      9  C   UNL     1      -0.926   2.147  -1.106  0.00  0.00    -0.030 C 
ATOM     10  C   UNL     1       0.085   1.788  -0.035  0.00  0.00    +0.033 C 
ATOM     11  C   UNL     1      -0.675   2.075   1.293  0.00  0.00    +0.029 C 
ATOM     12  C   UNL     1      -1.552   0.855   1.588  0.00  0.00    +0.108 C 
ATOM     13  N   UNL     1      -2.523   1.208   2.630  0.00  0.00    -0.336 N 
ATOM     14  H   UNL     1      -2.648   0.639   3.405  0.00  0.00    +0.147 HD
ENDROOT
BRANCH  12  15
ATOM     15  C   UNL     1      -2.281   0.443   0.335  0.00  0.00    +0.014 A 
ATOM     16  C   UNL     1      -3.512   0.995   0.037  0.00  0.00    +0.009 A 
ATOM     17  C   UNL     1      -4.180   0.618  -1.112  0.00  0.00    +0.001 A 
ATOM     18  C   UNL     1      -3.619  -0.312  -1.967  0.00  0.00    +0.004 A 
ATOM     19  C   UNL     1      -2.389  -0.869  -1.674  0.00  0.00    +0.046 A 
ATOM     20  C   UNL     1      -1.714  -0.487  -0.524  0.00  0.00    +0.122 A 
BRANCH  20  21
ATOM     21  O   UNL     1      -0.501  -1.028  -0.236  0.00  0.00    -0.506 OA
ATOM     22  H   UNL     1      -0.546  -1.837   0.292  0.00  0.00    +0.292 HD
ENDBRANCH  20  21
ENDBRANCH  12  15
BRANCH   1  23
ATOM     23  S   UNL     1      -5.689   6.175   2.015  0.00  0.00    +0.072 S 
ATOM     24  O   UNL     1      -5.417   6.672   0.712  0.00  0.00    -0.150 OA
ATOM     25  O   UNL     1      -7.006   5.873   2.456  0.00  0.00    -0.150 OA
BRANCH  23  26
ATOM     26  N   UNL     1      -5.075   7.282   3.083  0.00  0.00    -0.216 N 
ATOM     27  H   UNL     1      -5.625   7.610   3.811  0.00  0.00    +0.174 HD
BRANCH  26  31
ATOM     28  C   UNL     1      -1.166   8.660   2.638  0.00  0.00    +0.121 A 
ATOM     29  C   UNL     1      -2.161   9.109   1.782  0.00  0.00    +0.047 A 
ATOM     30  C   UNL     1      -3.456   8.653   1.929  0.00  0.00    +0.028 A 
ATOM     31  C   UNL     1      -3.763   7.745   2.933  0.00  0.00    +0.048 A 
ATOM     32  C   UNL     1      -2.767   7.300   3.793  0.00  0.00    +0.028 A 
ATOM     33  C   UNL     1      -1.471   7.753   3.642  0.00  0.00    +0.047 A 
BRANCH  28  34
ATOM     34  O   UNL     1       0.109   9.110   2.494  0.00  0.00    -0.492 OA
BRANCH  34  36
ATOM     35  C   UNL     1       2.447   9.221   3.094  0.00  0.00    +0.048 C 
ATOM     36  C   UNL     1       1.083   8.606   3.410  0.00  0.00    +0.225 C 
ENDBRANCH  34  36
ENDBRANCH  28  34
ENDBRANCH  26  31
ENDBRANCH  23  26
ENDBRANCH   1  23
TORSDOF 7
