REMARK  Name = ZINC19596507
REMARK  2 active torsions:
REMARK  status: ('A' for Active; 'I' for Inactive)
REMARK    1  A    between atoms: C_4  and  C_7
REMARK    2  A    between atoms: C_18  and  N_20
REMARK                            x       y       z     vdW  Elec       q    Type
REMARK                         _______ _______ _______ _____ _____    ______ ____
ROOT
ATOM      1  C   UNL     1       0.068   1.175   0.025  0.00  0.00    +0.046 C 
ATOM      2  C   UNL     1       1.443   1.788   0.088  0.00  0.00    -0.018 A 
ATOM      3  C   UNL     1       2.525   1.111  -0.440  0.00  0.00    +0.026 A 
ATOM      4  C   UNL     1       3.786   1.678  -0.394  0.00  0.00    +0.041 A 
ATOM      5  C   UNL     1       3.966   2.925   0.178  0.00  0.00    +0.022 A 
ATOM      6  C   UNL     1       2.889   3.604   0.711  0.00  0.00    +0.025 A 
ATOM      7  C   UNL     1       1.622   3.033   0.674  0.00  0.00    +0.037 A 
ATOM      8  N   UNL     1       0.537   3.705   1.245  0.00  0.00    -0.287 N 
ATOM      9  C   UNL     1      -0.620   3.063   1.483  0.00  0.00    +0.205 C 
ATOM     10  O   UNL     1      -1.582   3.687   1.879  0.00  0.00    -0.277 OA
ATOM     11  C   UNL     1      -0.733   1.578   1.264  0.00  0.00    +0.031 C 
ATOM     12 CL   UNL     1       5.145   0.824  -1.056  0.00  0.00    -0.084 Cl
ATOM     13  H   UNL     1       0.625   4.771   1.504  0.00  0.00    +0.155 HD
ENDROOT
BRANCH  11  14
ATOM     14  N   UNL     1      -0.206   0.869   2.438  0.00  0.00    +0.388 N 
ATOM     15  C   UNL     1      -0.429  -0.578   2.322  0.00  0.00    -0.078 C 
ATOM     16  C   UNL     1       0.258  -1.295   3.487  0.00  0.00    -0.019 C 
ATOM     17  C   UNL     1      -0.315  -0.776   4.809  0.00  0.00    -0.004 C 
ATOM     18  C   UNL     1      -0.114   0.740   4.882  0.00  0.00    -0.019 C 
ATOM     19  C   UNL     1      -0.790   1.399   3.677  0.00  0.00    -0.078 C 
ATOM     20  H   UNL     1       0.879   1.040   2.479  0.00  0.00    -0.081 HD
ENDBRANCH  11  14
BRANCH   1  24
ATOM     21  C   UNL     1      -1.947   2.555  -3.479  0.00  0.00    +0.000 A 
ATOM     22  C   UNL     1      -1.716   1.204  -3.302  0.00  0.00    +0.000 A 
ATOM     23  C   UNL     1      -1.064   0.757  -2.168  0.00  0.00    +0.004 A 
ATOM     24  C   UNL     1      -0.643   1.662  -1.211  0.00  0.00    -0.041 A 
ATOM     25  C   UNL     1      -0.878   3.013  -1.386  0.00  0.00    +0.004 A 
ATOM     26  C   UNL     1      -1.525   3.460  -2.523  0.00  0.00    +0.000 A 
ENDBRANCH   1  24
TORSDOF 2
