REMARK  Name = ZINC09010256
REMARK  8 active torsions:
REMARK  status: ('A' for Active; 'I' for Inactive)
REMARK    1  A    between atoms: C_1  and  C_2
REMARK    2  A    between atoms: C_2  and  N_3
REMARK    3  A    between atoms: N_3  and  C_4
REMARK    4  A    between atoms: N_3  and  C_6
REMARK    5  A    between atoms: C_4  and  C_5
REMARK    6  A    between atoms: C_9  and  C_12
REMARK    7  A    between atoms: N_18  and  N_19
REMARK    8  A    between atoms: C_20  and  C_22
REMARK                            x       y       z     vdW  Elec       q    Type
REMARK                         _______ _______ _______ _____ _____    ______ ____
ROOT
ATOM      1  C   UNL     1      -2.242  -1.431  -5.920  0.00  0.00    +0.028 C 
ATOM      2  C   UNL     1      -1.595  -1.776  -7.063  0.00  0.00    +0.078 C 
ATOM      3  C   UNL     1      -2.136  -1.967  -8.421  0.00  0.00    +0.256 C 
ATOM      4  O   UNL     1      -3.321  -1.819  -8.660  0.00  0.00    -0.269 OA
ATOM      5  N   UNL     1      -1.278  -2.307  -9.368  0.00  0.00    -0.259 N 
ATOM      6  C   UNL     1       0.066  -2.469  -9.072  0.00  0.00    +0.183 C 
ATOM      7  N   UNL     1       1.040  -2.798  -9.875  0.00  0.00    -0.157 NA
ATOM      8  S   UNL     1       0.140  -2.111  -7.324  0.00  0.00    -0.048 S 
ATOM      9  H   UNL     1      -1.592  -2.443 -10.276  0.00  0.00    +0.157 HD
ENDROOT
BRANCH   1  13
ATOM     10  C   UNL     1      -0.027  -0.548  -2.413  0.00  0.00    +0.030 A 
ATOM     11  C   UNL     1       0.606  -0.543  -3.653  0.00  0.00    +0.024 A 
ATOM     12  C   UNL     1      -0.109  -0.829  -4.794  0.00  0.00    +0.010 A 
ATOM     13  C   UNL     1      -1.475  -1.126  -4.706  0.00  0.00    -0.024 A 
ATOM     14  C   UNL     1      -2.107  -1.130  -3.456  0.00  0.00    +0.010 A 
ATOM     15  C   UNL     1      -1.383  -0.848  -2.320  0.00  0.00    +0.024 A 
BRANCH  10  16
ATOM     16  N   UNL     1       0.701  -0.258  -1.261  0.00  0.00    -0.330 N 
BRANCH  16  18
ATOM     17  C   UNL     1       2.945  -1.230  -1.240  0.00  0.00    +0.024 C 
ATOM     18  C   UNL     1       2.128   0.059  -1.357  0.00  0.00    +0.102 C 
ENDBRANCH  16  18
BRANCH  16  19
ATOM     19  C   UNL     1       0.039  -0.268   0.045  0.00  0.00    +0.102 C 
ATOM     20  C   UNL     1      -0.511   1.126   0.350  0.00  0.00    +0.024 C 
ENDBRANCH  16  19
ENDBRANCH  10  16
ENDBRANCH   1  13
BRANCH   7  21
ATOM     21  N   UNL     1       0.780  -3.035 -11.231  0.00  0.00    -0.201 N 
ATOM     22  C   UNL     1       1.786  -3.374 -12.060  0.00  0.00    +0.265 C 
ATOM     23  O   UNL     1       2.921  -3.475 -11.632  0.00  0.00    -0.268 OA
ATOM     24  H   UNL     1      -0.124  -2.955 -11.573  0.00  0.00    +0.178 HD
BRANCH  22  25
ATOM     25  C   UNL     1       1.513  -3.624 -13.490  0.00  0.00    +0.057 A 
ATOM     26  C   UNL     1       0.213  -3.504 -13.986  0.00  0.00    +0.016 A 
ATOM     27  C   UNL     1      -0.037  -3.739 -15.322  0.00  0.00    +0.021 A 
ATOM     28  C   UNL     1       0.999  -4.093 -16.172  0.00  0.00    +0.042 A 
ATOM     29  C   UNL     1       2.289  -4.215 -15.687  0.00  0.00    +0.040 A 
ATOM     30  C   UNL     1       2.554  -3.976 -14.353  0.00  0.00    +0.054 A 
ATOM     31 CL   UNL     1       4.174  -4.121 -13.748  0.00  0.00    -0.083 Cl
ATOM     32 CL   UNL     1       0.675  -4.387 -17.852  0.00  0.00    -0.083 Cl
ENDBRANCH  22  25
ENDBRANCH   7  21
TORSDOF 6
