REMARK  Name = ZINC13694779
REMARK  4 active torsions:
REMARK  status: ('A' for Active; 'I' for Inactive)
REMARK    1  A    between atoms: C_5  and  N_7
REMARK    2  A    between atoms: N_15  and  C_18
REMARK    3  A    between atoms: C_18  and  C_19
REMARK    4  A    between atoms: N_21  and  C_22
REMARK                            x       y       z     vdW  Elec       q    Type
REMARK                         _______ _______ _______ _____ _____    ______ ____
ROOT
ATOM      1  N   UNL     1       2.025   1.040  -0.410  0.00  0.00    -0.287 N 
ATOM      2  C   UNL     1       2.892   0.176   0.224  0.00  0.00    +0.112 A 
ATOM      3  C   UNL     1       2.405  -0.029   1.460  0.00  0.00    +0.103 A 
ATOM      4  N   UNL     1       1.273   0.683   1.593  0.00  0.00    -0.334 N 
ATOM      5  C   UNL     1       1.033   1.330   0.477  0.00  0.00    +0.181 A 
ATOM      6  N   UNL     1      -0.049   2.162   0.240  0.00  0.00    -0.300 N 
ATOM      7  C   UNL     1      -0.087   3.266   1.209  0.00  0.00    +0.123 C 
ATOM      8  C   UNL     1      -1.246   4.203   0.865  0.00  0.00    +0.104 C 
ATOM      9  N   UNL     1      -2.506   3.447   0.883  0.00  0.00    -0.291 NA
ATOM     10  C   UNL     1      -2.469   2.343  -0.086  0.00  0.00    +0.104 C 
ATOM     11  C   UNL     1      -1.309   1.405   0.258  0.00  0.00    +0.123 C 
ATOM     12  H   UNL     1       0.713   0.653   2.539  0.00  0.00    +0.168 HD
ENDROOT
BRANCH   1  17
ATOM     13  C   UNL     1       2.163   1.142  -4.087  0.00  0.00    +0.002 A 
ATOM     14  C   UNL     1       2.375   2.491  -4.306  0.00  0.00    +0.003 A 
ATOM     15  C   UNL     1       2.471   3.361  -3.236  0.00  0.00    +0.040 A 
ATOM     16  C   UNL     1       2.356   2.884  -1.942  0.00  0.00    +0.147 A 
ATOM     17  C   UNL     1       2.143   1.528  -1.721  0.00  0.00    +0.084 A 
ATOM     18  C   UNL     1       2.052   0.658  -2.798  0.00  0.00    +0.029 A 
ATOM     19  F   UNL     1       2.451   3.734  -0.897  0.00  0.00    -0.203 F 
ENDBRANCH   1  17
BRANCH   9  20
ATOM     20  C   UNL     1      -3.654   4.329   0.631  0.00  0.00    +0.180 C 
BRANCH  20  21
ATOM     21  C   UNL     1      -4.933   3.579   0.899  0.00  0.00    +0.231 C 
ATOM     22  O   UNL     1      -4.893   2.418   1.248  0.00  0.00    -0.274 OA
ATOM     23  N   UNL     1      -6.121   4.197   0.750  0.00  0.00    -0.284 N 
ATOM     24  H   UNL     1      -6.160   5.227   0.366  0.00  0.00    +0.155 HD
BRANCH  23  25
ATOM     25  C   UNL     1      -7.304   3.529   1.083  0.00  0.00    +0.033 A 
ATOM     26  C   UNL     1      -7.420   2.164   0.855  0.00  0.00    +0.024 A 
ATOM     27  C   UNL     1      -8.588   1.506   1.190  0.00  0.00    +0.017 A 
ATOM     28  C   UNL     1      -9.645   2.208   1.742  0.00  0.00    +0.018 A 
ATOM     29  C   UNL     1      -9.534   3.569   1.965  0.00  0.00    +0.017 A 
ATOM     30  C   UNL     1      -8.367   4.231   1.637  0.00  0.00    +0.024 A 
ATOM     31 BR   UNL     1     -11.244   1.304   2.193  0.00  0.00    -0.050 Br
ENDBRANCH  23  25
ENDBRANCH  20  21
ENDBRANCH   9  20
TORSDOF 4
