REMARK  Name = ZINC35829864
REMARK  7 active torsions:
REMARK  status: ('A' for Active; 'I' for Inactive)
REMARK    1  A    between atoms: C_1  and  C_2
REMARK    2  A    between atoms: C_2  and  C_3
REMARK    3  A    between atoms: C_2  and  N_4
REMARK    4  A    between atoms: N_4  and  C_5
REMARK    5  A    between atoms: C_5  and  C_6
REMARK    6  A    between atoms: C_16  and  C_18
REMARK    7  A    between atoms: N_27  and  C_28
REMARK                            x       y       z     vdW  Elec       q    Type
REMARK                         _______ _______ _______ _____ _____    ______ ____
ROOT
ATOM      1  C   UNL     1      -1.828  -1.460  -1.298  0.00  0.00    +0.205 C 
ENDROOT
BRANCH   1   2
ATOM      2  C   UNL     1      -1.564  -2.886  -0.887  0.00  0.00    +0.234 C 
ATOM      3  O   UNL     1      -1.149  -3.129   0.225  0.00  0.00    -0.274 OA
ATOM      4  N   UNL     1      -1.791  -3.890  -1.757  0.00  0.00    -0.286 N 
ATOM      5  C   UNL     1      -2.289  -3.619  -3.114  0.00  0.00    +0.130 C 
ATOM      6  C   UNL     1      -1.232  -4.048  -4.137  0.00  0.00    +0.140 C 
ATOM      7  N   UNL     1      -0.730  -5.380  -3.782  0.00  0.00    -0.347 N 
ATOM      8  C   UNL     1      -0.070  -6.249  -4.596  0.00  0.00    +0.086 A 
ATOM      9  C   UNL     1       0.225  -7.356  -3.883  0.00  0.00    +0.019 A 
ATOM     10  C   UNL     1      -0.275  -7.164  -2.578  0.00  0.00    +0.025 A 
ATOM     11  C   UNL     1      -0.855  -5.954  -2.546  0.00  0.00    +0.044 A 
ATOM     12  C   UNL     1      -1.541  -5.293  -1.378  0.00  0.00    +0.153 C 
BRANCH  12  13
ATOM     13  C   UNL     1      -2.847  -5.989  -1.093  0.00  0.00    -0.019 A 
ATOM     14  C   UNL     1      -3.113  -6.466   0.177  0.00  0.00    +0.006 A 
ATOM     15  C   UNL     1      -4.310  -7.105   0.440  0.00  0.00    +0.003 A 
ATOM     16  C   UNL     1      -5.242  -7.268  -0.567  0.00  0.00    +0.038 A 
ATOM     17  C   UNL     1      -4.977  -6.791  -1.839  0.00  0.00    +0.124 A 
ATOM     18  C   UNL     1      -3.780  -6.146  -2.100  0.00  0.00    +0.044 A 
ATOM     19  F   UNL     1      -5.888  -6.950  -2.825  0.00  0.00    -0.205 F 
ENDBRANCH  12  13
ENDBRANCH   1   2
BRANCH   1  20
ATOM     20  N   UNL     1      -1.505  -0.564  -0.185  0.00  0.00    -0.274 N 
ATOM     21  C   UNL     1      -2.454  -0.242   0.717  0.00  0.00    +0.303 C 
ATOM     22  O   UNL     1      -3.599  -0.616   0.555  0.00  0.00    -0.253 OA
ATOM     23  N   UNL     1      -2.132   0.495   1.799  0.00  0.00    -0.294 N 
ATOM     24  H   UNL     1      -1.236   0.856   1.892  0.00  0.00    +0.151 HD
BRANCH  23  25
ATOM     25  C   UNL     1      -3.136   0.752   2.835  0.00  0.00    +0.037 C 
ATOM     26  C   UNL     1      -4.324   1.495   2.221  0.00  0.00    +0.029 C 
ATOM     27  C   UNL     1      -5.372   1.764   3.303  0.00  0.00    -0.008 C 
ATOM     28  C   UNL     1      -4.753   2.618   4.412  0.00  0.00    +0.007 C 
ATOM     29  C   UNL     1      -3.565   1.874   5.026  0.00  0.00    -0.008 C 
ATOM     30  C   UNL     1      -2.517   1.606   3.944  0.00  0.00    +0.029 C 
ATOM     31  C   UNL     1      -4.044   0.545   5.613  0.00  0.00    +0.007 C 
ATOM     32  C   UNL     1      -4.662  -0.309   4.504  0.00  0.00    -0.008 C 
ATOM     33  C   UNL     1      -5.850   0.434   3.890  0.00  0.00    +0.007 C 
ATOM     34  C   UNL     1      -3.614  -0.577   3.422  0.00  0.00    +0.029 C 
ENDBRANCH  23  25
BRANCH  20  36
ATOM     35  C   UNL     1       0.862  -1.163  -0.045  0.00  0.00    +0.028 C 
ATOM     36  C   UNL     1      -0.152  -0.018  -0.052  0.00  0.00    +0.072 C 
ATOM     37  C   UNL     1       0.139   0.914  -1.230  0.00  0.00    +0.028 C 
ENDBRANCH  20  36
ENDBRANCH   1  20
TORSDOF 5
