REMARK  Name = ZINC02624230
REMARK  10 active torsions:
REMARK  status: ('A' for Active; 'I' for Inactive)
REMARK    1  A    between atoms: C_4  and  C_7
REMARK    2  A    between atoms: C_7  and  C_8
REMARK    3  A    between atoms: C_7  and  C_14
REMARK    4  A    between atoms: C_7  and  O_33
REMARK    5  A    between atoms: C_19  and  C_20
REMARK    6  A    between atoms: C_19  and  N_62
REMARK    7  A    between atoms: C_20  and  C_22
REMARK    8  A    between atoms: C_20  and  O_32
REMARK    9  A    between atoms: C_22  and  O_23
REMARK   10  A    between atoms: O_23  and  C_24
REMARK                            x       y       z     vdW  Elec       q    Type
REMARK                         _______ _______ _______ _____ _____    ______ ____
ROOT
ATOM      1  C   UNL     1       2.906  -1.923  -2.482  0.00  0.00    +0.026 C 
ATOM      2  C   UNL     1       1.539  -2.581  -2.273  0.00  0.00    -0.012 C 
ATOM      3  C   UNL     1       0.895  -2.016  -1.005  0.00  0.00    -0.078 C 
ATOM      4  C   UNL     1       2.046   0.097  -1.292  0.00  0.00    -0.078 C 
ATOM      5  C   UNL     1       2.724  -0.405  -2.569  0.00  0.00    -0.012 C 
ATOM      6  N   UNL     1       0.726  -0.556  -1.162  0.00  0.00    +0.381 N 
ATOM      7  H   UNL     1       0.179  -0.374  -2.012  0.00  0.00    -0.082 HD
ENDROOT
BRANCH   1   8
ATOM      8  C   UNL     1       3.529  -2.439  -3.780  0.00  0.00    +0.119 C 
BRANCH   8  12
ATOM      9  C   UNL     1       7.340  -0.600  -4.360  0.00  0.00    +0.000 A 
ATOM     10  C   UNL     1       6.584  -0.982  -5.452  0.00  0.00    +0.000 A 
ATOM     11  C   UNL     1       5.350  -1.577  -5.265  0.00  0.00    +0.007 A 
ATOM     12  C   UNL     1       4.874  -1.790  -3.985  0.00  0.00    -0.011 A 
ATOM     13  C   UNL     1       5.628  -1.404  -2.893  0.00  0.00    +0.007 A 
ATOM     14  C   UNL     1       6.864  -0.813  -3.080  0.00  0.00    +0.000 A 
ENDBRANCH   8  12
BRANCH   8  15
ATOM     15  C   UNL     1       3.700  -3.934  -3.695  0.00  0.00    -0.011 A 
ATOM     16  C   UNL     1       3.924  -4.535  -2.471  0.00  0.00    +0.007 A 
ATOM     17  C   UNL     1       4.077  -5.907  -2.392  0.00  0.00    +0.000 A 
ATOM     18  C   UNL     1       4.015  -6.676  -3.539  0.00  0.00    +0.000 A 
ATOM     19  C   UNL     1       3.795  -6.074  -4.764  0.00  0.00    +0.000 A 
ATOM     20  C   UNL     1       3.638  -4.703  -4.842  0.00  0.00    +0.007 A 
ENDBRANCH   8  15
BRANCH   8  21
ATOM     21  O   UNL     1       2.674  -2.119  -4.880  0.00  0.00    -0.379 OA
ATOM     22  H   UNL     1       1.789  -2.505  -4.815  0.00  0.00    +0.211 HD
ENDBRANCH   8  21
ENDBRANCH   1   8
BRANCH   6  23
ATOM     23  C   UNL     1       0.002  -0.004   0.002  0.00  0.00    -0.044 C 
BRANCH  23  24
ATOM     24  C   UNL     1      -1.437  -0.523  -0.021  0.00  0.00    +0.135 C 
BRANCH  24  25
ATOM     25  O   UNL     1      -2.063  -0.138  -1.247  0.00  0.00    -0.390 OA
ATOM     26  H   UNL     1      -2.102   0.819  -1.384  0.00  0.00    +0.210 HD
ENDBRANCH  24  25
BRANCH  24  27
ATOM     27  C   UNL     1      -2.212   0.071   1.156  0.00  0.00    +0.258 C 
BRANCH  27  28
ATOM     28  O   UNL     1      -3.521  -0.502   1.203  0.00  0.00    -0.487 OA
BRANCH  28  29
ATOM     29  C   UNL     1      -4.345  -0.079   2.198  0.00  0.00    +0.157 A 
ATOM     30  C   UNL     1      -4.361  -0.743   3.417  0.00  0.00    +0.084 A 
ATOM     31  C   UNL     1      -5.196  -0.307   4.429  0.00  0.00    +0.024 A 
ATOM     32  C   UNL     1      -6.023   0.782   4.224  0.00  0.00    +0.003 A 
ATOM     33  C   UNL     1      -6.013   1.442   3.009  0.00  0.00    +0.024 A 
ATOM     34  C   UNL     1      -5.176   1.014   1.995  0.00  0.00    +0.084 A 
ATOM     35 CL   UNL     1      -5.165   1.842   0.469  0.00  0.00    -0.080 Cl
ATOM     36 CL   UNL     1      -3.329  -2.115   3.673  0.00  0.00    -0.080 Cl
ENDBRANCH  28  29
ENDBRANCH  27  28
ENDBRANCH  24  27
ENDBRANCH  23  24
ENDBRANCH   6  23
TORSDOF 10
