REMARK  Name = ZINC02320895
REMARK  8 active torsions:
REMARK  status: ('A' for Active; 'I' for Inactive)
REMARK    1  A    between atoms: C_4  and  C_7
REMARK    2  A    between atoms: C_10  and  S_19
REMARK    3  A    between atoms: N_11  and  C_12
REMARK    4  A    between atoms: S_19  and  C_20
REMARK    5  A    between atoms: C_20  and  C_21
REMARK    6  A    between atoms: N_23  and  N_24
REMARK    7  A    between atoms: C_25  and  C_26
REMARK    8  A    between atoms: C_27  and  C_28
REMARK                            x       y       z     vdW  Elec       q    Type
REMARK                         _______ _______ _______ _____ _____    ______ ____
ROOT
ATOM      1  C   UNL     1       2.047   0.585  -0.014  0.00  0.00    +0.169 A 
ATOM      2  N   UNL     1       1.214  -0.430  -0.012  0.00  0.00    -0.128 NA
ATOM      3  N   UNL     1       0.002  -0.004   0.002  0.00  0.00    -0.122 NA
ATOM      4  C   UNL     1      -0.016   1.310   0.009  0.00  0.00    +0.197 A 
ATOM      5  N   UNL     1       1.285   1.733  -0.001  0.00  0.00    -0.270 N 
ENDROOT
BRANCH   5   6
ATOM      6  C   UNL     1       1.747   3.057   0.002  0.00  0.00    +0.051 A 
ATOM      7  C   UNL     1       2.450   3.550  -1.089  0.00  0.00    +0.027 A 
ATOM      8  C   UNL     1       2.898   4.856  -1.086  0.00  0.00    +0.017 A 
ATOM      9  C   UNL     1       2.659   5.669   0.007  0.00  0.00    +0.018 A 
ATOM     10  C   UNL     1       1.963   5.178   1.098  0.00  0.00    +0.017 A 
ATOM     11  C   UNL     1       1.507   3.874   1.098  0.00  0.00    +0.027 A 
ATOM     12 BR   UNL     1       3.282   7.455   0.011  0.00  0.00    -0.050 Br
ENDBRANCH   5   6
BRANCH   1  16
ATOM     13  C   UNL     1       6.289   0.370  -0.056  0.00  0.00    +0.000 A 
ATOM     14  C   UNL     1       5.540  -0.751  -0.365  0.00  0.00    +0.001 A 
ATOM     15  C   UNL     1       4.161  -0.688  -0.353  0.00  0.00    +0.011 A 
ATOM     16  C   UNL     1       3.523   0.510  -0.029  0.00  0.00    +0.020 A 
ATOM     17  C   UNL     1       4.285   1.639   0.276  0.00  0.00    +0.011 A 
ATOM     18  C   UNL     1       5.663   1.561   0.267  0.00  0.00    +0.001 A 
ENDBRANCH   1  16
BRANCH   4  19
ATOM     19  S   UNL     1      -1.448   2.336   0.022  0.00  0.00    -0.076 S 
BRANCH  19  20
ATOM     20  C   UNL     1      -2.742   1.071   0.022  0.00  0.00    +0.174 C 
BRANCH  20  21
ATOM     21  C   UNL     1      -4.094   1.735   0.033  0.00  0.00    +0.242 C 
ATOM     22  O   UNL     1      -4.176   2.945   0.039  0.00  0.00    -0.273 OA
ATOM     23  N   UNL     1      -5.214   0.984   0.035  0.00  0.00    -0.206 N 
ATOM     24  H   UNL     1      -5.149   0.016   0.029  0.00  0.00    +0.177 HD
BRANCH  23  25
ATOM     25  N   UNL     1      -6.471   1.601   0.044  0.00  0.00    -0.188 NA
ATOM     26  C   UNL     1      -7.554   0.875   0.046  0.00  0.00    +0.130 C 
BRANCH  26  27
ATOM     27  C   UNL     1      -8.824   1.499   0.056  0.00  0.00    +0.025 C 
ATOM     28  C   UNL     1      -9.949   0.744   0.058  0.00  0.00    +0.048 C 
BRANCH  28  29
ATOM     29  C   UNL     1     -11.261   1.389   0.068  0.00  0.00    +0.128 A 
ATOM     30  C   UNL     1     -12.470   0.750   0.066  0.00  0.00    +0.049 A 
ATOM     31  C   UNL     1     -13.456   1.752   0.082  0.00  0.00    +0.042 A 
ATOM     32  C   UNL     1     -12.816   2.939   0.084  0.00  0.00    +0.195 A 
ATOM     33  O   UNL     1     -11.492   2.717   0.076  0.00  0.00    -0.464 OA
ENDBRANCH  28  29
ENDBRANCH  26  27
ENDBRANCH  23  25
ENDBRANCH  20  21
ENDBRANCH  19  20
ENDBRANCH   4  19
TORSDOF 8
