REMARK  Name = ZINC15358719
REMARK  8 active torsions:
REMARK  status: ('A' for Active; 'I' for Inactive)
REMARK    1  A    between atoms: C_3  and  C_6
REMARK    2  A    between atoms: C_6  and  C_8
REMARK    3  A    between atoms: C_6  and  N_15
REMARK    4  A    between atoms: N_15  and  C_16
REMARK    5  A    between atoms: C_16  and  C_17
REMARK    6  A    between atoms: N_19  and  C_20
REMARK    7  A    between atoms: C_23  and  C_26
REMARK    8  A    between atoms: C_26  and  C_27
REMARK                            x       y       z     vdW  Elec       q    Type
REMARK                         _______ _______ _______ _____ _____    ______ ____
ROOT
ATOM      1  N   UNL     1       4.569   1.016  -0.927  0.00  0.00    -0.297 NA
ATOM      2  H   UNL     1       5.533   1.002  -0.629  0.00  0.00    +0.123 HD
ENDROOT
BRANCH   1   3
ATOM      3  C   UNL     1       3.752   1.839  -0.026  0.00  0.00    +0.122 C 
BRANCH   3   4
ATOM      4  C   UNL     1       4.322   1.775   1.368  0.00  0.00    -0.025 A 
ATOM      5  C   UNL     1       4.807   0.579   1.861  0.00  0.00    +0.008 A 
ATOM      6  C   UNL     1       5.330   0.520   3.139  0.00  0.00    +0.038 A 
ATOM      7  C   UNL     1       5.368   1.659   3.925  0.00  0.00    +0.123 A 
ATOM      8  C   UNL     1       4.881   2.857   3.429  0.00  0.00    +0.038 A 
ATOM      9  C   UNL     1       4.363   2.915   2.149  0.00  0.00    +0.008 A 
ATOM     10  F   UNL     1       5.879   1.602   5.174  0.00  0.00    -0.205 F 
ENDBRANCH   3   4
BRANCH   3  13
ATOM     11  C   UNL     1      -0.022   1.317   0.007  0.00  0.00    +0.008 A 
ATOM     12  C   UNL     1       1.173   2.013  -0.001  0.00  0.00    +0.013 A 
ATOM     13  C   UNL     1       2.337   1.319  -0.015  0.00  0.00    +0.011 A 
ATOM     14  S   UNL     1       1.761  -0.371  -0.017  0.00  0.00    -0.100 S 
ATOM     15  C   UNL     1       0.007  -0.038   0.001  0.00  0.00    +0.045 A 
ENDBRANCH   3  13
ENDBRANCH   1   3
BRANCH   1  16
ATOM     16  C   UNL     1       4.454   1.481  -2.316  0.00  0.00    +0.178 C 
BRANCH  16  17
ATOM     17  C   UNL     1       5.304   0.615  -3.208  0.00  0.00    +0.231 C 
ATOM     18  O   UNL     1       5.943  -0.301  -2.735  0.00  0.00    -0.274 OA
ATOM     19  N   UNL     1       5.354   0.857  -4.533  0.00  0.00    -0.284 N 
ATOM     20  H   UNL     1       4.792   1.545  -4.922  0.00  0.00    +0.155 HD
BRANCH  19  21
ATOM     21  C   UNL     1       6.216   0.115  -5.348  0.00  0.00    +0.033 A 
ATOM     22  C   UNL     1       6.841   0.719  -6.431  0.00  0.00    +0.023 A 
ATOM     23  C   UNL     1       7.692  -0.016  -7.234  0.00  0.00    +0.006 A 
ATOM     24  C   UNL     1       7.922  -1.351  -6.959  0.00  0.00    -0.034 A 
ATOM     25  C   UNL     1       7.301  -1.956  -5.881  0.00  0.00    +0.006 A 
ATOM     26  C   UNL     1       6.454  -1.225  -5.072  0.00  0.00    +0.023 A 
BRANCH  24  27
ATOM     27  C   UNL     1       8.851  -2.150  -7.837  0.00  0.00    +0.153 C 
BRANCH  27  28
ATOM     28  C   UNL     1      10.223  -2.059  -7.310  0.00  0.00    +0.067 C 
ATOM     29  N   UNL     1      11.281  -1.989  -6.904  0.00  0.00    -0.196 NA
ENDBRANCH  27  28
ENDBRANCH  24  27
ENDBRANCH  19  21
ENDBRANCH  16  17
ENDBRANCH   1  16
TORSDOF 8
