REMARK  Name = ZINC40322126
REMARK  10 active torsions:
REMARK  status: ('A' for Active; 'I' for Inactive)
REMARK    1  A    between atoms: C_1  and  C_2
REMARK    2  A    between atoms: C_2  and  C_3
REMARK    3  A    between atoms: C_2  and  C_4
REMARK    4  A    between atoms: C_7  and  C_10
REMARK    5  A    between atoms: C_10  and  C_12
REMARK    6  A    between atoms: C_10  and  N_31
REMARK    7  A    between atoms: C_12  and  N_13
REMARK    8  A    between atoms: C_14  and  C_16
REMARK    9  A    between atoms: C_19  and  S_21
REMARK   10  A    between atoms: S_21  and  C_24
REMARK                            x       y       z     vdW  Elec       q    Type
REMARK                         _______ _______ _______ _____ _____    ______ ____
ROOT
ATOM      1  N   UNL     1      -6.293   0.238  -0.340  0.00  0.00    -0.310 N 
ATOM      2  C   UNL     1      -6.979   1.192  -1.001  0.00  0.00    +0.279 C 
ATOM      3  O   UNL     1      -7.448   0.955  -2.098  0.00  0.00    -0.267 OA
ATOM      4  H   UNL     1      -5.919   0.428   0.534  0.00  0.00    +0.149 HD
ENDROOT
BRANCH   2   5
ATOM      5  C   UNL     1      -7.159   2.517  -0.397  0.00  0.00    +0.192 A 
ATOM      6  C   UNL     1      -7.833   3.566  -0.953  0.00  0.00    +0.056 A 
ATOM      7  C   UNL     1      -7.755   4.626  -0.036  0.00  0.00    +0.070 A 
ATOM      8  C   UNL     1      -7.046   4.183   1.026  0.00  0.00    +0.246 A 
ATOM      9  O   UNL     1      -6.693   2.909   0.806  0.00  0.00    -0.433 OA
BRANCH   8  10
ATOM     10  S   UNL     1      -6.655   5.122   2.464  0.00  0.00    +0.058 S 
ATOM     11  O   UNL     1      -5.494   4.532   3.031  0.00  0.00    -0.161 OA
ATOM     12  O   UNL     1      -6.706   6.490   2.081  0.00  0.00    -0.161 OA
BRANCH  10  13
ATOM     13  C   UNL     1      -7.962   4.874   3.619  0.00  0.00    +0.097 A 
ATOM     14  C   UNL     1      -9.060   5.715   3.612  0.00  0.00    +0.029 A 
ATOM     15  C   UNL     1     -10.086   5.521   4.518  0.00  0.00    +0.022 A 
ATOM     16  C   UNL     1     -10.013   4.485   5.433  0.00  0.00    +0.041 A 
ATOM     17  C   UNL     1      -8.915   3.644   5.439  0.00  0.00    +0.022 A 
ATOM     18  C   UNL     1      -7.892   3.836   4.529  0.00  0.00    +0.029 A 
ATOM     19 CL   UNL     1     -11.301   4.241   6.571  0.00  0.00    -0.084 Cl
ENDBRANCH  10  13
ENDBRANCH   8  10
ENDBRANCH   2   5
BRANCH   1  20
ATOM     20  C   UNL     1      -6.113  -1.085  -0.943  0.00  0.00    +0.094 C 
BRANCH  20  21
ATOM     21  C   UNL     1      -5.197  -1.929  -0.055  0.00  0.00    -0.020 C 
BRANCH  21  25
ATOM     22  C   UNL     1      -1.289  -0.205   0.009  0.00  0.00    -0.045 A 
ATOM     23  C   UNL     1      -2.160   0.018   1.059  0.00  0.00    +0.004 A 
ATOM     24  C   UNL     1      -3.425  -0.540   1.038  0.00  0.00    +0.002 A 
ATOM     25  C   UNL     1      -3.818  -1.320  -0.033  0.00  0.00    -0.059 A 
ATOM     26  C   UNL     1      -2.947  -1.542  -1.083  0.00  0.00    +0.002 A 
ATOM     27  C   UNL     1      -1.684  -0.981  -1.064  0.00  0.00    +0.004 A 
BRANCH  22  29
ATOM     28  C   UNL     1      -0.026   1.927   0.106  0.00  0.00    +0.012 C 
ATOM     29  C   UNL     1       0.090   0.404   0.032  0.00  0.00    +0.013 C 
ATOM     30  C   UNL     1       0.853  -0.110   1.254  0.00  0.00    +0.012 C 
ENDBRANCH  22  29
ENDBRANCH  21  25
BRANCH  21  31
ATOM     31  N   UNL     1      -5.120  -3.295  -0.590  0.00  0.00    +0.385 N 
ATOM     32  C   UNL     1      -4.244  -4.133   0.269  0.00  0.00    -0.078 C 
ATOM     33  C   UNL     1      -4.702  -5.576  -0.059  0.00  0.00    -0.020 C 
ATOM     34  C   UNL     1      -6.231  -5.423  -0.229  0.00  0.00    -0.020 C 
ATOM     35  C   UNL     1      -6.453  -3.934  -0.551  0.00  0.00    -0.078 C 
ATOM     36  H   UNL     1      -4.769  -3.280  -1.536  0.00  0.00    -0.081 HD
ENDBRANCH  21  31
ENDBRANCH  20  21
ENDBRANCH   1  20
TORSDOF 8
