REMARK  Name = ZINC35965714
REMARK  11 active torsions:
REMARK  status: ('A' for Active; 'I' for Inactive)
REMARK    1  A    between atoms: C_1  and  C_2
REMARK    2  A    between atoms: C_2  and  N_3
REMARK    3  A    between atoms: C_6  and  C_11
REMARK    4  A    between atoms: C_14  and  C_17
REMARK    5  A    between atoms: N_20  and  C_22
REMARK    6  A    between atoms: C_22  and  C_24
REMARK    7  A    between atoms: C_22  and  C_30
REMARK    8  A    between atoms: N_32  and  C_33
REMARK    9  A    between atoms: C_33  and  C_34
REMARK   10  A    between atoms: C_34  and  C_35
REMARK   11  A    between atoms: C_34  and  C_36
REMARK                            x       y       z     vdW  Elec       q    Type
REMARK                         _______ _______ _______ _____ _____    ______ ____
ROOT
ATOM      1  N   UNL     1      -3.208  -1.131  -0.146  0.00  0.00    -0.257 N 
ATOM      2  C   UNL     1      -3.213  -1.345   1.203  0.00  0.00    +0.042 C 
ATOM      3  C   UNL     1      -3.818  -2.425   1.737  0.00  0.00    +0.058 C 
ATOM      4  C   UNL     1      -4.494  -3.395   0.789  0.00  0.00    +0.142 C 
ATOM      5  N   UNL     1      -4.433  -3.075  -0.647  0.00  0.00    -0.288 N 
ATOM      6  C   UNL     1      -3.793  -1.951  -1.028  0.00  0.00    +0.307 C 
ATOM      7  O   UNL     1      -3.741  -1.676  -2.211  0.00  0.00    -0.252 OA
ATOM      8  C   UNL     1      -3.683  -2.419   3.140  0.00  0.00    +0.247 C 
ATOM      9  O   UNL     1      -4.134  -3.276   3.879  0.00  0.00    -0.270 OA
ATOM     10  N   UNL     1      -2.992  -1.343   3.557  0.00  0.00    -0.277 N 
ATOM     11  C   UNL     1      -2.632  -0.566   2.362  0.00  0.00    +0.160 C 
ATOM     12  H   UNL     1      -4.847  -3.657  -1.304  0.00  0.00    +0.151 HD
ENDROOT
BRANCH   4  13
ATOM     13  C   UNL     1      -3.869  -4.752   0.988  0.00  0.00    -0.023 A 
ATOM     14  C   UNL     1      -2.651  -5.044   0.404  0.00  0.00    +0.006 A 
ATOM     15  C   UNL     1      -2.078  -6.289   0.587  0.00  0.00    +0.004 A 
ATOM     16  C   UNL     1      -2.723  -7.240   1.355  0.00  0.00    -0.050 A 
ATOM     17  C   UNL     1      -3.940  -6.947   1.940  0.00  0.00    +0.004 A 
ATOM     18  C   UNL     1      -4.511  -5.701   1.761  0.00  0.00    +0.006 A 
ATOM     19  C   UNL     1      -2.098  -8.598   1.554  0.00  0.00    +0.044 C 
ENDBRANCH   4  13
BRANCH   1  21
ATOM     20  C   UNL     1      -3.524   1.228  -0.712  0.00  0.00    +0.025 C 
ATOM     21  C   UNL     1      -2.531   0.065  -0.655  0.00  0.00    +0.111 C 
ENDBRANCH   1  21
BRANCH  10  22
ATOM     22  C   UNL     1      -2.660  -1.007   4.944  0.00  0.00    +0.193 C 
BRANCH  22  23
ATOM     23  C   UNL     1      -3.590   0.071   5.437  0.00  0.00    -0.018 A 
ATOM     24  C   UNL     1      -3.683   1.269   4.754  0.00  0.00    +0.006 A 
ATOM     25  C   UNL     1      -4.537   2.258   5.206  0.00  0.00    +0.000 A 
ATOM     26  C   UNL     1      -5.298   2.049   6.341  0.00  0.00    +0.000 A 
ATOM     27  C   UNL     1      -5.206   0.850   7.023  0.00  0.00    +0.000 A 
ATOM     28  C   UNL     1      -4.355  -0.140   6.569  0.00  0.00    +0.006 A 
ENDBRANCH  22  23
BRANCH  22  29
ATOM     29  C   UNL     1      -1.238  -0.513   5.015  0.00  0.00    +0.238 C 
ATOM     30  O   UNL     1      -0.567  -0.449   4.006  0.00  0.00    -0.273 OA
ATOM     31  N   UNL     1      -0.710  -0.144   6.199  0.00  0.00    -0.313 N 
ATOM     32  H   UNL     1      -1.246  -0.196   7.006  0.00  0.00    +0.149 HD
BRANCH  31  33
ATOM     33  C   UNL     1       0.672   0.335   6.268  0.00  0.00    +0.107 C 
BRANCH  33  34
ATOM     34  C   UNL     1       1.019   0.686   7.716  0.00  0.00    -0.000 C 
ATOM     35  C   UNL     1       0.989  -0.584   8.569  0.00  0.00    +0.009 C 
ATOM     36  C   UNL     1       2.418   1.303   7.770  0.00  0.00    +0.009 C 
ENDBRANCH  33  34
ENDBRANCH  31  33
ENDBRANCH  22  29
ENDBRANCH  10  22
TORSDOF 7
