REMARK  Name = ZINC51491169
REMARK  6 active torsions:
REMARK  status: ('A' for Active; 'I' for Inactive)
REMARK    1  A    between atoms: C_1  and  C_2
REMARK    2  A    between atoms: C_8  and  C_14
REMARK    3  A    between atoms: C_14  and  N_15
REMARK    4  A    between atoms: N_15  and  C_16
REMARK    5  A    between atoms: C_16  and  C_17
REMARK    6  A    between atoms: C_16  and  C_18
REMARK                            x       y       z     vdW  Elec       q    Type
REMARK                         _______ _______ _______ _____ _____    ______ ____
ROOT
ATOM      1  C   UNL     1       2.771   0.191   0.809  0.00  0.00    +0.086 C 
ATOM      2  C   UNL     1       1.562  -0.601   0.385  0.00  0.00    +0.112 A 
ATOM      3  N   UNL     1       1.396  -1.177  -0.775  0.00  0.00    -0.241 NA
ATOM      4  C   UNL     1       0.204  -1.792  -0.800  0.00  0.00    +0.131 A 
ATOM      5  C   UNL     1      -0.397  -1.593   0.388  0.00  0.00    +0.114 A 
ATOM      6  N   UNL     1       0.463  -0.841   1.148  0.00  0.00    -0.288 N 
ATOM      7  C   UNL     1       0.248  -0.402   2.458  0.00  0.00    +0.140 A 
ATOM      8  C   UNL     1      -0.047  -1.325   3.453  0.00  0.00    -0.020 A 
ATOM      9  C   UNL     1      -0.257  -0.878   4.746  0.00  0.00    +0.022 A 
ATOM     10  C   UNL     1      -0.164   0.484   4.999  0.00  0.00    +0.036 A 
ATOM     11  C   UNL     1       0.134   1.345   3.960  0.00  0.00    +0.128 A 
ATOM     12  N   UNL     1       0.334   0.888   2.739  0.00  0.00    -0.236 NA
ATOM     13 BR   UNL     1      -0.442   1.153   6.746  0.00  0.00    -0.049 Br
ENDROOT
BRANCH   8  14
ATOM     14  C   UNL     1      -0.138  -2.794   3.129  0.00  0.00    -0.043 C 
BRANCH  14  15
ATOM     15  N   UNL     1       1.213  -3.336   2.927  0.00  0.00    +0.383 N 
ATOM     16  H   UNL     1       1.659  -2.850   2.164  0.00  0.00    -0.085 HD
ATOM     17  H   UNL     1       1.755  -3.210   3.769  0.00  0.00    -0.085 HD
BRANCH  15  18
ATOM     18  C   UNL     1       1.124  -4.768   2.611  0.00  0.00    -0.078 C 
ATOM     19  C   UNL     1       2.518  -5.303   2.279  0.00  0.00    -0.014 C 
ATOM     20  C   UNL     1       0.562  -5.522   3.818  0.00  0.00    -0.014 C 
ENDBRANCH  15  18
ENDBRANCH  14  15
ENDBRANCH   8  14
TORSDOF 3
