REMARK  Name = ZINC08788813
REMARK  6 active torsions:
REMARK  status: ('A' for Active; 'I' for Inactive)
REMARK    1  A    between atoms: C_1  and  C_2
REMARK    2  A    between atoms: C_13  and  C_30
REMARK    3  A    between atoms: N_20  and  C_23
REMARK    4  A    between atoms: C_23  and  C_24
REMARK    5  A    between atoms: C_33  and  O_36
REMARK    6  A    between atoms: O_36  and  C_37
REMARK                            x       y       z     vdW  Elec       q    Type
REMARK                         _______ _______ _______ _____ _____    ______ ____
ROOT
ATOM      1  C   UNL     1       6.504   0.358   1.347  0.00  0.00    +0.048 C 
ATOM      2  C   UNL     1       5.995   0.750  -0.042  0.00  0.00    +0.151 C 
ATOM      3  C   UNL     1       4.485   0.727  -0.033  0.00  0.00    +0.054 A 
ATOM      4  C   UNL     1       3.729   1.847  -0.024  0.00  0.00    -0.008 A 
ATOM      5  C   UNL     1       2.344   1.422  -0.012  0.00  0.00    +0.004 A 
ATOM      6  C   UNL     1       1.136   2.127   0.003  0.00  0.00    +0.010 A 
ATOM      7  C   UNL     1      -0.017   1.381   0.010  0.00  0.00    +0.001 A 
ATOM      8  C   UNL     1       0.002  -0.004   0.002  0.00  0.00    +0.002 A 
ATOM      9  C   UNL     1       1.183  -0.727  -0.012  0.00  0.00    +0.026 A 
ATOM     10  C   UNL     1       2.369   0.004  -0.018  0.00  0.00    +0.047 A 
ATOM     11  N   UNL     1       3.680  -0.380  -0.030  0.00  0.00    -0.356 N 
ATOM     12  H   UNL     1       3.993  -1.298  -0.036  0.00  0.00    +0.166 HD
ATOM     13  C   UNL     1       4.277   3.251  -0.031  0.00  0.00    +0.069 C 
ATOM     14  C   UNL     1       5.749   3.218   0.396  0.00  0.00    +0.122 C 
ATOM     15  N   UNL     1       6.427   2.120  -0.318  0.00  0.00    -0.280 N 
ATOM     16  C   UNL     1       7.391   2.409  -1.196  0.00  0.00    +0.234 C 
ATOM     17  O   UNL     1       7.778   3.557  -1.256  0.00  0.00    -0.274 OA
ATOM     18  C   UNL     1       8.024   1.410  -2.110  0.00  0.00    +0.204 C 
ATOM     19  N   UNL     1       7.439   0.088  -1.965  0.00  0.00    -0.286 N 
ATOM     20  C   UNL     1       6.527  -0.221  -1.043  0.00  0.00    +0.246 C 
ATOM     21  O   UNL     1       6.105  -1.357  -1.016  0.00  0.00    -0.273 OA
ENDROOT
BRANCH  13  22
ATOM     22  C   UNL     1       3.492   4.103   0.934  0.00  0.00    -0.038 A 
ATOM     23  C   UNL     1       3.446   3.765   2.273  0.00  0.00    +0.008 A 
ATOM     24  C   UNL     1       2.733   4.547   3.161  0.00  0.00    +0.046 A 
ATOM     25  C   UNL     1       2.053   5.667   2.704  0.00  0.00    +0.120 A 
ATOM     26  C   UNL     1       2.096   6.001   1.358  0.00  0.00    +0.046 A 
ATOM     27  C   UNL     1       2.816   5.219   0.476  0.00  0.00    +0.008 A 
BRANCH  25  28
ATOM     28  O   UNL     1       1.346   6.435   3.574  0.00  0.00    -0.495 OA
ATOM     29  C   UNL     1       1.346   6.031   4.945  0.00  0.00    +0.277 C 
ENDBRANCH  25  28
ENDBRANCH  13  22
BRANCH  19  30
ATOM     30  C   UNL     1       7.877  -0.966  -2.884  0.00  0.00    +0.143 C 
BRANCH  30  31
ATOM     31  C   UNL     1       6.991  -0.969  -4.103  0.00  0.00    -0.030 A 
ATOM     32  C   UNL     1       5.851  -1.750  -4.128  0.00  0.00    +0.005 A 
ATOM     33  C   UNL     1       5.036  -1.749  -5.244  0.00  0.00    +0.000 A 
ATOM     34  C   UNL     1       5.367  -0.975  -6.341  0.00  0.00    +0.000 A 
ATOM     35  C   UNL     1       6.511  -0.198  -6.319  0.00  0.00    +0.000 A 
ATOM     36  C   UNL     1       7.323  -0.196  -5.200  0.00  0.00    +0.005 A 
ENDBRANCH  30  31
ENDBRANCH  19  30
TORSDOF 4
