REMARK  Name = ZINC09292803
REMARK  10 active torsions:
REMARK  status: ('A' for Active; 'I' for Inactive)
REMARK    1  A    between atoms: C_1  and  C_2
REMARK    2  A    between atoms: C_5  and  O_8
REMARK    3  A    between atoms: O_8  and  C_9
REMARK    4  A    between atoms: C_9  and  C_10
REMARK    5  A    between atoms: C_10  and  C_12
REMARK    6  A    between atoms: C_10  and  O_38
REMARK    7  A    between atoms: C_12  and  N_13
REMARK    8  A    between atoms: N_18  and  N_19
REMARK    9  A    between atoms: N_30  and  C_37
REMARK   10  A    between atoms: N_33  and  C_36
REMARK                            x       y       z     vdW  Elec       q    Type
REMARK                         _______ _______ _______ _____ _____    ______ ____
ROOT
ATOM      1  N   UNL     1       1.406   1.632   2.440  0.00  0.00    -0.302 N 
ATOM      2  C   UNL     1       0.414   1.004   3.175  0.00  0.00    +0.153 A 
ATOM      3  C   UNL     1       0.098   1.863   4.222  0.00  0.00    +0.170 A 
ATOM      4  N   UNL     1       0.870   2.943   4.103  0.00  0.00    -0.195 NA
ATOM      5  C   UNL     1       1.656   2.819   3.053  0.00  0.00    +0.218 A 
ATOM      6  N   UNL     1       2.586   3.751   2.638  0.00  0.00    -0.206 N 
ATOM      7  N   UNL     1      -0.880   1.481   5.127  0.00  0.00    -0.280 N 
ATOM      8  C   UNL     1      -1.504   0.297   4.986  0.00  0.00    +0.333 A 
ATOM      9  O   UNL     1      -2.359  -0.022   5.790  0.00  0.00    -0.246 OA
ATOM     10  N   UNL     1      -1.207  -0.542   3.979  0.00  0.00    -0.262 N 
ATOM     11  C   UNL     1      -0.265  -0.225   3.066  0.00  0.00    +0.282 A 
ATOM     12  O   UNL     1      -0.005  -0.994   2.157  0.00  0.00    -0.265 OA
ATOM     13  C   UNL     1      -1.916  -1.819   3.870  0.00  0.00    +0.157 C 
ATOM     14  C   UNL     1      -1.233   2.367   6.239  0.00  0.00    +0.155 C 
ATOM     15  H   UNL     1       3.124   3.581   1.849  0.00  0.00    +0.177 HD
ENDROOT
BRANCH   6  16
ATOM     16  N   UNL     1       2.739   4.848   3.299  0.00  0.00    -0.174 NA
ATOM     17  C   UNL     1       3.623   5.734   2.905  0.00  0.00    +0.153 C 
ATOM     18  C   UNL     1       3.935   7.039   3.533  0.00  0.00    +0.028 A 
ATOM     19  C   UNL     1       3.438   7.701   4.650  0.00  0.00    +0.012 A 
ATOM     20  C   UNL     1       3.942   8.940   4.992  0.00  0.00    +0.001 A 
ATOM     21  C   UNL     1       4.939   9.519   4.225  0.00  0.00    +0.002 A 
ATOM     22  C   UNL     1       5.438   8.870   3.115  0.00  0.00    +0.024 A 
ATOM     23  C   UNL     1       4.943   7.622   2.754  0.00  0.00    +0.043 A 
ATOM     24  N   UNL     1       5.263   6.768   1.704  0.00  0.00    -0.280 N 
ATOM     25  C   UNL     1       4.527   5.644   1.744  0.00  0.00    +0.269 C 
ATOM     26  O   UNL     1       4.594   4.717   0.958  0.00  0.00    -0.268 OA
ATOM     27  H   UNL     1       5.936   6.958   1.032  0.00  0.00    +0.155 HD
ENDBRANCH   6  16
BRANCH   1  28
ATOM     28  C   UNL     1       2.064   1.114   1.238  0.00  0.00    +0.160 C 
BRANCH  28  29
ATOM     29  C   UNL     1       1.286   1.562  -0.002  0.00  0.00    +0.172 C 
BRANCH  29  30
ATOM     30  O   UNL     1      -0.011   0.963   0.007  0.00  0.00    -0.387 OA
ATOM     31  H   UNL     1       0.002  -0.004   0.002  0.00  0.00    +0.210 HD
ENDBRANCH  29  30
BRANCH  29  32
ATOM     32  C   UNL     1       2.040   1.127  -1.261  0.00  0.00    +0.262 C 
BRANCH  32  33
ATOM     33  O   UNL     1       1.376   1.645  -2.415  0.00  0.00    -0.489 OA
BRANCH  33  38
ATOM     34  C   UNL     1       3.634   0.418  -7.428  0.00  0.00    +0.044 C 
ATOM     35  C   UNL     1       3.030   0.746  -6.087  0.00  0.00    -0.050 A 
ATOM     36  C   UNL     1       1.884   1.517  -6.016  0.00  0.00    +0.007 A 
ATOM     37  C   UNL     1       1.328   1.819  -4.788  0.00  0.00    +0.046 A 
ATOM     38  C   UNL     1       1.921   1.349  -3.625  0.00  0.00    +0.121 A 
ATOM     39  C   UNL     1       3.074   0.581  -3.698  0.00  0.00    +0.046 A 
ATOM     40  C   UNL     1       3.622   0.276  -4.929  0.00  0.00    +0.007 A 
ENDBRANCH  33  38
ENDBRANCH  32  33
ENDBRANCH  29  32
ENDBRANCH  28  29
ENDBRANCH   1  28
TORSDOF 7
