REMARK  Name = ZINC23777693
REMARK  8 active torsions:
REMARK  status: ('A' for Active; 'I' for Inactive)
REMARK    1  A    between atoms: C_1  and  C_2
REMARK    2  A    between atoms: C_2  and  C_3
REMARK    3  A    between atoms: C_3  and  N_4
REMARK    4  A    between atoms: N_4  and  C_5
REMARK    5  A    between atoms: N_4  and  C_18
REMARK    6  A    between atoms: C_5  and  C_6
REMARK    7  A    between atoms: C_18  and  C_19
REMARK    8  A    between atoms: N_21  and  C_22
REMARK                            x       y       z     vdW  Elec       q    Type
REMARK                         _______ _______ _______ _____ _____    ______ ____
ROOT
ATOM      1  N   UNL     1      -3.684   1.650  -0.199  0.00  0.00    +0.390 N 
ATOM      2  H   UNL     1      -3.852   2.428   0.559  0.00  0.00    -0.081 HD
ENDROOT
BRANCH   1   3
ATOM      3  C   UNL     1      -3.392   2.318  -1.475  0.00  0.00    -0.078 C 
BRANCH   3   5
ATOM      4  C   UNL     1      -2.692   1.968  -3.847  0.00  0.00    +0.002 C 
ATOM      5  C   UNL     1      -3.045   1.269  -2.533  0.00  0.00    -0.022 C 
ENDBRANCH   3   5
ENDBRANCH   1   3
BRANCH   1   6
ATOM      6  C   UNL     1      -2.545   0.832   0.239  0.00  0.00    -0.001 C 
BRANCH   6   7
ATOM      7  C   UNL     1      -1.377   1.728   0.562  0.00  0.00    +0.117 A 
ATOM      8  N   UNL     1      -0.223   1.153   0.988  0.00  0.00    -0.196 NA
ATOM      9  C   UNL     1       0.857   1.913   1.287  0.00  0.00    +0.281 A 
ATOM     10  O   UNL     1       1.899   1.411   1.664  0.00  0.00    -0.265 OA
ATOM     11  C   UNL     1       0.721   3.369   1.137  0.00  0.00    +0.067 A 
ATOM     12  C   UNL     1       1.772   4.240   1.417  0.00  0.00    +0.017 A 
ATOM     13  C   UNL     1       1.594   5.587   1.261  0.00  0.00    +0.021 A 
ATOM     14  C   UNL     1       0.376   6.096   0.825  0.00  0.00    +0.043 A 
ATOM     15  C   UNL     1      -0.679   5.256   0.541  0.00  0.00    +0.048 A 
ATOM     16  C   UNL     1      -0.520   3.877   0.693  0.00  0.00    +0.080 A 
ATOM     17  N   UNL     1      -1.529   3.010   0.426  0.00  0.00    -0.234 NA
ATOM     18 CL   UNL     1       0.181   7.811   0.637  0.00  0.00    -0.083 Cl
ENDBRANCH   6   7
ENDBRANCH   1   6
BRANCH   1  19
ATOM     19  C   UNL     1      -4.906   0.842  -0.296  0.00  0.00    +0.019 C 
BRANCH  19  20
ATOM     20  C   UNL     1      -6.107   1.751  -0.350  0.00  0.00    +0.201 C 
ATOM     21  O   UNL     1      -5.968   2.948  -0.210  0.00  0.00    -0.278 OA
ATOM     22  N   UNL     1      -7.335   1.235  -0.554  0.00  0.00    -0.285 N 
ATOM     23  H   UNL     1      -7.473   0.144  -0.597  0.00  0.00    +0.155 HD
BRANCH  22  24
ATOM     24  C   UNL     1      -8.436   2.087  -0.711  0.00  0.00    +0.072 A 
ATOM     25  C   UNL     1      -8.433   3.343  -0.121  0.00  0.00    +0.029 A 
ATOM     26  C   UNL     1      -9.517   4.185  -0.280  0.00  0.00    +0.043 A 
ATOM     27  C   UNL     1     -10.612   3.774  -1.020  0.00  0.00    +0.161 A 
ATOM     28  C   UNL     1     -10.623   2.518  -1.607  0.00  0.00    +0.195 A 
ATOM     29  C   UNL     1      -9.536   1.673  -1.454  0.00  0.00    +0.182 A 
ATOM     30  F   UNL     1      -9.544   0.450  -2.026  0.00  0.00    -0.200 F 
ATOM     31  F   UNL     1     -11.693   2.118  -2.328  0.00  0.00    -0.199 F 
ATOM     32  F   UNL     1     -11.673   4.597  -1.169  0.00  0.00    -0.202 F 
ENDBRANCH  22  24
ENDBRANCH  19  20
ENDBRANCH   1  19
TORSDOF 7
