REMARK  Name = ZINC00801141
REMARK  11 active torsions:
REMARK  status: ('A' for Active; 'I' for Inactive)
REMARK    1  A    between atoms: C_1  and  C_2
REMARK    2  A    between atoms: C_3  and  C_35
REMARK    3  A    between atoms: C_4  and  C_23
REMARK    4  A    between atoms: C_10  and  C_15
REMARK    5  A    between atoms: C_18  and  O_21
REMARK    6  A    between atoms: O_21  and  C_22
REMARK    7  A    between atoms: C_28  and  N_29
REMARK    8  A    between atoms: C_35  and  O_37
REMARK    9  A    between atoms: O_37  and  C_38
REMARK   10  A    between atoms: C_38  and  C_39
REMARK   11  A    between atoms: C_39  and  C_40
REMARK                            x       y       z     vdW  Elec       q    Type
REMARK                         _______ _______ _______ _____ _____    ______ ____
ROOT
ATOM      1  C   UNL     1      -2.521   2.408   2.003  0.00  0.00    +0.061 C 
ATOM      2  C   UNL     1      -1.913   1.167   1.402  0.00  0.00    +0.016 C 
ATOM      3  C   UNL     1      -2.687   0.093   1.164  0.00  0.00    +0.065 C 
ATOM      4  C   UNL     1      -2.116  -1.163   0.576  0.00  0.00    +0.095 C 
ATOM      5  C   UNL     1      -0.779  -0.899  -0.070  0.00  0.00    +0.024 C 
ATOM      6  C   UNL     1      -0.083   0.221   0.217  0.00  0.00    +0.016 C 
ATOM      7  N   UNL     1      -0.581   1.141   1.098  0.00  0.00    -0.321 N 
ATOM      8  C   UNL     1       1.252   0.495  -0.430  0.00  0.00    +0.059 C 
ATOM      9  C   UNL     1       1.958  -0.829  -0.730  0.00  0.00    +0.032 C 
ATOM     10  C   UNL     1       1.056  -1.665  -1.644  0.00  0.00    +0.088 C 
ATOM     11  C   UNL     1      -0.279  -1.851  -0.976  0.00  0.00    +0.162 C 
ATOM     12  O   UNL     1      -0.936  -2.843  -1.223  0.00  0.00    -0.292 OA
ATOM     13  H   UNL     1       0.019   1.780   1.513  0.00  0.00    +0.152 HD
ENDROOT
BRANCH   4  14
ATOM     14  C   UNL     1      -1.943  -2.187   1.668  0.00  0.00    -0.001 A 
ATOM     15  C   UNL     1      -1.063  -1.945   2.707  0.00  0.00    +0.056 A 
ATOM     16  C   UNL     1      -0.902  -2.885   3.711  0.00  0.00    +0.167 A 
ATOM     17  C   UNL     1      -1.629  -4.073   3.672  0.00  0.00    +0.168 A 
ATOM     18  C   UNL     1      -2.509  -4.308   2.629  0.00  0.00    +0.082 A 
ATOM     19  C   UNL     1      -2.668  -3.363   1.632  0.00  0.00    +0.134 A 
ATOM     20  O   UNL     1      -1.296  -4.824   4.762  0.00  0.00    -0.453 OA
ATOM     21  C   UNL     1      -0.060  -4.268   5.250  0.00  0.00    +0.466 C 
ATOM     22  O   UNL     1      -0.114  -2.893   4.826  0.00  0.00    -0.453 OA
BRANCH  19  23
ATOM     23  N   UNL     1      -3.614  -3.613   0.521  0.00  0.00    +0.057 N 
ATOM     24  O   UNL     1      -4.683  -4.131   0.743  0.00  0.00    -0.126 OA
ATOM     25  O   UNL     1      -3.317  -3.300  -0.608  0.00  0.00    -0.126 OA
ENDBRANCH  19  23
ENDBRANCH   4  14
BRANCH   9  26
ATOM     26  C   UNL     1       3.271  -0.557  -1.419  0.00  0.00    -0.043 A 
ATOM     27  C   UNL     1       3.291   0.116  -2.626  0.00  0.00    +0.007 A 
ATOM     28  C   UNL     1       4.493   0.366  -3.259  0.00  0.00    +0.046 A 
ATOM     29  C   UNL     1       5.681  -0.060  -2.682  0.00  0.00    +0.120 A 
ATOM     30  C   UNL     1       5.659  -0.735  -1.471  0.00  0.00    +0.046 A 
ATOM     31  C   UNL     1       4.454  -0.978  -0.839  0.00  0.00    +0.007 A 
BRANCH  29  32
ATOM     32  O   UNL     1       6.865   0.184  -3.304  0.00  0.00    -0.495 OA
ATOM     33  C   UNL     1       8.048  -0.283  -2.652  0.00  0.00    +0.277 C 
ENDBRANCH  29  32
ENDBRANCH   9  26
BRANCH   3  34
ATOM     34  C   UNL     1      -4.066   0.149   1.475  0.00  0.00    +0.338 C 
ATOM     35  O   UNL     1      -4.541   1.162   1.953  0.00  0.00    -0.245 OA
BRANCH  34  36
ATOM     36  O   UNL     1      -4.854  -0.921   1.241  0.00  0.00    -0.461 OA
BRANCH  36  37
ATOM     37  C   UNL     1      -6.237  -0.794   1.579  0.00  0.00    +0.237 C 
BRANCH  37  38
ATOM     38  C   UNL     1      -6.965  -2.098   1.245  0.00  0.00    +0.076 C 
BRANCH  38  39
ATOM     39  C   UNL     1      -8.423  -1.964   1.602  0.00  0.00    -0.044 A 
ATOM     40  C   UNL     1      -8.859  -2.308   2.867  0.00  0.00    +0.004 A 
ATOM     41  C   UNL     1     -10.197  -2.186   3.194  0.00  0.00    +0.000 A 
ATOM     42  C   UNL     1     -11.098  -1.719   2.256  0.00  0.00    +0.000 A 
ATOM     43  C   UNL     1     -10.661  -1.374   0.990  0.00  0.00    +0.000 A 
ATOM     44  C   UNL     1      -9.323  -1.492   0.665  0.00  0.00    +0.004 A 
ENDBRANCH  38  39
ENDBRANCH  37  38
ENDBRANCH  36  37
ENDBRANCH  34  36
ENDBRANCH   3  34
TORSDOF 9
