REMARK  Name = ZINC15675357
REMARK  7 active torsions:
REMARK  status: ('A' for Active; 'I' for Inactive)
REMARK    1  A    between atoms: C_1  and  S_2
REMARK    2  A    between atoms: S_2  and  C_3
REMARK    3  A    between atoms: C_6  and  N_9
REMARK    4  A    between atoms: C_12  and  C_26
REMARK    5  A    between atoms: C_15  and  O_25
REMARK    6  A    between atoms: C_17  and  O_24
REMARK    7  A    between atoms: N_28  and  C_29
REMARK                            x       y       z     vdW  Elec       q    Type
REMARK                         _______ _______ _______ _____ _____    ______ ____
ROOT
ATOM      1  N   UNL     1       0.829  -1.721   1.219  0.00  0.00    -0.277 N 
ATOM      2  C   UNL     1       1.400  -0.744   0.292  0.00  0.00    +0.115 C 
ATOM      3  C   UNL     1       2.410   0.169   0.892  0.00  0.00    +0.100 C 
ATOM      4  C   UNL     1       1.893   1.519   1.331  0.00  0.00    +0.048 C 
ATOM      5  C   UNL     1       0.994   2.145   0.292  0.00  0.00    +0.146 C 
ATOM      6  C   UNL     1      -0.157   1.253  -0.096  0.00  0.00    +0.165 C 
ATOM      7  C   UNL     1       0.223  -0.164  -0.458  0.00  0.00    +0.124 C 
ATOM      8  N   UNL     1      -0.898  -1.052  -0.068  0.00  0.00    -0.319 N 
ATOM      9  C   UNL     1      -0.474  -1.865   0.919  0.00  0.00    +0.138 C 
ATOM     10  S   UNL     1      -1.499  -2.983   1.714  0.00  0.00    -0.018 S 
ATOM     11  H   UNL     1      -1.786  -1.046  -0.458  0.00  0.00    +0.148 HD
ENDROOT
BRANCH   1  15
ATOM     12  C   UNL     1       2.880  -3.709   4.258  0.00  0.00    +0.008 A 
ATOM     13  C   UNL     1       3.251  -3.896   2.932  0.00  0.00    +0.016 A 
ATOM     14  C   UNL     1       2.572  -3.237   1.926  0.00  0.00    +0.024 A 
ATOM     15  C   UNL     1       1.518  -2.389   2.240  0.00  0.00    +0.036 A 
ATOM     16  C   UNL     1       1.151  -2.198   3.565  0.00  0.00    +0.024 A 
ATOM     17  C   UNL     1       1.826  -2.860   4.571  0.00  0.00    +0.016 A 
BRANCH  12  19
ATOM     18  C   UNL     1       2.920  -4.001   7.061  0.00  0.00    +0.090 C 
ATOM     19  S   UNL     1       3.747  -4.549   5.542  0.00  0.00    -0.129 S 
ENDBRANCH  12  19
ENDBRANCH   1  15
BRANCH   3  20
ATOM     20  C   UNL     1       3.010  -0.516   2.093  0.00  0.00    +0.218 C 
ATOM     21  O   UNL     1       2.436  -0.481   3.160  0.00  0.00    -0.275 OA
ATOM     22  N   UNL     1       4.185  -1.167   1.980  0.00  0.00    -0.312 N 
ATOM     23  H   UNL     1       4.621  -1.234   1.116  0.00  0.00    +0.149 HD
BRANCH  22  24
ATOM     24  C   UNL     1       4.803  -1.773   3.162  0.00  0.00    +0.073 C 
ATOM     25  C   UNL     1       5.609  -0.711   3.939  0.00  0.00    +0.022 C 
ATOM     26  C   UNL     1       6.853  -1.479   4.451  0.00  0.00    +0.002 C 
ATOM     27  C   UNL     1       7.185  -2.420   3.267  0.00  0.00    +0.002 C 
ATOM     28  C   UNL     1       5.805  -2.859   2.734  0.00  0.00    +0.022 C 
ENDBRANCH  22  24
ENDBRANCH   3  20
BRANCH   6  29
ATOM     29  O   UNL     1      -1.078   1.206   0.996  0.00  0.00    -0.387 OA
ATOM     30  H   UNL     1      -1.377   2.075   1.295  0.00  0.00    +0.210 HD
ENDBRANCH   6  29
BRANCH   5  31
ATOM     31  O   UNL     1       1.774   2.426  -0.871  0.00  0.00    -0.389 OA
ATOM     32  H   UNL     1       2.537   2.997  -0.705  0.00  0.00    +0.210 HD
ENDBRANCH   5  31
TORSDOF 6
