REMARK  Name = ZINC65021547
REMARK  6 active torsions:
REMARK  status: ('A' for Active; 'I' for Inactive)
REMARK    1  A    between atoms: C_1  and  C_2
REMARK    2  A    between atoms: C_7  and  N_8
REMARK    3  A    between atoms: N_8  and  S_9
REMARK    4  A    between atoms: S_9  and  C_12
REMARK    5  A    between atoms: C_21  and  C_24
REMARK    6  A    between atoms: C_29  and  C_32
REMARK                            x       y       z     vdW  Elec       q    Type
REMARK                         _______ _______ _______ _____ _____    ______ ____
ROOT
ATOM      1  C   UNL     1       0.047   0.335   5.145  0.00  0.00    +0.112 A 
ATOM      2  C   UNL     1       1.246   0.818   5.636  0.00  0.00    +0.030 A 
ATOM      3  C   UNL     1       1.247   1.747   6.660  0.00  0.00    +0.018 A 
ATOM      4  C   UNL     1       0.046   2.193   7.188  0.00  0.00    +0.030 A 
ATOM      5  C   UNL     1      -1.167   1.716   6.692  0.00  0.00    +0.049 A 
ATOM      6  C   UNL     1      -1.152   0.781   5.662  0.00  0.00    +0.053 A 
ATOM      7  N   UNL     1      -2.389   2.163   7.186  0.00  0.00    -0.283 N 
ATOM      8  C   UNL     1      -2.599   3.251   7.919  0.00  0.00    +0.240 C 
ATOM      9  O   UNL     1      -3.712   3.441   8.365  0.00  0.00    -0.274 OA
ATOM     10  C   UNL     1      -1.524   4.261   8.224  0.00  0.00    +0.223 C 
ATOM     11  S   UNL     1       0.039   3.372   8.502  0.00  0.00    -0.101 S 
ATOM     12  H   UNL     1      -3.168   1.624   6.973  0.00  0.00    +0.155 HD
ENDROOT
BRANCH  10  13
ATOM     13  C   UNL     1      -1.373   5.207   7.061  0.00  0.00    +0.238 C 
ATOM     14  O   UNL     1      -1.610   4.826   5.934  0.00  0.00    -0.274 OA
ATOM     15  N   UNL     1      -0.975   6.477   7.273  0.00  0.00    -0.300 N 
ATOM     16  C   UNL     1      -0.678   6.952   8.631  0.00  0.00    +0.108 C 
ATOM     17  C   UNL     1       0.727   7.561   8.645  0.00  0.00    +0.022 C 
ATOM     18  C   UNL     1       0.820   8.643   7.567  0.00  0.00    -0.011 C 
ATOM     19  C   UNL     1       0.579   8.017   6.191  0.00  0.00    +0.022 C 
ATOM     20  C   UNL     1      -0.823   7.411   6.149  0.00  0.00    +0.108 C 
ATOM     21  C   UNL     1       2.212   9.278   7.600  0.00  0.00    +0.007 C 
ENDBRANCH  10  13
BRANCH   1  22
ATOM     22  S   UNL     1       0.051  -0.854   3.843  0.00  0.00    +0.092 S 
ATOM     23  O   UNL     1      -1.185  -1.551   3.927  0.00  0.00    -0.148 OA
ATOM     24  O   UNL     1       1.305  -1.518   3.903  0.00  0.00    -0.148 OA
BRANCH  22  25
ATOM     25  N   UNL     1       0.026  -0.016   2.415  0.00  0.00    -0.098 NA
BRANCH  25  32
ATOM     26  C   UNL     1      -0.018   1.503   0.010  0.00  0.00    +0.046 C 
ATOM     27  C   UNL     1       0.002  -0.004   0.002  0.00  0.00    -0.026 A 
ATOM     28  C   UNL     1       0.006  -0.689  -1.198  0.00  0.00    +0.007 A 
ATOM     29  C   UNL     1       0.024  -2.071  -1.207  0.00  0.00    +0.020 A 
ATOM     30  C   UNL     1       0.040  -2.774  -0.014  0.00  0.00    +0.043 A 
ATOM     31  C   UNL     1       0.035  -2.095   1.189  0.00  0.00    +0.047 A 
ATOM     32  C   UNL     1       0.023  -0.706   1.201  0.00  0.00    +0.079 A 
ATOM     33 CL   UNL     1       0.063  -4.509  -0.031  0.00  0.00    -0.083 Cl
ENDBRANCH  25  32
ENDBRANCH  22  25
ENDBRANCH   1  22
TORSDOF 4
