REMARK  Name = ZINC15057115
REMARK  13 active torsions:
REMARK  status: ('A' for Active; 'I' for Inactive)
REMARK    1  A    between atoms: C_1  and  C_2
REMARK    2  A    between atoms: C_3  and  C_32
REMARK    3  A    between atoms: N_4  and  C_25
REMARK    4  A    between atoms: C_5  and  N_9
REMARK    5  A    between atoms: C_6  and  C_7
REMARK    6  A    between atoms: C_10  and  C_12
REMARK    7  A    between atoms: C_12  and  N_61
REMARK    8  A    between atoms: C_13  and  C_15
REMARK    9  A    between atoms: C_13  and  C_22
REMARK   10  A    between atoms: C_13  and  N_61
REMARK   11  A    between atoms: C_22  and  C_23
REMARK   12  A    between atoms: C_22  and  C_24
REMARK   13  A    between atoms: C_25  and  C_26
REMARK                            x       y       z     vdW  Elec       q    Type
REMARK                         _______ _______ _______ _____ _____    ______ ____
ROOT
ATOM      1  N   UNL     1      -1.124  -0.814  -0.010  0.00  0.00    -0.272 N 
ATOM      2  C   UNL     1      -0.980  -2.149  -0.131  0.00  0.00    +0.201 C 
ATOM      3  O   UNL     1       0.128  -2.641  -0.145  0.00  0.00    -0.278 OA
ATOM      4  H   UNL     1      -2.010  -0.423   0.028  0.00  0.00    +0.156 HD
ENDROOT
BRANCH   1   9
ATOM      5  C   UNL     1       3.421   1.248  -0.804  0.00  0.00    +0.047 C 
ATOM      6  C   UNL     1       2.041   0.955  -0.274  0.00  0.00    -0.011 A 
ATOM      7  C   UNL     1       1.391   1.632   0.686  0.00  0.00    +0.022 A 
ATOM      8  N   UNL     1       0.163   1.062   0.890  0.00  0.00    -0.329 N 
ATOM      9  C   UNL     1      -0.003   0.000   0.060  0.00  0.00    +0.123 A 
ATOM     10  C   UNL     1       1.147  -0.126  -0.706  0.00  0.00    +0.095 A 
ATOM     11  C   UNL     1       1.928   2.832   1.424  0.00  0.00    +0.064 C 
BRANCH  10  12
ATOM     12  C   UNL     1       1.411  -1.113  -1.709  0.00  0.00    +0.103 C 
ATOM     13  N   UNL     1       1.621  -1.897  -2.505  0.00  0.00    -0.191 NA
ENDBRANCH  10  12
BRANCH   8  14
ATOM     14  C   UNL     1      -0.829   1.530   1.862  0.00  0.00    +0.154 C 
BRANCH  14  15
ATOM     15  C   UNL     1      -0.517   0.933   3.236  0.00  0.00    +0.138 C 
ATOM     16  C   UNL     1      -1.523   1.458   4.291  0.00  0.00    +0.035 C 
ATOM     17  C   UNL     1      -1.467   0.318   5.344  0.00  0.00    +0.031 C 
ATOM     18  C   UNL     1      -1.251  -0.931   4.464  0.00  0.00    +0.160 C 
ATOM     19  O   UNL     1      -0.706  -0.491   3.214  0.00  0.00    -0.375 OA
ENDBRANCH  14  15
ENDBRANCH   8  14
ENDBRANCH   1   9
BRANCH   2  20
ATOM     20  C   UNL     1      -2.197  -3.030  -0.249  0.00  0.00    +0.016 C 
BRANCH  20  21
ATOM     21  N   UNL     1      -1.767  -4.436  -0.368  0.00  0.00    +0.389 N 
ATOM     22  H   UNL     1      -1.227  -4.696   0.466  0.00  0.00    -0.084 HD
ATOM     23  H   UNL     1      -1.178  -4.540  -1.203  0.00  0.00    -0.084 HD
BRANCH  21  24
ATOM     24  C   UNL     1      -2.940  -5.322  -0.485  0.00  0.00    -0.038 C 
BRANCH  24  25
ATOM     25  C   UNL     1      -2.569  -6.700   0.000  0.00  0.00    -0.061 A 
ATOM     26  C   UNL     1      -1.332  -7.233  -0.313  0.00  0.00    +0.005 A 
ATOM     27  C   UNL     1      -0.989  -8.494   0.137  0.00  0.00    +0.038 A 
ATOM     28  C   UNL     1      -1.888  -9.228   0.890  0.00  0.00    +0.123 A 
ATOM     29  C   UNL     1      -3.129  -8.696   1.198  0.00  0.00    +0.038 A 
ATOM     30  C   UNL     1      -3.467  -7.432   0.753  0.00  0.00    +0.005 A 
ATOM     31  F   UNL     1      -1.556 -10.464   1.325  0.00  0.00    -0.205 F 
ENDBRANCH  24  25
BRANCH  24  32
ATOM     32  C   UNL     1      -3.379  -5.398  -1.949  0.00  0.00    -0.027 C 
ATOM     33  C   UNL     1      -2.277  -6.061  -2.778  0.00  0.00    +0.006 C 
ATOM     34  C   UNL     1      -4.662  -6.224  -2.054  0.00  0.00    +0.006 C 
ENDBRANCH  24  32
ENDBRANCH  21  24
ENDBRANCH  20  21
ENDBRANCH   2  20
TORSDOF 9
