REMARK  Name = ZINC05362368
REMARK  6 active torsions:
REMARK  status: ('A' for Active; 'I' for Inactive)
REMARK    1  A    between atoms: C_4  and  N_11
REMARK    2  A    between atoms: C_5  and  C_7
REMARK    3  A    between atoms: C_12  and  C_14
REMARK    4  A    between atoms: C_14  and  O_15
REMARK    5  A    between atoms: O_15  and  C_16
REMARK    6  A    between atoms: C_16  and  C_18
REMARK                            x       y       z     vdW  Elec       q    Type
REMARK                         _______ _______ _______ _____ _____    ______ ____
ROOT
ATOM      1  N   UNL     1      -8.397   1.165  -0.133  0.00  0.00    -0.282 N 
ATOM      2  C   UNL     1      -7.065   1.370  -0.109  0.00  0.00    +0.255 C 
ATOM      3  O   UNL     1      -6.625   2.499  -0.071  0.00  0.00    -0.272 OA
ATOM      4  H   UNL     1      -8.748   0.266  -0.229  0.00  0.00    +0.155 HD
ENDROOT
BRANCH   1   8
ATOM      5  C   UNL     1     -11.006   4.396   0.207  0.00  0.00    +0.001 A 
ATOM      6  C   UNL     1      -9.807   4.545  -0.466  0.00  0.00    +0.002 A 
ATOM      7  C   UNL     1      -8.938   3.477  -0.576  0.00  0.00    +0.024 A 
ATOM      8  C   UNL     1      -9.273   2.250  -0.019  0.00  0.00    +0.045 A 
ATOM      9  C   UNL     1     -10.477   2.104   0.657  0.00  0.00    +0.076 A 
ATOM     10  C   UNL     1     -11.340   3.177   0.768  0.00  0.00    +0.014 A 
BRANCH   9  11
ATOM     11  C   UNL     1     -10.842   0.776   1.269  0.00  0.00    +0.419 C 
ATOM     12  F   UNL     1     -12.092   0.876   1.890  0.00  0.00    -0.166 F 
ATOM     13  F   UNL     1     -10.896  -0.200   0.268  0.00  0.00    -0.166 F 
ATOM     14  F   UNL     1      -9.877   0.419   2.217  0.00  0.00    -0.166 F 
ENDBRANCH   9  11
ENDBRANCH   1   8
BRANCH   2  15
ATOM     15  C   UNL     1      -6.122   0.194  -0.130  0.00  0.00    +0.328 C 
BRANCH  15  16
ATOM     16  O   UNL     1      -4.751   0.673  -0.098  0.00  0.00    -0.451 OA
BRANCH  16  17
ATOM     17  C   UNL     1      -3.776  -0.260  -0.111  0.00  0.00    +0.346 C 
ATOM     18  O   UNL     1      -4.065  -1.440  -0.148  0.00  0.00    -0.244 OA
BRANCH  17  19
ATOM     19  C   UNL     1      -2.371   0.150  -0.080  0.00  0.00    +0.097 A 
ATOM     20  C   UNL     1      -1.232  -0.636  -0.087  0.00  0.00    +0.026 A 
ATOM     21  C   UNL     1       0.003   0.000  -0.046  0.00  0.00    -0.036 A 
ATOM     22  C   UNL     1      -0.016   1.353  -0.031  0.00  0.00    -0.006 A 
ATOM     23  S   UNL     1      -1.678   1.795  -0.025  0.00  0.00    -0.086 S 
ATOM     24  C   UNL     1       1.189   2.268  -0.039  0.00  0.00    +0.043 C 
ATOM     25  C   UNL     1       1.907   2.084   1.308  0.00  0.00    +0.005 C 
ATOM     26  C   UNL     1       2.742   0.825   1.293  0.00  0.00    +0.001 C 
ATOM     27  C   UNL     1       1.989  -0.480   1.339  0.00  0.00    +0.005 C 
ATOM     28  C   UNL     1       1.311  -0.797   0.004  0.00  0.00    +0.036 C 
ENDBRANCH  17  19
ENDBRANCH  16  17
ENDBRANCH  15  16
ENDBRANCH   2  15
TORSDOF 6
