REMARK  Name = ZINC25589196
REMARK  9 active torsions:
REMARK  status: ('A' for Active; 'I' for Inactive)
REMARK    1  A    between atoms: C_1  and  C_2
REMARK    2  A    between atoms: C_2  and  C_3
REMARK    3  A    between atoms: C_4  and  C_25
REMARK    4  A    between atoms: C_5  and  N_24
REMARK    5  A    between atoms: C_7  and  S_9
REMARK    6  A    between atoms: S_9  and  C_10
REMARK    7  A    between atoms: C_10  and  C_12
REMARK    8  A    between atoms: C_10  and  C_13
REMARK    9  A    between atoms: N_15  and  C_16
REMARK                            x       y       z     vdW  Elec       q    Type
REMARK                         _______ _______ _______ _____ _____    ______ ____
ROOT
ATOM      1  C   UNL     1       4.132   6.065   1.236  0.00  0.00    +0.055 A 
ATOM      2  C   UNL     1       5.184   5.293   0.748  0.00  0.00    +0.043 A 
ATOM      3  C   UNL     1       4.894   4.009   0.249  0.00  0.00    +0.129 A 
ATOM      4  N   UNL     1       3.636   3.583   0.267  0.00  0.00    -0.207 NA
ATOM      5  C   UNL     1       2.667   4.356   0.737  0.00  0.00    +0.191 A 
ATOM      6  N   UNL     1       2.906   5.569   1.214  0.00  0.00    -0.226 NA
ENDROOT
BRANCH   2   7
ATOM      7  C   UNL     1       6.574   5.810   0.753  0.00  0.00    -0.013 A 
ATOM      8  C   UNL     1       6.915   6.907  -0.036  0.00  0.00    +0.010 A 
ATOM      9  C   UNL     1       8.208   7.388  -0.024  0.00  0.00    +0.020 A 
ATOM     10  C   UNL     1       9.169   6.776   0.763  0.00  0.00    +0.041 A 
ATOM     11  C   UNL     1       8.837   5.682   1.545  0.00  0.00    +0.020 A 
ATOM     12  C   UNL     1       7.545   5.197   1.543  0.00  0.00    +0.010 A 
ATOM     13 CL   UNL     1      10.796   7.381   0.770  0.00  0.00    -0.084 Cl
ENDBRANCH   2   7
BRANCH   3  14
ATOM     14  N   UNL     1       5.902   3.202  -0.247  0.00  0.00    -0.343 N 
ATOM     15  H   UNL     1       5.664   2.200  -0.635  0.00  0.00    +0.144 HD
ATOM     16  H   UNL     1       6.941   3.562  -0.254  0.00  0.00    +0.144 HD
ENDBRANCH   3  14
BRANCH   1  18
ATOM     17  C   UNL     1       4.676   7.357   3.281  0.00  0.00    +0.010 C 
ATOM     18  C   UNL     1       4.388   7.446   1.781  0.00  0.00    +0.053 C 
ENDBRANCH   1  18
BRANCH   5  19
ATOM     19  S   UNL     1       1.012   3.748   0.734  0.00  0.00    -0.074 S 
BRANCH  19  20
ATOM     20  C   UNL     1       1.278   2.115   0.001  0.00  0.00    +0.137 C 
ATOM     21  C   UNL     1       1.767   2.275  -1.440  0.00  0.00    +0.029 C 
BRANCH  20  22
ATOM     22  C   UNL     1      -0.016   1.344   0.009  0.00  0.00    +0.226 C 
ATOM     23  O   UNL     1      -1.075   1.936   0.018  0.00  0.00    -0.275 OA
ATOM     24  N   UNL     1       0.002  -0.004   0.002  0.00  0.00    -0.310 N 
ATOM     25  H   UNL     1       0.962  -0.541  -0.010  0.00  0.00    +0.149 HD
BRANCH  24  26
ATOM     26  C   UNL     1      -1.256  -0.754   0.010  0.00  0.00    +0.095 C 
ATOM     27  C   UNL     1      -1.736  -0.948   1.458  0.00  0.00    +0.046 C 
ATOM     28  C   UNL     1      -2.873  -1.997   1.501  0.00  0.00    +0.168 C 
ATOM     29  S   UNL     1      -2.495  -3.062   0.050  0.00  0.00    -0.029 S 
ATOM     30  O   UNL     1      -3.563  -2.968  -0.883  0.00  0.00    -0.174 OA
ATOM     31  O   UNL     1      -2.078  -4.340   0.510  0.00  0.00    -0.174 OA
ATOM     32  C   UNL     1      -1.035  -2.159  -0.619  0.00  0.00    +0.188 C 
ENDBRANCH  24  26
ENDBRANCH  20  22
ENDBRANCH  19  20
ENDBRANCH   5  19
TORSDOF 7
