REMARK  Name = ZINC59014491
REMARK  8 active torsions:
REMARK  status: ('A' for Active; 'I' for Inactive)
REMARK    1  A    between atoms: C_3  and  C_29
REMARK    2  A    between atoms: C_6  and  C_7
REMARK    3  A    between atoms: C_7  and  N_8
REMARK    4  A    between atoms: C_9  and  C_11
REMARK    5  A    between atoms: C_11  and  S_12
REMARK    6  A    between atoms: S_12  and  C_13
REMARK    7  A    between atoms: N_18  and  N_19
REMARK    8  A    between atoms: C_20  and  C_21
REMARK                            x       y       z     vdW  Elec       q    Type
REMARK                         _______ _______ _______ _____ _____    ______ ____
ROOT
ATOM      1  C   UNL     1      -5.254  -3.081  -4.721  0.00  0.00    +0.211 A 
ATOM      2  N   UNL     1      -6.330  -3.711  -5.204  0.00  0.00    -0.186 NA
ATOM      3  C   UNL     1      -6.306  -3.683  -6.520  0.00  0.00    +0.232 A 
ATOM      4  N   UNL     1      -5.192  -3.023  -6.902  0.00  0.00    -0.245 N 
ATOM      5  N   UNL     1      -4.532  -2.640  -5.723  0.00  0.00    -0.144 NA
ATOM      6  N   UNL     1      -7.253  -4.234  -7.363  0.00  0.00    -0.205 N 
ATOM      7  H   UNL     1      -7.148  -4.163  -8.324  0.00  0.00    +0.177 HD
ATOM      8  H   UNL     1      -4.905  -2.845  -7.812  0.00  0.00    +0.192 HD
ENDROOT
BRANCH   6   9
ATOM      9  N   UNL     1      -8.367  -4.896  -6.827  0.00  0.00    -0.188 NA
ATOM     10  C   UNL     1      -9.257  -5.413  -7.619  0.00  0.00    +0.139 C 
BRANCH  10  11
ATOM     11  C   UNL     1     -10.428  -6.109  -7.055  0.00  0.00    +0.013 A 
ATOM     12  C   UNL     1     -11.385  -6.672  -7.904  0.00  0.00    +0.012 A 
ATOM     13  C   UNL     1     -12.478  -7.322  -7.371  0.00  0.00    +0.021 A 
ATOM     14  C   UNL     1     -12.629  -7.417  -5.997  0.00  0.00    +0.042 A 
ATOM     15  C   UNL     1     -11.686  -6.862  -5.150  0.00  0.00    +0.040 A 
ATOM     16  C   UNL     1     -10.583  -6.213  -5.670  0.00  0.00    +0.051 A 
ATOM     17 CL   UNL     1      -9.397  -5.524  -4.606  0.00  0.00    -0.083 Cl
ATOM     18 CL   UNL     1     -14.009  -8.237  -5.335  0.00  0.00    -0.083 Cl
ENDBRANCH  10  11
ENDBRANCH   6   9
BRANCH   1  19
ATOM     19  S   UNL     1      -4.871  -2.872  -3.014  0.00  0.00    -0.075 S 
BRANCH  19  20
ATOM     20  C   UNL     1      -3.312  -1.944  -3.024  0.00  0.00    +0.173 C 
BRANCH  20  22
ATOM     21  N   UNL     1      -1.726  -1.018  -1.368  0.00  0.00    -0.311 N 
ATOM     22  C   UNL     1      -2.867  -1.694  -1.606  0.00  0.00    +0.224 C 
ATOM     23  O   UNL     1      -3.535  -2.103  -0.680  0.00  0.00    -0.275 OA
ATOM     24  H   UNL     1      -1.192  -0.691  -2.108  0.00  0.00    +0.149 HD
BRANCH  21  25
ATOM     25  C   UNL     1      -1.293  -0.775   0.011  0.00  0.00    +0.139 C 
BRANCH  25  31
ATOM     26  C   UNL     1      -0.017   1.378   0.010  0.00  0.00    +0.006 A 
ATOM     27  C   UNL     1       1.171   2.086   0.002  0.00  0.00    +0.013 A 
ATOM     28  C   UNL     1       2.377   1.411  -0.013  0.00  0.00    +0.055 A 
ATOM     29  C   UNL     1       2.396   0.029  -0.020  0.00  0.00    +0.013 A 
ATOM     30  C   UNL     1       1.208  -0.679  -0.012  0.00  0.00    +0.006 A 
ATOM     31  C   UNL     1       0.002  -0.004   0.002  0.00  0.00    -0.030 A 
BRANCH  28  32
ATOM     32  C   UNL     1       3.672   2.182  -0.022  0.00  0.00    +0.417 C 
ATOM     33  F   UNL     1       4.086   2.414   1.294  0.00  0.00    -0.166 F 
ATOM     34  F   UNL     1       4.651   1.442  -0.695  0.00  0.00    -0.166 F 
ATOM     35  F   UNL     1       3.482   3.405  -0.674  0.00  0.00    -0.166 F 
ENDBRANCH  28  32
ENDBRANCH  25  31
ENDBRANCH  21  25
ENDBRANCH  20  22
ENDBRANCH  19  20
ENDBRANCH   1  19
TORSDOF 8
