REMARK  Name = ZINC63041069
REMARK  8 active torsions:
REMARK  status: ('A' for Active; 'I' for Inactive)
REMARK    1  A    between atoms: C_1  and  C_2
REMARK    2  A    between atoms: C_2  and  C_4
REMARK    3  A    between atoms: C_4  and  C_6
REMARK    4  A    between atoms: C_4  and  C_18
REMARK    5  A    between atoms: C_11  and  S_12
REMARK    6  A    between atoms: S_12  and  C_15
REMARK    7  A    between atoms: C_18  and  C_19
REMARK    8  A    between atoms: C_18  and  C_20
REMARK                            x       y       z     vdW  Elec       q    Type
REMARK                         _______ _______ _______ _____ _____    ______ ____
ROOT
ATOM      1  C   UNL     1      -0.379  -0.173   2.351  0.00  0.00    -0.018 A 
ATOM      2  C   UNL     1      -1.614  -0.776   2.193  0.00  0.00    +0.006 A 
ATOM      3  C   UNL     1      -2.633  -0.508   3.088  0.00  0.00    +0.000 A 
ATOM      4  C   UNL     1      -2.417   0.362   4.141  0.00  0.00    +0.002 A 
ATOM      5  C   UNL     1      -1.183   0.963   4.299  0.00  0.00    +0.027 A 
ATOM      6  C   UNL     1      -0.163   0.692   3.406  0.00  0.00    +0.098 A 
ENDROOT
BRANCH   6   7
ATOM      7  S   UNL     1       1.413   1.455   3.611  0.00  0.00    +0.058 S 
ATOM      8  O   UNL     1       1.812   1.822   2.298  0.00  0.00    -0.164 OA
ATOM      9  O   UNL     1       1.209   2.445   4.610  0.00  0.00    -0.164 OA
BRANCH   7  10
ATOM     10  C   UNL     1       2.488   0.139   4.246  0.00  0.00    +0.485 C 
ATOM     11  F   UNL     1       1.910  -0.425   5.389  0.00  0.00    -0.183 F 
ATOM     12  F   UNL     1       2.645  -0.848   3.268  0.00  0.00    -0.183 F 
ENDBRANCH   7  10
ENDBRANCH   6   7
BRANCH   1  13
ATOM     13  C   UNL     1       0.732  -0.465   1.375  0.00  0.00    +0.037 C 
BRANCH  13  15
ATOM     14  C   UNL     1       0.149   1.703   0.277  0.00  0.00    +0.020 C 
ATOM     15  C   UNL     1       0.430   0.217   0.040  0.00  0.00    +0.061 C 
ATOM     16 BR   UNL     1      -1.145  -0.623  -0.785  0.00  0.00    -0.088 Br
ENDBRANCH  13  15
BRANCH  13  17
ATOM     17  C   UNL     1       0.840  -1.976   1.163  0.00  0.00    -0.009 C 
ATOM     18  C   UNL     1       2.076  -2.285   0.316  0.00  0.00    +0.008 C 
ATOM     19  C   UNL     1       0.964  -2.674   2.519  0.00  0.00    +0.008 C 
ENDBRANCH  13  17
ENDBRANCH   1  13
TORSDOF 5
