REMARK  Name = ZINC45141212
REMARK  8 active torsions:
REMARK  status: ('A' for Active; 'I' for Inactive)
REMARK    1  A    between atoms: C_1  and  C_2
REMARK    2  A    between atoms: C_2  and  C_22
REMARK    3  A    between atoms: C_4  and  N_6
REMARK    4  A    between atoms: N_6  and  S_7
REMARK    5  A    between atoms: S_7  and  C_10
REMARK    6  A    between atoms: C_13  and  C_17
REMARK    7  A    between atoms: C_18  and  C_19
REMARK    8  A    between atoms: C_19  and  N_20
REMARK                            x       y       z     vdW  Elec       q    Type
REMARK                         _______ _______ _______ _____ _____    ______ ____
ROOT
ATOM      1  C   UNL     1      -0.827  -1.188   4.088  0.00  0.00    +0.142 A 
ATOM      2  C   UNL     1      -0.267  -0.013   4.559  0.00  0.00    +0.070 A 
ATOM      3  C   UNL     1      -1.050   0.910   5.224  0.00  0.00    +0.039 A 
ATOM      4  C   UNL     1      -2.408   0.657   5.420  0.00  0.00    +0.028 A 
ATOM      5  C   UNL     1      -2.967  -0.529   4.943  0.00  0.00    +0.039 A 
ATOM      6  C   UNL     1      -2.175  -1.443   4.275  0.00  0.00    +0.070 A 
ATOM      7 CL   UNL     1      -2.870  -2.916   3.675  0.00  0.00    -0.081 Cl
ATOM      8 CL   UNL     1       1.423   0.300   4.314  0.00  0.00    -0.081 Cl
ENDROOT
BRANCH   1   9
ATOM      9  S   UNL     1       0.178  -2.362   3.241  0.00  0.00    +0.061 S 
ATOM     10  O   UNL     1      -0.468  -3.621   3.375  0.00  0.00    -0.153 OA
ATOM     11  O   UNL     1       1.513  -2.141   3.675  0.00  0.00    -0.153 OA
BRANCH   9  12
ATOM     12  N   UNL     1       0.132  -1.975   1.632  0.00  0.00    -0.186 NA
ATOM     13  H   UNL     1      -0.272  -2.587   0.997  0.00  0.00    +0.148 HD
BRANCH  12  17
ATOM     14  C   UNL     1      -0.019   1.526   0.010  0.00  0.00    +0.012 C 
ATOM     15  C   UNL     1       0.002  -0.004   0.002  0.00  0.00    -0.016 C 
ATOM     16  C   UNL     1       1.351  -0.691  -0.218  0.00  0.00    +0.029 C 
ATOM     17  C   UNL     1       0.701  -0.708   1.167  0.00  0.00    +0.083 C 
ATOM     18  C   UNL     1      -1.239  -0.678  -0.588  0.00  0.00    +0.012 C 
ENDBRANCH  12  17
ENDBRANCH   9  12
ENDBRANCH   1   9
BRANCH   4  19
ATOM     19  C   UNL     1      -3.225   1.611   6.109  0.00  0.00    -0.068 C 
ATOM     20  C   UNL     1      -3.894   2.392   6.673  0.00  0.00    -0.117 C 
BRANCH  20  21
ATOM     21  C   UNL     1      -4.734   3.373   7.381  0.00  0.00    +0.005 C 
BRANCH  21  22
ATOM     22  N   UNL     1      -6.113   2.873   7.455  0.00  0.00    +0.385 N 
ATOM     23  H   UNL     1      -6.472   2.735   6.522  0.00  0.00    -0.089 HD
ATOM     24  H   UNL     1      -6.127   1.996   7.954  0.00  0.00    -0.089 HD
ATOM     25  H   UNL     1      -6.689   3.545   7.940  0.00  0.00    -0.089 HD
ENDBRANCH  21  22
ENDBRANCH  20  21
ENDBRANCH   4  19
TORSDOF 6
