REMARK  Name = ZINC57007998
REMARK  6 active torsions:
REMARK  status: ('A' for Active; 'I' for Inactive)
REMARK    1  A    between atoms: C_1  and  N_2
REMARK    2  A    between atoms: N_2  and  C_3
REMARK    3  A    between atoms: N_2  and  S_13
REMARK    4  A    between atoms: S_13  and  C_16
REMARK    5  A    between atoms: C_19  and  S_22
REMARK    6  A    between atoms: S_22  and  N_25
REMARK                            x       y       z     vdW  Elec       q    Type
REMARK                         _______ _______ _______ _____ _____    ______ ____
ROOT
ATOM      1  S   UNL     1      -0.000  -0.824  -1.437  0.00  0.00    +0.074 S 
ATOM      2  O   UNL     1      -0.531  -2.115  -1.167  0.00  0.00    -0.150 OA
ATOM      3  O   UNL     1      -0.572   0.049  -2.401  0.00  0.00    -0.150 OA
ENDROOT
BRANCH   1   4
ATOM      4  C   UNL     1       1.682  -1.059  -1.905  0.00  0.00    +0.109 A 
ATOM      5  C   UNL     1       2.324  -0.109  -2.677  0.00  0.00    +0.031 A 
ATOM      6  C   UNL     1       3.643  -0.293  -3.045  0.00  0.00    +0.030 A 
ATOM      7  C   UNL     1       4.322  -1.428  -2.640  0.00  0.00    +0.105 A 
ATOM      8  C   UNL     1       3.680  -2.378  -1.867  0.00  0.00    +0.030 A 
ATOM      9  C   UNL     1       2.361  -2.192  -1.496  0.00  0.00    +0.031 A 
BRANCH   7  10
ATOM     10  S   UNL     1       6.003  -1.664  -3.109  0.00  0.00    +0.056 S 
ATOM     11  O   UNL     1       6.246  -3.063  -3.062  0.00  0.00    -0.153 OA
ATOM     12  O   UNL     1       6.208  -0.895  -4.287  0.00  0.00    -0.153 OA
BRANCH  10  13
ATOM     13  N   UNL     1       6.942  -0.980  -1.929  0.00  0.00    -0.204 NA
ATOM     14  H   UNL     1       7.822  -1.340  -1.740  0.00  0.00    +0.144 HD
ATOM     15  H   UNL     1       6.611  -0.219  -1.426  0.00  0.00    +0.144 HD
ENDBRANCH  10  13
ENDBRANCH   7  10
ENDBRANCH   1   4
BRANCH   1  17
ATOM     16  C   UNL     1      -0.018   1.461   0.010  0.00  0.00    +0.157 C 
ATOM     17  N   UNL     1       0.002  -0.004   0.002  0.00  0.00    -0.205 N 
BRANCH  17  18
ATOM     18  C   UNL     1       0.023  -0.707   1.205  0.00  0.00    +0.059 A 
ATOM     19  C   UNL     1      -1.153  -0.990   1.866  0.00  0.00    +0.025 A 
ATOM     20  C   UNL     1      -1.143  -1.692   3.067  0.00  0.00    +0.002 A 
ATOM     21  C   UNL     1       0.025  -2.118   3.623  0.00  0.00    +0.008 A 
ATOM     22  C   UNL     1       1.246  -1.850   2.981  0.00  0.00    -0.016 A 
ATOM     23  C   UNL     1       1.248  -1.142   1.754  0.00  0.00    +0.005 A 
ATOM     24  C   UNL     1       2.469  -0.880   1.112  0.00  0.00    +0.010 A 
ATOM     25  C   UNL     1       3.631  -1.314   1.671  0.00  0.00    +0.001 A 
ATOM     26  C   UNL     1       3.630  -2.016   2.875  0.00  0.00    +0.001 A 
ATOM     27  C   UNL     1       2.466  -2.278   3.532  0.00  0.00    +0.008 A 
ENDBRANCH  17  18
ENDBRANCH   1  17
TORSDOF 5
