REMARK  Name = ZINC12902421
REMARK  17 active torsions:
REMARK  status: ('A' for Active; 'I' for Inactive)
REMARK    1  A    between atoms: C_1  and  C_2
REMARK    2  A    between atoms: C_2  and  C_3
REMARK    3  A    between atoms: C_3  and  C_4
REMARK    4  A    between atoms: C_4  and  N_5
REMARK    5  A    between atoms: C_6  and  N_36
REMARK    6  A    between atoms: C_7  and  N_14
REMARK    7  A    between atoms: N_14  and  C_15
REMARK    8  A    between atoms: C_15  and  C_16
REMARK    9  A    between atoms: C_16  and  O_17
REMARK   10  A    between atoms: O_17  and  C_18
REMARK   11  A    between atoms: C_19  and  C_21
REMARK   12  A    between atoms: C_21  and  O_22
REMARK   13  A    between atoms: O_22  and  C_23
REMARK   14  A    between atoms: C_23  and  C_25
REMARK   15  A    between atoms: C_25  and  C_27
REMARK   16  A    between atoms: C_25  and  O_28
REMARK   17  A    between atoms: O_28  and  C_29
REMARK                            x       y       z     vdW  Elec       q    Type
REMARK                         _______ _______ _______ _____ _____    ______ ____
ROOT
ATOM      1  N   UNL     1       0.582  -3.816  -6.663  0.00  0.00    -0.259 N 
ATOM      2  C   UNL     1      -0.546  -3.078  -6.606  0.00  0.00    +0.258 C 
ATOM      3  O   UNL     1      -0.793  -2.421  -5.617  0.00  0.00    -0.272 OA
ENDROOT
BRANCH   1   6
ATOM      4  N   UNL     1       3.661  -3.187  -4.758  0.00  0.00    -0.280 N 
ATOM      5  C   UNL     1       2.773  -3.229  -5.808  0.00  0.00    +0.127 A 
ATOM      6  C   UNL     1       1.515  -3.760  -5.606  0.00  0.00    +0.140 A 
ATOM      7  C   UNL     1       1.179  -4.242  -4.327  0.00  0.00    +0.277 A 
ATOM      8  O   UNL     1       0.075  -4.716  -4.121  0.00  0.00    -0.266 OA
ATOM      9  N   UNL     1       2.086  -4.178  -3.333  0.00  0.00    -0.273 N 
ATOM     10  H   UNL     1       1.855  -4.511  -2.451  0.00  0.00    +0.173 HD
ATOM     11  C   UNL     1       3.309  -3.663  -3.550  0.00  0.00    +0.331 A 
ATOM     12  O   UNL     1       4.110  -3.621  -2.636  0.00  0.00    -0.246 OA
BRANCH   5  13
ATOM     13  N   UNL     1       3.135  -2.748  -7.044  0.00  0.00    -0.343 N 
ATOM     14  H   UNL     1       4.004  -2.338  -7.169  0.00  0.00    +0.144 HD
ATOM     15  H   UNL     1       2.520  -2.820  -7.791  0.00  0.00    +0.144 HD
ENDBRANCH   5  13
BRANCH   4  16
ATOM     16  C   UNL     1       5.000  -2.627  -4.959  0.00  0.00    +0.128 C 
BRANCH  16  17
ATOM     17  C   UNL     1       5.956  -3.737  -5.399  0.00  0.00    +0.021 C 
BRANCH  17  19
ATOM     18  C   UNL     1       8.311  -4.262  -6.049  0.00  0.00    +0.004 C 
ATOM     19  C   UNL     1       7.354  -3.152  -5.609  0.00  0.00    -0.002 C 
ENDBRANCH  17  19
ENDBRANCH  16  17
ENDBRANCH   4  16
ENDBRANCH   1   6
BRANCH   1  20
ATOM     20  C   UNL     1       0.838  -4.676  -7.821  0.00  0.00    +0.142 C 
BRANCH  20  21
ATOM     21  C   UNL     1       0.354  -6.096  -7.519  0.00  0.00    +0.178 C 
BRANCH  21  22
ATOM     22  O   UNL     1      -1.066  -6.091  -7.358  0.00  0.00    -0.381 OA
ATOM     23  C   UNL     1      -1.623  -7.375  -7.072  0.00  0.00    +0.194 C 
ENDBRANCH  21  22
ENDBRANCH  20  21
ENDBRANCH   1  20
BRANCH   2  24
ATOM     24  C   UNL     1      -1.500  -3.070  -7.773  0.00  0.00    +0.328 C 
BRANCH  24  25
ATOM     25  O   UNL     1      -2.610  -2.221  -7.475  0.00  0.00    -0.453 OA
BRANCH  25  26
ATOM     26  C   UNL     1      -3.558  -2.104  -8.418  0.00  0.00    +0.348 C 
ATOM     27  O   UNL     1      -3.449  -2.702  -9.462  0.00  0.00    -0.247 OA
BRANCH  26  28
ATOM     28  C   UNL     1      -4.758  -1.226  -8.175  0.00  0.00    +0.278 C 
ATOM     29  C   UNL     1      -5.587  -1.802  -7.025  0.00  0.00    +0.064 C 
BRANCH  28  30
ATOM     30  O   UNL     1      -5.558  -1.172  -9.358  0.00  0.00    -0.478 OA
BRANCH  30  31
ATOM     31  C   UNL     1      -6.353  -0.082  -9.517  0.00  0.00    +0.122 A 
ATOM     32  C   UNL     1      -6.444   0.865  -8.507  0.00  0.00    +0.047 A 
ATOM     33  C   UNL     1      -7.253   1.972  -8.671  0.00  0.00    +0.023 A 
ATOM     34  C   UNL     1      -7.971   2.139  -9.841  0.00  0.00    +0.041 A 
ATOM     35  C   UNL     1      -7.882   1.196 -10.850  0.00  0.00    +0.023 A 
ATOM     36  C   UNL     1      -7.069   0.090 -10.693  0.00  0.00    +0.047 A 
ATOM     37 CL   UNL     1      -8.987   3.532 -10.044  0.00  0.00    -0.084 Cl
ENDBRANCH  30  31
ENDBRANCH  28  30
ENDBRANCH  26  28
ENDBRANCH  25  26
ENDBRANCH  24  25
ENDBRANCH   2  24
TORSDOF 14
