REMARK  Name = ZINC39237638
REMARK  6 active torsions:
REMARK  status: ('A' for Active; 'I' for Inactive)
REMARK    1  A    between atoms: C_1  and  C_2
REMARK    2  A    between atoms: C_3  and  C_29
REMARK    3  A    between atoms: C_7  and  S_9
REMARK    4  A    between atoms: S_9  and  C_10
REMARK    5  A    between atoms: C_12  and  C_23
REMARK    6  A    between atoms: C_29  and  C_30
REMARK                            x       y       z     vdW  Elec       q    Type
REMARK                         _______ _______ _______ _____ _____    ______ ____
ROOT
ATOM      1  C   UNL     1      -0.849   3.199  -5.997  0.00  0.00    +0.171 C 
ATOM      2  C   UNL     1      -0.374   3.221  -7.437  0.00  0.00    -0.009 C 
ATOM      3  C   UNL     1      -0.557   4.410  -8.148  0.00  0.00    +0.003 A 
ATOM      4  C   UNL     1      -0.145   4.516  -9.493  0.00  0.00    +0.030 A 
ATOM      5  C   UNL     1      -0.336   5.686 -10.163  0.00  0.00    +0.042 A 
ATOM      6  C   UNL     1      -0.932   6.785  -9.546  0.00  0.00    +0.022 A 
ATOM      7  C   UNL     1      -1.350   6.742  -8.251  0.00  0.00    +0.025 A 
ATOM      8  C   UNL     1      -1.185   5.565  -7.498  0.00  0.00    +0.041 A 
ATOM      9  N   UNL     1      -1.598   5.525  -6.226  0.00  0.00    -0.284 N 
ATOM     10  C   UNL     1      -1.478   4.463  -5.456  0.00  0.00    +0.235 C 
ATOM     11  O   UNL     1      -1.877   4.499  -4.306  0.00  0.00    -0.274 OA
ATOM     12 CL   UNL     1       0.174   5.812 -11.817  0.00  0.00    -0.084 Cl
ATOM     13  H   UNL     1      -2.006   6.321  -5.851  0.00  0.00    +0.155 HD
ENDROOT
BRANCH   2  14
ATOM     14  C   UNL     1       0.230   2.086  -8.035  0.00  0.00    -0.020 A 
ATOM     15  C   UNL     1       1.571   2.134  -8.450  0.00  0.00    +0.008 A 
ATOM     16  C   UNL     1       2.147   1.026  -9.029  0.00  0.00    +0.001 A 
ATOM     17  C   UNL     1       1.410  -0.133  -9.204  0.00  0.00    +0.000 A 
ATOM     18  C   UNL     1       0.086  -0.192  -8.799  0.00  0.00    +0.001 A 
ATOM     19  C   UNL     1      -0.508   0.903  -8.211  0.00  0.00    +0.008 A 
ENDBRANCH   2  14
BRANCH   1  20
ATOM     20  S   UNL     1       0.573   2.792  -4.947  0.00  0.00    -0.068 S 
BRANCH  20  27
ATOM     21  C   UNL     1       1.075   1.659   0.018  0.00  0.00    +0.066 C 
ATOM     22  C   UNL     1       0.164   2.021  -1.127  0.00  0.00    +0.050 A 
ATOM     23  C   UNL     1      -1.197   2.151  -0.922  0.00  0.00    +0.044 A 
ATOM     24  C   UNL     1      -2.004   2.488  -2.009  0.00  0.00    +0.278 A 
ATOM     25  O   UNL     1      -3.343   2.626  -1.853  0.00  0.00    -0.265 OA
ATOM     26  N   UNL     1      -1.442   2.672  -3.197  0.00  0.00    -0.183 NA
ATOM     27  C   UNL     1      -0.133   2.538  -3.353  0.00  0.00    +0.193 A 
ATOM     28  N   UNL     1       0.659   2.224  -2.338  0.00  0.00    -0.227 NA
BRANCH  23  29
ATOM     29  C   UNL     1      -1.795   1.933   0.443  0.00  0.00    +0.069 C 
BRANCH  29  30
ATOM     30  C   UNL     1      -1.819   3.238   1.196  0.00  0.00    -0.030 C 
ATOM     31  C   UNL     1      -2.944   3.688   1.692  0.00  0.00    +0.004 C 
ENDBRANCH  29  30
ENDBRANCH  23  29
ENDBRANCH  20  27
ENDBRANCH   1  20
TORSDOF 5
