REMARK  Name = ZINC39620527
REMARK  5 active torsions:
REMARK  status: ('A' for Active; 'I' for Inactive)
REMARK    1  A    between atoms: C_1  and  C_2
REMARK    2  A    between atoms: C_9  and  S_13
REMARK    3  A    between atoms: C_11  and  C_12
REMARK    4  A    between atoms: S_13  and  C_14
REMARK    5  A    between atoms: C_14  and  C_15
REMARK                            x       y       z     vdW  Elec       q    Type
REMARK                         _______ _______ _______ _____ _____    ______ ____
ROOT
ATOM      1  C   UNL     1       0.005   2.787   5.758  0.00  0.00    +0.227 C 
ATOM      2  O   UNL     1      -0.100   2.305   6.867  0.00  0.00    -0.275 OA
ATOM      3  N   UNL     1      -0.003   4.126   5.602  0.00  0.00    -0.284 N 
ATOM      4  C   UNL     1       0.868   4.871   6.254  0.00  0.00    +0.050 C 
ATOM      5  C   UNL     1       1.939   4.232   7.049  0.00  0.00    +0.054 C 
ATOM      6  C   UNL     1       2.830   5.008   7.716  0.00  0.00    +0.097 C 
ATOM      7  N   UNL     1       3.906   4.760   8.517  0.00  0.00    -0.190 NA
ATOM      8  C   UNL     1       4.409   5.912   8.896  0.00  0.00    +0.369 C 
ATOM      9  O   UNL     1       5.489   6.045   9.701  0.00  0.00    -0.243 OA
ATOM     10  N   UNL     1       3.716   6.944   8.384  0.00  0.00    -0.190 NA
ATOM     11  C   UNL     1       2.727   6.480   7.645  0.00  0.00    +0.096 C 
ATOM     12  C   UNL     1       1.661   7.104   6.855  0.00  0.00    +0.047 C 
ATOM     13  C   UNL     1       0.778   6.336   6.186  0.00  0.00    +0.041 C 
ATOM     14 BR   UNL     1      -0.588   7.149   5.162  0.00  0.00    -0.048 Br
ATOM     15  H   UNL     1      -0.648   4.541   5.009  0.00  0.00    +0.155 HD
ENDROOT
BRANCH   1  16
ATOM     16  C   UNL     1       0.144   1.888   4.557  0.00  0.00    +0.171 C 
BRANCH  16  17
ATOM     17  S   UNL     1       0.119   0.155   5.092  0.00  0.00    -0.097 S 
BRANCH  17  26
ATOM     18  C   UNL     1       0.610   1.450   0.069  0.00  0.00    +0.046 C 
ATOM     19  C   UNL     1       0.636  -0.057   0.078  0.00  0.00    -0.024 A 
ATOM     20  C   UNL     1       0.772  -0.744  -1.089  0.00  0.00    +0.005 A 
ATOM     21  C   UNL     1       0.798  -2.136  -1.103  0.00  0.00    +0.001 A 
ATOM     22  C   UNL     1       0.687  -2.849   0.053  0.00  0.00    +0.010 A 
ATOM     23  C   UNL     1       0.545  -2.172   1.274  0.00  0.00    +0.004 A 
ATOM     24  C   UNL     1       0.524  -0.756   1.291  0.00  0.00    +0.075 A 
ATOM     25  N   UNL     1       0.394  -0.105   2.452  0.00  0.00    -0.240 NA
ATOM     26  C   UNL     1       0.289  -0.756   3.593  0.00  0.00    +0.098 A 
ATOM     27  C   UNL     1       0.309  -2.158   3.642  0.00  0.00    +0.038 A 
ATOM     28  C   UNL     1       0.427  -2.876   2.491  0.00  0.00    -0.039 A 
ATOM     29  C   UNL     1       0.451  -4.382   2.518  0.00  0.00    +0.044 C 
ENDBRANCH  17  26
ENDBRANCH  16  17
ENDBRANCH   1  16
TORSDOF 3
