REMARK  Name = ZINC63162958
REMARK  6 active torsions:
REMARK  status: ('A' for Active; 'I' for Inactive)
REMARK    1  A    between atoms: C_2  and  C_3
REMARK    2  A    between atoms: C_3  and  N_4
REMARK    3  A    between atoms: C_5  and  C_22
REMARK    4  A    between atoms: C_9  and  S_11
REMARK    5  A    between atoms: S_11  and  C_12
REMARK    6  A    between atoms: C_12  and  C_13
REMARK                            x       y       z     vdW  Elec       q    Type
REMARK                         _______ _______ _______ _____ _____    ______ ____
ROOT
ATOM      1  N   UNL     1       1.365  -1.681   1.120  0.00  0.00    -0.254 NA
ATOM      2  C   UNL     1       2.536  -2.590   0.998  0.00  0.00    +0.172 C 
ATOM      3  N   UNL     1       2.770  -3.018   2.402  0.00  0.00    -0.233 NA
ATOM      4  N   UNL     1       2.494  -1.821   3.201  0.00  0.00    -0.229 NA
ATOM      5  C   UNL     1       1.598  -0.966   2.396  0.00  0.00    +0.200 C 
ATOM      6  H   UNL     1       2.152  -3.773   2.658  0.00  0.00    +0.143 HD
ATOM      7  H   UNL     1       2.066  -2.064   4.081  0.00  0.00    +0.143 HD
ENDROOT
BRANCH   2   8
ATOM      8  C   UNL     1       2.205  -3.772   0.124  0.00  0.00    -0.015 A 
ATOM      9  C   UNL     1       2.999  -4.068  -0.968  0.00  0.00    +0.008 A 
ATOM     10  C   UNL     1       2.696  -5.152  -1.770  0.00  0.00    +0.020 A 
ATOM     11  C   UNL     1       1.598  -5.942  -1.480  0.00  0.00    +0.041 A 
ATOM     12  C   UNL     1       0.804  -5.645  -0.387  0.00  0.00    +0.020 A 
ATOM     13  C   UNL     1       1.111  -4.564   0.418  0.00  0.00    +0.008 A 
ATOM     14 CL   UNL     1       1.217  -7.303  -2.487  0.00  0.00    -0.084 Cl
ENDBRANCH   2   8
BRANCH   1  15
ATOM     15  C   UNL     1       1.308  -0.742  -0.008  0.00  0.00    +0.115 C 
BRANCH  15  17
ATOM     16  C   UNL     1      -0.051   1.286   0.012  0.00  0.00    +0.005 C 
ATOM     17  C   UNL     1      -0.016  -0.024   0.003  0.00  0.00    -0.019 C 
ENDBRANCH  15  17
ENDBRANCH   1  15
BRANCH   5  18
ATOM     18  S   UNL     1       0.025  -0.720   3.266  0.00  0.00    -0.121 S 
BRANCH  18  19
ATOM     19  C   UNL     1      -0.594  -2.403   3.538  0.00  0.00    +0.118 C 
BRANCH  19  20
ATOM     20  C   UNL     1      -1.934  -2.341   4.274  0.00  0.00    +0.184 C 
ATOM     21  N   UNL     1      -2.890  -1.529   3.511  0.00  0.00    -0.363 N 
ATOM     22  C   UNL     1      -3.235  -0.523   4.262  0.00  0.00    +0.060 A 
ATOM     23  C   UNL     1      -4.145   0.612   4.056  0.00  0.00    +0.027 A 
ATOM     24  C   UNL     1      -4.307   1.521   5.037  0.00  0.00    +0.002 A 
ATOM     25  C   UNL     1      -3.634   1.435   6.269  0.00  0.00    +0.002 A 
ATOM     26  C   UNL     1      -2.777   0.436   6.561  0.00  0.00    +0.027 A 
ATOM     27  C   UNL     1      -2.523  -0.615   5.566  0.00  0.00    +0.060 A 
ATOM     28  N   UNL     1      -1.766  -1.673   5.571  0.00  0.00    -0.363 N 
ATOM     29  H   UNL     1      -3.207  -1.709   2.612  0.00  0.00    +0.162 HD
ATOM     30  H   UNL     1      -1.196  -1.968   6.298  0.00  0.00    +0.162 HD
ENDBRANCH  19  20
ENDBRANCH  18  19
ENDBRANCH   5  18
TORSDOF 6
