REMARK  Name = ZINC04849238
REMARK  5 active torsions:
REMARK  status: ('A' for Active; 'I' for Inactive)
REMARK    1  A    between atoms: C_1  and  C_2
REMARK    2  A    between atoms: C_2  and  C_3
REMARK    3  A    between atoms: C_12  and  S_13
REMARK    4  A    between atoms: S_13  and  C_14
REMARK    5  A    between atoms: C_14  and  C_15
REMARK                            x       y       z     vdW  Elec       q    Type
REMARK                         _______ _______ _______ _____ _____    ______ ____
ROOT
ATOM      1  C   UNL     1       2.672  -4.893   4.921  0.00  0.00    +0.172 C 
ENDROOT
BRANCH   1   2
ATOM      2  C   UNL     1       2.590  -3.548   4.247  0.00  0.00    +0.229 C 
ATOM      3  O   UNL     1       3.316  -2.644   4.606  0.00  0.00    -0.275 OA
ATOM      4  N   UNL     1       1.711  -3.349   3.245  0.00  0.00    -0.264 N 
ATOM      5  C   UNL     1       1.636  -2.108   2.623  0.00  0.00    +0.165 A 
ATOM      6  N   UNL     1       0.852  -1.722   1.637  0.00  0.00    -0.229 NA
ATOM      7  C   UNL     1       0.893  -0.488   1.140  0.00  0.00    +0.054 A 
ATOM      8  C   UNL     1       1.795   0.353   1.709  0.00  0.00    +0.014 A 
ATOM      9  S   UNL     1       2.553  -0.666   2.945  0.00  0.00    -0.057 S 
ATOM     10  C   UNL     1       2.063   1.778   1.361  0.00  0.00    +0.044 C 
ATOM     11  C   UNL     1       1.412   2.071  -0.000  0.00  0.00    +0.006 C 
ATOM     12  C   UNL     1      -0.019   1.525   0.010  0.00  0.00    +0.006 C 
ATOM     13  C   UNL     1       0.002  -0.004   0.002  0.00  0.00    +0.056 C 
ATOM     14  H   UNL     1       1.131  -4.071   2.958  0.00  0.00    +0.157 HD
ENDBRANCH   1   2
BRANCH   1  15
ATOM     15  S   UNL     1       3.936  -4.843   6.216  0.00  0.00    -0.096 S 
BRANCH  15  25
ATOM     16  C   UNL     1       4.662  -6.902   7.865  0.00  0.00    -0.015 A 
ATOM     17  C   UNL     1       4.581  -8.174   8.346  0.00  0.00    +0.016 A 
ATOM     18  C   UNL     1       3.647  -9.052   7.758  0.00  0.00    +0.001 A 
ATOM     19  C   UNL     1       3.515 -10.377   8.200  0.00  0.00    +0.010 A 
ATOM     20  C   UNL     1       2.603 -11.197   7.608  0.00  0.00    +0.001 A 
ATOM     21  C   UNL     1       1.797 -10.737   6.569  0.00  0.00    +0.002 A 
ATOM     22  C   UNL     1       1.899  -9.458   6.116  0.00  0.00    +0.028 A 
ATOM     23  C   UNL     1       2.829  -8.582   6.701  0.00  0.00    +0.072 A 
ATOM     24  N   UNL     1       2.950  -7.320   6.274  0.00  0.00    -0.240 NA
ATOM     25  C   UNL     1       3.821  -6.495   6.819  0.00  0.00    +0.101 A 
BRANCH  16  27
ATOM     26  C   UNL     1       4.959  -5.097   9.539  0.00  0.00    +0.009 C 
ATOM     27  C   UNL     1       5.651  -5.932   8.460  0.00  0.00    +0.034 C 
ENDBRANCH  16  27
ENDBRANCH  15  25
ENDBRANCH   1  15
TORSDOF 4
