REMARK  Name = ZINC08554971
REMARK  5 active torsions:
REMARK  status: ('A' for Active; 'I' for Inactive)
REMARK    1  A    between atoms: C_1  and  C_2
REMARK    2  A    between atoms: C_2  and  C_4
REMARK    3  A    between atoms: C_4  and  O_5
REMARK    4  A    between atoms: O_5  and  C_6
REMARK    5  A    between atoms: C_8  and  O_25
REMARK                            x       y       z     vdW  Elec       q    Type
REMARK                         _______ _______ _______ _____ _____    ______ ____
ROOT
ATOM      1  C   UNL     1       1.182   1.787   0.000  0.00  0.00    +0.128 A 
ATOM      2  C   UNL     1      -0.013   1.076   0.008  0.00  0.00    +0.092 A 
ATOM      3  C   UNL     1      -1.219   1.750   0.017  0.00  0.00    +0.135 A 
ATOM      4  C   UNL     1      -1.227   3.152   0.030  0.00  0.00    +0.106 A 
ATOM      5  C   UNL     1      -0.019   3.871   0.023  0.00  0.00    +0.146 A 
ATOM      6  C   UNL     1       1.181   3.173   0.007  0.00  0.00    +0.092 A 
ATOM      7  O   UNL     1      -0.015   5.219   0.030  0.00  0.00    -0.454 OA
ATOM      8  C   UNL     1      -1.136   5.968   0.045  0.00  0.00    +0.140 A 
ATOM      9  C   UNL     1      -1.037   7.367   0.052  0.00  0.00    +0.047 A 
ATOM     10  C   UNL     1      -2.135   8.162   0.068  0.00  0.00    +0.012 A 
ATOM     11  C   UNL     1      -3.432   7.613   0.077  0.00  0.00    -0.017 A 
ATOM     12  C   UNL     1      -4.572   8.431   0.094  0.00  0.00    +0.008 A 
ATOM     13  C   UNL     1      -5.811   7.863   0.103  0.00  0.00    +0.001 A 
ATOM     14  C   UNL     1      -5.963   6.480   0.096  0.00  0.00    +0.001 A 
ATOM     15  C   UNL     1      -4.877   5.655   0.079  0.00  0.00    +0.009 A 
ATOM     16  C   UNL     1      -3.591   6.206   0.070  0.00  0.00    -0.004 A 
ATOM     17  C   UNL     1      -2.397   5.369   0.054  0.00  0.00    +0.072 A 
ATOM     18  C   UNL     1      -2.495   3.901   0.046  0.00  0.00    +0.204 A 
ATOM     19  O   UNL     1      -3.573   3.333   0.054  0.00  0.00    -0.286 OA
ENDROOT
BRANCH   3  20
ATOM     20  O   UNL     1      -2.388   1.061   0.020  0.00  0.00    -0.506 OA
ATOM     21  H   UNL     1      -3.345   1.602   0.027  0.00  0.00    +0.292 HD
ENDBRANCH   3  20
BRANCH   1  22
ATOM     22  O   UNL     1       2.362   1.117  -0.014  0.00  0.00    -0.484 OA
BRANCH  22  23
ATOM     23  C   UNL     1       2.298  -0.310  -0.020  0.00  0.00    +0.302 C 
BRANCH  23  25
ATOM     24  C   UNL     1       3.903  -2.369  -0.044  0.00  0.00    +0.089 C 
ATOM     25  C   UNL     1       3.695  -0.876  -0.035  0.00  0.00    +0.167 C 
ATOM     26  O   UNL     1       4.647  -0.134  -0.040  0.00  0.00    -0.294 OA
ENDBRANCH  23  25
ENDBRANCH  22  23
ENDBRANCH   1  22
TORSDOF 4
