REMARK  Name = ZINC55026530
REMARK  3 active torsions:
REMARK  status: ('A' for Active; 'I' for Inactive)
REMARK    1  A    between atoms: C_6  and  N_7
REMARK    2  A    between atoms: N_7  and  C_8
REMARK    3  A    between atoms: C_8  and  C_18
REMARK                            x       y       z     vdW  Elec       q    Type
REMARK                         _______ _______ _______ _____ _____    ______ ____
ROOT
ATOM      1  C   UNL     1      -1.270  -2.182   0.060  0.00  0.00    +0.114 C 
ATOM      2  C   UNL     1      -0.629  -2.696   1.351  0.00  0.00    +0.022 C 
ATOM      3  C   UNL     1      -1.365  -2.107   2.555  0.00  0.00    +0.009 C 
ATOM      4  C   UNL     1      -2.835  -2.530   2.513  0.00  0.00    -0.010 C 
ATOM      5  C   UNL     1      -2.926  -4.057   2.555  0.00  0.00    +0.007 C 
ATOM      6  C   UNL     1      -2.190  -4.646   1.351  0.00  0.00    -0.010 C 
ATOM      7  C   UNL     1      -0.721  -4.222   1.393  0.00  0.00    +0.009 C 
ATOM      8  C   UNL     1      -2.832  -4.133   0.060  0.00  0.00    +0.009 C 
ATOM      9  C   UNL     1      -2.740  -2.606   0.017  0.00  0.00    +0.022 C 
ATOM     10  C   UNL     1      -3.476  -2.017   1.222  0.00  0.00    +0.009 C 
ENDROOT
BRANCH   1  11
ATOM     11  C   UNL     1      -0.545  -2.763  -1.127  0.00  0.00    +0.234 C 
ATOM     12  O   UNL     1      -1.005  -3.723  -1.708  0.00  0.00    -0.274 OA
ATOM     13  N   UNL     1       0.614  -2.215  -1.542  0.00  0.00    -0.328 N 
ATOM     14  H   UNL     1       0.945  -1.405  -1.124  0.00  0.00    +0.145 HD
ATOM     15  H   UNL     1       1.118  -2.631  -2.259  0.00  0.00    +0.145 HD
ENDBRANCH   1  11
BRANCH   1  16
ATOM     16  N   UNL     1      -1.183  -0.721   0.019  0.00  0.00    -0.330 N 
ATOM     17  H   UNL     1      -0.763  -0.239   0.749  0.00  0.00    +0.147 HD
BRANCH  16  23
ATOM     18  C   UNL     1      -1.755   1.368  -1.047  0.00  0.00    +0.024 A 
ATOM     19  C   UNL     1      -2.269   2.058  -2.127  0.00  0.00    +0.017 A 
ATOM     20  C   UNL     1      -2.733   1.368  -3.233  0.00  0.00    +0.018 A 
ATOM     21  C   UNL     1      -2.682  -0.014  -3.261  0.00  0.00    +0.017 A 
ATOM     22  C   UNL     1      -2.169  -0.710  -2.184  0.00  0.00    +0.024 A 
ATOM     23  C   UNL     1      -1.703  -0.020  -1.072  0.00  0.00    +0.028 A 
ATOM     24 BR   UNL     1      -3.437   2.317  -4.710  0.00  0.00    -0.050 Br
ENDBRANCH  16  23
ENDBRANCH   1  16
TORSDOF 3
