REMARK  Name = ZINC44834195
REMARK  10 active torsions:
REMARK  status: ('A' for Active; 'I' for Inactive)
REMARK    1  A    between atoms: C_1  and  C_2
REMARK    2  A    between atoms: C_2  and  C_3
REMARK    3  A    between atoms: C_3  and  C_4
REMARK    4  A    between atoms: C_4  and  C_5
REMARK    5  A    between atoms: C_4  and  C_8
REMARK    6  A    between atoms: C_4  and  C_11
REMARK    7  A    between atoms: C_5  and  C_6
REMARK    8  A    between atoms: C_6  and  C_7
REMARK    9  A    between atoms: C_8  and  N_10
REMARK   10  A    between atoms: N_13  and  C_14
REMARK                            x       y       z     vdW  Elec       q    Type
REMARK                         _______ _______ _______ _____ _____    ______ ____
ROOT
ATOM      1  C   UNL     1      -1.417  -2.069   0.004  0.00  0.00    +0.091 C 
ENDROOT
BRANCH   1   2
ATOM      2  C   UNL     1      -0.706  -2.548  -1.235  0.00  0.00    +0.229 C 
ATOM      3  O   UNL     1       0.295  -3.225  -1.137  0.00  0.00    -0.274 OA
ATOM      4  N   UNL     1      -1.184  -2.224  -2.453  0.00  0.00    -0.285 N 
ATOM      5  H   UNL     1      -2.020  -1.739  -2.533  0.00  0.00    +0.155 HD
BRANCH   4   6
ATOM      6  C   UNL     1      -0.472  -2.586  -3.603  0.00  0.00    +0.033 A 
ATOM      7  C   UNL     1      -0.461  -1.744  -4.707  0.00  0.00    +0.024 A 
ATOM      8  C   UNL     1       0.243  -2.104  -5.840  0.00  0.00    +0.016 A 
ATOM      9  C   UNL     1       0.935  -3.301  -5.876  0.00  0.00    +0.013 A 
ATOM     10  C   UNL     1       0.925  -4.141  -4.777  0.00  0.00    +0.016 A 
ATOM     11  C   UNL     1       0.228  -3.784  -3.639  0.00  0.00    +0.024 A 
ATOM     12  I   UNL     1       1.999  -3.843  -7.597  0.00  0.00    -0.044 I 
ENDBRANCH   4   6
ENDBRANCH   1   2
BRANCH   1  13
ATOM     13  C   UNL     1      -2.827  -2.601   0.013  0.00  0.00    +0.061 C 
ATOM     14  S   UNL     1      -4.063  -1.587   0.030  0.00  0.00    -0.040 S 
BRANCH  13  15
ATOM     15  N   UNL     1      -3.046  -3.930   0.005  0.00  0.00    -0.355 N 
ATOM     16  H   UNL     1      -2.295  -4.545  -0.005  0.00  0.00    +0.143 HD
ATOM     17  H   UNL     1      -3.953  -4.273   0.011  0.00  0.00    +0.143 HD
ENDBRANCH  13  15
ENDBRANCH   1  13
BRANCH   1  18
ATOM     18  C   UNL     1      -1.448  -0.539   0.015  0.00  0.00    +0.022 C 
BRANCH  18  20
ATOM     19  C   UNL     1      -0.048   1.530   0.018  0.00  0.00    +0.004 C 
ATOM     20  C   UNL     1      -0.017   0.001   0.007  0.00  0.00    -0.002 C 
ENDBRANCH  18  20
ENDBRANCH   1  18
BRANCH   1  21
ATOM     21  C   UNL     1      -0.674  -2.572   1.244  0.00  0.00    +0.022 C 
BRANCH  21  22
ATOM     22  C   UNL     1      -1.396  -2.086   2.503  0.00  0.00    -0.002 C 
ATOM     23  C   UNL     1      -0.653  -2.590   3.742  0.00  0.00    +0.004 C 
ENDBRANCH  21  22
ENDBRANCH   1  21
TORSDOF 8
