REMARK  Name = ZINC22014951
REMARK  11 active torsions:
REMARK  status: ('A' for Active; 'I' for Inactive)
REMARK    1  A    between atoms: C_1  and  C_2
REMARK    2  A    between atoms: C_2  and  C_3
REMARK    3  A    between atoms: C_5  and  C_28
REMARK    4  A    between atoms: C_6  and  C_11
REMARK    5  A    between atoms: C_11  and  N_12
REMARK    6  A    between atoms: N_12  and  C_13
REMARK    7  A    between atoms: N_12  and  C_23
REMARK    8  A    between atoms: C_13  and  C_14
REMARK    9  A    between atoms: C_28  and  O_30
REMARK   10  A    between atoms: O_30  and  C_31
REMARK   11  A    between atoms: C_31  and  C_32
REMARK                            x       y       z     vdW  Elec       q    Type
REMARK                         _______ _______ _______ _____ _____    ______ ____
ROOT
ATOM      1  C   UNL     1       3.253  -0.684   0.937  0.00  0.00    -0.026 C 
ENDROOT
BRANCH   1   4
ATOM      2  C   UNL     1       3.941   2.700   2.651  0.00  0.00    +0.113 C 
ATOM      3  C   UNL     1       3.205   1.519   2.052  0.00  0.00    +0.072 C 
ATOM      4  C   UNL     1       3.945   0.513   1.536  0.00  0.00    +0.007 C 
ATOM      5  N   UNL     1       5.310   0.566   1.544  0.00  0.00    -0.274 N 
ATOM      6  C   UNL     1       6.010   1.584   2.060  0.00  0.00    +0.304 C 
ATOM      7  O   UNL     1       7.224   1.539   2.026  0.00  0.00    -0.253 OA
ATOM      8  N   UNL     1       5.413   2.657   2.615  0.00  0.00    -0.292 N 
ATOM      9  H   UNL     1       5.895  -0.258   1.111  0.00  0.00    +0.156 HD
ATOM     10  H   UNL     1       5.997   3.489   3.036  0.00  0.00    +0.151 HD
BRANCH   2  12
ATOM     11  C   UNL     1       4.117   5.191   2.570  0.00  0.00    +0.006 C 
ATOM     12  C   UNL     1       3.489   3.961   1.911  0.00  0.00    +0.024 C 
ENDBRANCH   2  12
BRANCH   3  13
ATOM     13  C   UNL     1       1.792   1.468   2.038  0.00  0.00    +0.338 C 
ATOM     14  O   UNL     1       1.166   2.142   1.242  0.00  0.00    -0.245 OA
BRANCH  13  15
ATOM     15  O   UNL     1       1.137   0.676   2.913  0.00  0.00    -0.462 OA
BRANCH  15  16
ATOM     16  C   UNL     1      -0.291   0.678   2.847  0.00  0.00    +0.229 C 
ATOM     17  C   UNL     1      -0.852  -0.273   3.906  0.00  0.00    +0.048 C 
ENDBRANCH  15  16
ENDBRANCH  13  15
ENDBRANCH   3  13
ENDBRANCH   1   4
BRANCH   1  18
ATOM     18  N   UNL     1       3.605  -0.791  -0.485  0.00  0.00    +0.388 N 
ATOM     19  H   UNL     1       4.689  -0.632  -0.578  0.00  0.00    -0.080 HD
BRANCH  18  20
ATOM     20  C   UNL     1       2.927   0.246  -1.275  0.00  0.00    -0.068 C 
ATOM     21  C   UNL     1       3.201   0.029  -2.778  0.00  0.00    -0.015 C 
ATOM     22  C   UNL     1       3.339   1.463  -3.349  0.00  0.00    -0.002 C 
ATOM     23  C   UNL     1       4.090   2.211  -2.219  0.00  0.00    -0.002 C 
ATOM     24  C   UNL     1       3.492   1.633  -0.920  0.00  0.00    -0.015 C 
ENDBRANCH  18  20
BRANCH  18  25
ATOM     25  C   UNL     1       3.300  -2.131  -1.004  0.00  0.00    -0.042 C 
BRANCH  25  26
ATOM     26  C   UNL     1       4.161  -2.412  -2.208  0.00  0.00    -0.060 A 
ATOM     27  C   UNL     1       5.523  -2.596  -2.054  0.00  0.00    +0.005 A 
ATOM     28  C   UNL     1       6.317  -2.854  -3.155  0.00  0.00    +0.050 A 
ATOM     29  C   UNL     1       5.750  -2.929  -4.417  0.00  0.00    +0.166 A 
ATOM     30  C   UNL     1       4.379  -2.744  -4.572  0.00  0.00    +0.166 A 
ATOM     31  C   UNL     1       3.588  -2.492  -3.463  0.00  0.00    +0.051 A 
ATOM     32  O   UNL     1       4.069  -2.866  -5.896  0.00  0.00    -0.453 OA
ATOM     33  C   UNL     1       5.197  -3.530  -6.495  0.00  0.00    +0.466 C 
ATOM     34  O   UNL     1       6.300  -3.166  -5.644  0.00  0.00    -0.453 OA
ENDBRANCH  25  26
ENDBRANCH  18  25
ENDBRANCH   1  18
TORSDOF 9
