REMARK  Name = ZINC16240338
REMARK  6 active torsions:
REMARK  status: ('A' for Active; 'I' for Inactive)
REMARK    1  A    between atoms: C_1  and  C_2
REMARK    2  A    between atoms: C_8  and  N_10
REMARK    3  A    between atoms: N_10  and  C_11
REMARK    4  A    between atoms: C_11  and  N_13
REMARK    5  A    between atoms: N_13  and  N_14
REMARK    6  A    between atoms: C_15  and  C_17
REMARK                            x       y       z     vdW  Elec       q    Type
REMARK                         _______ _______ _______ _____ _____    ______ ____
ROOT
ATOM      1  N   UNL     1       1.187   2.061   0.002  0.00  0.00    -0.246 N 
ATOM      2  H   UNL     1       2.034   1.587  -0.009  0.00  0.00    +0.172 HD
ENDROOT
BRANCH   1   3
ATOM      3  N   UNL     1      -0.016   1.344   0.009  0.00  0.00    -0.231 N 
ATOM      4  C   UNL     1       0.002  -0.004   0.002  0.00  0.00    +0.262 C 
ATOM      5  O   UNL     1       1.063  -0.598  -0.011  0.00  0.00    -0.269 OA
ATOM      6  H   UNL     1      -0.863   1.817   0.016  0.00  0.00    +0.173 HD
BRANCH   4   7
ATOM      7  C   UNL     1      -1.267  -0.760   0.010  0.00  0.00    +0.057 A 
ATOM      8  C   UNL     1      -2.487  -0.081   0.031  0.00  0.00    +0.016 A 
ATOM      9  C   UNL     1      -3.668  -0.792   0.032  0.00  0.00    +0.021 A 
ATOM     10  C   UNL     1      -3.647  -2.178   0.025  0.00  0.00    +0.042 A 
ATOM     11  C   UNL     1      -2.442  -2.857   0.010  0.00  0.00    +0.040 A 
ATOM     12  C   UNL     1      -1.251  -2.157   0.002  0.00  0.00    +0.054 A 
ATOM     13 CL   UNL     1       0.260  -3.011  -0.017  0.00  0.00    -0.083 Cl
ATOM     14 CL   UNL     1      -5.140  -3.065   0.034  0.00  0.00    -0.083 Cl
ENDBRANCH   4   7
ENDBRANCH   1   3
BRANCH   1  15
ATOM     15  C   UNL     1       1.169   3.408   0.009  0.00  0.00    +0.147 C 
ATOM     16  S   UNL     1       2.640   4.284  -0.000  0.00  0.00    -0.017 S 
BRANCH  15  17
ATOM     17  N   UNL     1      -0.007   4.066   0.024  0.00  0.00    -0.322 N 
ATOM     18  H   UNL     1      -0.840   3.570   0.029  0.00  0.00    +0.148 HD
BRANCH  17  25
ATOM     19  C   UNL     1      -1.440   5.500   2.092  0.00  0.00    +0.009 C 
ATOM     20  C   UNL     1      -1.335   6.020   0.657  0.00  0.00    +0.006 C 
ATOM     21  C   UNL     1      -1.356   7.550   0.665  0.00  0.00    +0.005 C 
ATOM     22  C   UNL     1      -1.251   8.069  -0.770  0.00  0.00    +0.000 C 
ATOM     23  C   UNL     1       0.057   7.580  -1.395  0.00  0.00    +0.002 C 
ATOM     24  C   UNL     1       0.078   6.050  -1.403  0.00  0.00    +0.022 C 
ATOM     25  C   UNL     1      -0.027   5.531   0.032  0.00  0.00    +0.075 C 
ENDBRANCH  17  25
ENDBRANCH  15  17
ENDBRANCH   1  15
TORSDOF 5
