REMARK  Name = ZINC02146843
REMARK  10 active torsions:
REMARK  status: ('A' for Active; 'I' for Inactive)
REMARK    1  A    between atoms: C_1  and  C_2
REMARK    2  A    between atoms: C_2  and  N_67
REMARK    3  A    between atoms: C_3  and  C_4
REMARK    4  A    between atoms: C_3  and  N_67
REMARK    5  A    between atoms: C_5  and  C_6
REMARK    6  A    between atoms: C_5  and  N_67
REMARK    7  A    between atoms: C_6  and  C_7
REMARK    8  A    between atoms: C_7  and  N_8
REMARK    9  A    between atoms: C_28  and  C_30
REMARK   10  A    between atoms: C_34  and  N_36
REMARK                            x       y       z     vdW  Elec       q    Type
REMARK                         _______ _______ _______ _____ _____    ______ ____
ROOT
ATOM      1  N   UNL     1       1.919   2.048   1.333  0.00  0.00    -0.291 N 
ATOM      2  C   UNL     1       0.864   3.038   1.476  0.00  0.00    +0.203 C 
ATOM      3  C   UNL     1      -0.493   2.444   1.278  0.00  0.00    +0.234 C 
ATOM      4  O   UNL     1      -1.453   3.176   1.396  0.00  0.00    -0.274 OA
ATOM      5  N   UNL     1      -0.720   1.165   0.974  0.00  0.00    -0.276 N 
ATOM      6  C   UNL     1       0.350   0.200   0.726  0.00  0.00    +0.167 C 
ATOM      7  C   UNL     1       1.702   0.776   1.002  0.00  0.00    +0.237 C 
ATOM      8  O   UNL     1       2.661   0.039   0.920  0.00  0.00    -0.274 OA
ATOM      9  C   UNL     1       0.279  -0.266  -0.735  0.00  0.00    +0.069 C 
ATOM     10  C   UNL     1      -1.156  -0.575  -1.077  0.00  0.00    -0.015 A 
ATOM     11  C   UNL     1      -1.667  -1.350  -2.190  0.00  0.00    +0.003 A 
ATOM     12  C   UNL     1      -1.039  -2.025  -3.241  0.00  0.00    +0.010 A 
ATOM     13  C   UNL     1      -1.853  -2.670  -4.139  0.00  0.00    +0.001 A 
ATOM     14  C   UNL     1      -3.233  -2.659  -4.020  0.00  0.00    +0.002 A 
ATOM     15  C   UNL     1      -3.881  -2.000  -2.990  0.00  0.00    +0.026 A 
ATOM     16  C   UNL     1      -3.079  -1.336  -2.063  0.00  0.00    +0.047 A 
ATOM     17  N   UNL     1      -3.379  -0.606  -0.949  0.00  0.00    -0.356 N 
ATOM     18  H   UNL     1      -4.275  -0.432  -0.620  0.00  0.00    +0.166 HD
ATOM     19  C   UNL     1      -2.225  -0.155  -0.366  0.00  0.00    +0.046 A 
ATOM     20  C   UNL     1      -2.115   0.684   0.886  0.00  0.00    +0.154 C 
ENDROOT
BRANCH  20  21
ATOM     21  C   UNL     1      -3.057   1.858   0.801  0.00  0.00    -0.019 A 
ATOM     22  C   UNL     1      -3.059   2.662  -0.324  0.00  0.00    +0.006 A 
ATOM     23  C   UNL     1      -3.923   3.738  -0.402  0.00  0.00    +0.003 A 
ATOM     24  C   UNL     1      -4.785   4.011   0.644  0.00  0.00    +0.033 A 
ATOM     25  C   UNL     1      -4.783   3.206   1.768  0.00  0.00    +0.127 A 
ATOM     26  C   UNL     1      -3.922   2.127   1.845  0.00  0.00    +0.038 A 
BRANCH  25  27
ATOM     27  N   UNL     1      -5.706   3.498   2.888  0.00  0.00    +0.056 N 
ATOM     28  O   UNL     1      -6.466   4.447   2.819  0.00  0.00    -0.126 OA
ATOM     29  O   UNL     1      -5.704   2.789   3.879  0.00  0.00    -0.126 OA
ENDBRANCH  25  27
ENDBRANCH  20  21
BRANCH   1  30
ATOM     30  C   UNL     1       3.301   2.474   1.566  0.00  0.00    +0.106 C 
BRANCH  30  31
ATOM     31  C   UNL     1       3.913   2.963   0.252  0.00  0.00    +0.000 C 
BRANCH  31  32
ATOM     32  C   UNL     1       5.356   3.408   0.496  0.00  0.00    -0.077 C 
BRANCH  32  33
ATOM     33  N   UNL     1       5.939   3.856  -0.786  0.00  0.00    +0.379 N 
ATOM     34  H   UNL     1       5.794   3.126  -1.493  0.00  0.00    -0.082 HD
BRANCH  33  36
ATOM     35  C   UNL     1       5.435   6.201  -0.188  0.00  0.00    -0.017 C 
ATOM     36  C   UNL     1       5.276   5.098  -1.236  0.00  0.00    -0.082 C 
ENDBRANCH  33  36
BRANCH  33  37
ATOM     37  C   UNL     1       7.391   4.088  -0.627  0.00  0.00    -0.082 C 
ATOM     38  C   UNL     1       8.004   4.342  -2.005  0.00  0.00    -0.017 C 
ENDBRANCH  33  37
ENDBRANCH  32  33
ENDBRANCH  31  32
ENDBRANCH  30  31
ENDBRANCH   1  30
TORSDOF 8
