REMARK  Name = ZINC40160464
REMARK  4 active torsions:
REMARK  status: ('A' for Active; 'I' for Inactive)
REMARK    1  A    between atoms: C_1  and  C_2
REMARK    2  A    between atoms: N_4  and  C_5
REMARK    3  A    between atoms: C_14  and  C_17
REMARK    4  A    between atoms: N_19  and  C_20
REMARK                            x       y       z     vdW  Elec       q    Type
REMARK                         _______ _______ _______ _____ _____    ______ ____
ROOT
ATOM      1  C   UNL     1      -3.964  -4.740   0.017  0.00  0.00    +0.223 C 
ATOM      2  O   UNL     1      -4.896  -3.964   0.039  0.00  0.00    -0.275 OA
ATOM      3  N   UNL     1      -4.193  -6.068   0.009  0.00  0.00    -0.285 N 
ATOM      4  H   UNL     1      -3.451  -6.687  -0.076  0.00  0.00    +0.155 HD
ENDROOT
BRANCH   3   5
ATOM      5  C   UNL     1      -5.502  -6.554   0.125  0.00  0.00    +0.036 A 
ATOM      6  C   UNL     1      -6.555  -5.855  -0.461  0.00  0.00    +0.025 A 
ATOM      7  C   UNL     1      -7.846  -6.323  -0.357  0.00  0.00    +0.030 A 
ATOM      8  C   UNL     1      -8.102  -7.500   0.335  0.00  0.00    +0.069 A 
ATOM      9  C   UNL     1      -7.047  -8.208   0.932  0.00  0.00    +0.091 A 
ATOM     10  C   UNL     1      -5.740  -7.727   0.815  0.00  0.00    +0.053 A 
ATOM     11  N   UNL     1      -7.592  -9.295   1.536  0.00  0.00    -0.232 NA
ATOM     12  C   UNL     1      -8.882  -9.303   1.350  0.00  0.00    +0.111 A 
ATOM     13  N   UNL     1      -9.248  -8.222   0.608  0.00  0.00    -0.328 N 
ATOM     14  C   UNL     1     -10.606  -7.890   0.169  0.00  0.00    +0.123 C 
ATOM     15  C   UNL     1     -11.620  -8.457   1.163  0.00  0.00    +0.022 C 
ATOM     16  C   UNL     1     -12.006  -9.876   0.749  0.00  0.00    +0.002 C 
ATOM     17  C   UNL     1     -10.782 -10.786   0.763  0.00  0.00    +0.008 C 
ATOM     18  C   UNL     1      -9.832 -10.351   1.881  0.00  0.00    +0.074 C 
ENDBRANCH   3   5
BRANCH   1  26
ATOM     19  C   UNL     1      -1.136  -2.159  -0.010  0.00  0.00    +0.036 C 
ATOM     20  C   UNL     1      -0.387  -2.670   1.223  0.00  0.00    +0.029 C 
ATOM     21  C   UNL     1      -0.366  -4.199   1.210  0.00  0.00    -0.008 C 
ATOM     22  C   UNL     1       0.341  -4.689  -0.056  0.00  0.00    +0.007 C 
ATOM     23  C   UNL     1      -0.408  -4.179  -1.288  0.00  0.00    -0.008 C 
ATOM     24  C   UNL     1      -0.429  -2.649  -1.275  0.00  0.00    +0.029 C 
ATOM     25  C   UNL     1      -1.844  -4.708  -1.268  0.00  0.00    +0.020 C 
ATOM     26  C   UNL     1      -2.550  -4.218  -0.003  0.00  0.00    +0.050 C 
ATOM     27  C   UNL     1      -1.801  -4.729   1.230  0.00  0.00    +0.020 C 
ATOM     28  C   UNL     1      -2.571  -2.688   0.010  0.00  0.00    +0.042 C 
BRANCH  19  32
ATOM     29  C   UNL     1      -0.017   1.502   0.002  0.00  0.00    +0.109 C 
ATOM     30  C   UNL     1       0.003  -0.004  -0.011  0.00  0.00    +0.210 C 
ATOM     31  O   UNL     1       1.061  -0.597  -0.034  0.00  0.00    -0.276 OA
ATOM     32  N   UNL     1      -1.155  -0.694   0.003  0.00  0.00    -0.310 N 
ATOM     33  H   UNL     1      -2.002  -0.221   0.021  0.00  0.00    +0.149 HD
ENDBRANCH  19  32
ENDBRANCH   1  26
TORSDOF 3
