REMARK  Name = ZINC60943444
REMARK  8 active torsions:
REMARK  status: ('A' for Active; 'I' for Inactive)
REMARK    1  A    between atoms: C_1  and  C_2
REMARK    2  A    between atoms: C_3  and  C_13
REMARK    3  A    between atoms: C_4  and  C_12
REMARK    4  A    between atoms: C_9  and  C_10
REMARK    5  A    between atoms: C_13  and  C_14
REMARK    6  A    between atoms: C_14  and  C_15
REMARK    7  A    between atoms: N_17  and  C_18
REMARK    8  A    between atoms: C_21  and  N_24
REMARK                            x       y       z     vdW  Elec       q    Type
REMARK                         _______ _______ _______ _____ _____    ______ ____
ROOT
ATOM      1  C   UNL     1      -2.894   0.338   1.455  0.00  0.00    +0.101 C 
ENDROOT
BRANCH   1   2
ATOM      2  C   UNL     1      -4.211   1.071   1.465  0.00  0.00    +0.218 C 
ATOM      3  O   UNL     1      -4.787   1.296   0.421  0.00  0.00    -0.275 OA
ATOM      4  N   UNL     1      -4.748   1.477   2.632  0.00  0.00    -0.285 N 
ATOM      5  H   UNL     1      -4.322   1.239   3.471  0.00  0.00    +0.155 HD
BRANCH   4   6
ATOM      6  C   UNL     1      -5.920   2.241   2.635  0.00  0.00    +0.034 A 
ATOM      7  C   UNL     1      -6.101   3.235   3.588  0.00  0.00    +0.025 A 
ATOM      8  C   UNL     1      -7.259   3.987   3.588  0.00  0.00    +0.034 A 
ATOM      9  C   UNL     1      -8.238   3.752   2.640  0.00  0.00    +0.126 A 
ATOM     10  C   UNL     1      -8.062   2.763   1.690  0.00  0.00    +0.034 A 
ATOM     11  C   UNL     1      -6.903   2.011   1.681  0.00  0.00    +0.025 A 
BRANCH   9  12
ATOM     12  N   UNL     1      -9.479   4.560   2.643  0.00  0.00    +0.056 N 
ATOM     13  O   UNL     1      -9.634   5.425   3.474  0.00  0.00    -0.126 OA
ATOM     14  O   UNL     1     -10.335   4.355   1.816  0.00  0.00    -0.126 OA
ENDBRANCH   9  12
ENDBRANCH   4   6
ENDBRANCH   1   2
BRANCH   1  15
ATOM     15  C   UNL     1      -2.512  -0.006   0.014  0.00  0.00    +0.046 C 
BRANCH  15  18
ATOM     16  C   UNL     1      -0.011   1.486   0.024  0.00  0.00    +0.045 C 
ATOM     17  C   UNL     1       0.001  -0.021   0.010  0.00  0.00    -0.023 A 
ATOM     18  C   UNL     1      -1.196  -0.739   0.005  0.00  0.00    -0.024 A 
ATOM     19  C   UNL     1      -1.176  -2.096  -0.007  0.00  0.00    +0.019 A 
ATOM     20  N   UNL     1      -0.007  -2.781  -0.015  0.00  0.00    -0.325 N 
ATOM     21  H   UNL     1      -0.023  -3.751  -0.024  0.00  0.00    +0.169 HD
ATOM     22  C   UNL     1       1.176  -2.138  -0.012  0.00  0.00    +0.267 A 
ATOM     23  O   UNL     1       2.217  -2.772  -0.020  0.00  0.00    -0.266 OA
ATOM     24  C   UNL     1       1.206  -0.719  -0.005  0.00  0.00    +0.119 A 
ATOM     25  C   UNL     1      -2.478  -2.854  -0.011  0.00  0.00    +0.063 C 
BRANCH  24  26
ATOM     26  C   UNL     1       2.454  -0.017  -0.007  0.00  0.00    +0.105 C 
ATOM     27  N   UNL     1       3.445   0.540  -0.008  0.00  0.00    -0.191 NA
ENDBRANCH  24  26
ENDBRANCH  15  18
ENDBRANCH   1  15
TORSDOF 6
