REMARK  Name = ZINC48760047
REMARK  7 active torsions:
REMARK  status: ('A' for Active; 'I' for Inactive)
REMARK    1  A    between atoms: C_1  and  C_2
REMARK    2  A    between atoms: C_2  and  C_3
REMARK    3  A    between atoms: C_3  and  C_5
REMARK    4  A    between atoms: C_3  and  C_6
REMARK    5  A    between atoms: C_11  and  O_12
REMARK    6  A    between atoms: O_12  and  C_13
REMARK    7  A    between atoms: C_14  and  N_20
REMARK                            x       y       z     vdW  Elec       q    Type
REMARK                         _______ _______ _______ _____ _____    ______ ____
ROOT
ATOM      1  O   UNL     1      -0.450  -1.890   3.400  0.00  0.00    -0.436 OA
ENDROOT
BRANCH   1   2
ATOM      2  C   UNL     1      -1.670  -1.323   3.225  0.00  0.00    +0.251 A 
ATOM      3  C   UNL     1      -2.175  -0.465   4.194  0.00  0.00    +0.189 A 
ATOM      4  C   UNL     1      -3.421   0.106   4.003  0.00  0.00    +0.055 A 
ATOM      5  C   UNL     1      -4.122  -0.203   2.844  0.00  0.00    +0.038 A 
ATOM      6  C   UNL     1      -3.557  -1.065   1.923  0.00  0.00    +0.130 A 
ATOM      7  N   UNL     1      -2.364  -1.589   2.131  0.00  0.00    -0.218 NA
ATOM      8 BR   UNL     1      -5.829   0.547   2.530  0.00  0.00    -0.049 Br
BRANCH   3   9
ATOM      9  N   UNL     1      -1.392  -0.166   5.413  0.00  0.00    +0.062 N 
ATOM     10  O   UNL     1      -1.839   0.582   6.251  0.00  0.00    -0.126 OA
ATOM     11  O   UNL     1      -0.304  -0.670   5.572  0.00  0.00    -0.126 OA
ENDBRANCH   3   9
ENDBRANCH   1   2
BRANCH   1  17
ATOM     12  C   UNL     1       0.761  -2.038   1.358  0.00  0.00    -0.002 A 
ATOM     13  C   UNL     1       1.279  -2.806   0.333  0.00  0.00    +0.007 A 
ATOM     14  C   UNL     1       1.090  -4.175   0.330  0.00  0.00    +0.001 A 
ATOM     15  C   UNL     1       0.382  -4.780   1.353  0.00  0.00    +0.004 A 
ATOM     16  C   UNL     1      -0.137  -4.017   2.380  0.00  0.00    +0.046 A 
ATOM     17  C   UNL     1       0.056  -2.642   2.388  0.00  0.00    +0.134 A 
BRANCH  12  18
ATOM     18  C   UNL     1       0.968  -0.545   1.360  0.00  0.00    +0.019 C 
ATOM     19  C   UNL     1       2.466  -0.237   1.381  0.00  0.00    +0.012 C 
BRANCH  18  21
ATOM     20  C   UNL     1       0.441   1.584   0.163  0.00  0.00    +0.004 C 
ATOM     21  C   UNL     1       0.342   0.058   0.101  0.00  0.00    +0.004 C 
ENDBRANCH  18  21
ENDBRANCH  12  18
ENDBRANCH   1  17
TORSDOF 5
