REMARK  Name = ZINC16502516
REMARK  9 active torsions:
REMARK  status: ('A' for Active; 'I' for Inactive)
REMARK    1  A    between atoms: C_1  and  C_2
REMARK    2  A    between atoms: C_2  and  N_3
REMARK    3  A    between atoms: C_4  and  C_31
REMARK    4  A    between atoms: C_10  and  C_12
REMARK    5  A    between atoms: N_14  and  N_15
REMARK    6  A    between atoms: C_16  and  C_18
REMARK    7  A    between atoms: C_18  and  O_19
REMARK    8  A    between atoms: O_19  and  C_20
REMARK    9  A    between atoms: C_25  and  C_26
REMARK                            x       y       z     vdW  Elec       q    Type
REMARK                         _______ _______ _______ _____ _____    ______ ____
ROOT
ATOM      1  N   UNL     1       1.557  -5.558   2.565  0.00  0.00    -0.231 N 
ATOM      2  C   UNL     1       1.337  -4.363   1.982  0.00  0.00    +0.267 C 
ATOM      3  O   UNL     1       2.244  -3.784   1.424  0.00  0.00    -0.271 OA
ATOM      4  H   UNL     1       0.831  -6.021   3.011  0.00  0.00    +0.173 HD
ENDROOT
BRANCH   1   7
ATOM      5  C   UNL     1       3.055  -7.327   3.108  0.00  0.00    +0.260 C 
ATOM      6  O   UNL     1       2.145  -7.907   3.668  0.00  0.00    -0.269 OA
ATOM      7  N   UNL     1       2.835  -6.131   2.526  0.00  0.00    -0.230 N 
ATOM      8  H   UNL     1       3.561  -5.668   2.079  0.00  0.00    +0.173 HD
BRANCH   5  16
ATOM      9  N   UNL     1       8.059  -9.837   3.097  0.00  0.00    -0.328 N 
ATOM     10  C   UNL     1       7.692 -10.947   3.793  0.00  0.00    +0.108 A 
ATOM     11  N   UNL     1       6.431 -10.885   4.103  0.00  0.00    -0.233 NA
ATOM     12  C   UNL     1       5.902  -9.728   3.625  0.00  0.00    +0.090 A 
ATOM     13  C   UNL     1       6.942  -9.040   2.973  0.00  0.00    +0.069 A 
ATOM     14  C   UNL     1       6.698  -7.808   2.377  0.00  0.00    +0.029 A 
ATOM     15  C   UNL     1       5.449  -7.260   2.422  0.00  0.00    +0.015 A 
ATOM     16  C   UNL     1       4.402  -7.931   3.067  0.00  0.00    +0.040 A 
ATOM     17  C   UNL     1       4.629  -9.162   3.674  0.00  0.00    +0.043 A 
ATOM     18  C   UNL     1       8.614 -12.084   4.153  0.00  0.00    +0.086 C 
BRANCH   9  20
ATOM     19  C   UNL     1      10.198  -8.777   3.629  0.00  0.00    +0.027 C 
ATOM     20  C   UNL     1       9.396  -9.543   2.575  0.00  0.00    +0.120 C 
ENDBRANCH   9  20
ENDBRANCH   5  16
ENDBRANCH   1   7
BRANCH   2  21
ATOM     21  C   UNL     1      -0.038  -3.746   2.025  0.00  0.00    +0.326 C 
BRANCH  21  22
ATOM     22  O   UNL     1      -0.017  -2.490   1.344  0.00  0.00    -0.482 OA
BRANCH  22  23
ATOM     23  C   UNL     1      -1.186  -1.798   1.290  0.00  0.00    +0.126 A 
ATOM     24  C   UNL     1      -2.328  -2.316   1.883  0.00  0.00    +0.046 A 
ATOM     25  C   UNL     1      -3.515  -1.614   1.822  0.00  0.00    +0.004 A 
ATOM     26  C   UNL     1      -3.566  -0.393   1.174  0.00  0.00    +0.001 A 
ATOM     27  C   UNL     1      -2.428   0.127   0.586  0.00  0.00    +0.009 A 
ATOM     28  C   UNL     1      -1.238  -0.572   0.644  0.00  0.00    +0.017 A 
BRANCH  28  29
ATOM     29  C   UNL     1       0.002  -0.004   0.002  0.00  0.00    +0.137 C 
ATOM     30  S   UNL     1      -0.023   1.841   0.012  0.00  0.00    -0.141 S 
ATOM     31  C   UNL     1       1.770   2.228  -0.003  0.00  0.00    +0.081 C 
ATOM     32  C   UNL     1       2.457   1.231   0.946  0.00  0.00    +0.081 C 
ATOM     33  S   UNL     1       1.491  -0.312   1.037  0.00  0.00    -0.141 S 
ENDBRANCH  28  29
ENDBRANCH  22  23
ENDBRANCH  21  22
ENDBRANCH   2  21
TORSDOF 7
