REMARK  Name = ZINC43551175
REMARK  7 active torsions:
REMARK  status: ('A' for Active; 'I' for Inactive)
REMARK    1  A    between atoms: C_1  and  C_2
REMARK    2  A    between atoms: C_3  and  C_21
REMARK    3  A    between atoms: N_10  and  C_11
REMARK    4  A    between atoms: C_11  and  C_13
REMARK    5  A    between atoms: C_11  and  C_18
REMARK    6  A    between atoms: C_18  and  C_19
REMARK    7  A    between atoms: C_18  and  C_20
REMARK                            x       y       z     vdW  Elec       q    Type
REMARK                         _______ _______ _______ _____ _____    ______ ____
ROOT
ATOM      1  C   UNL     1      -0.018   1.503   0.010  0.00  0.00    +0.066 C 
ATOM      2  C   UNL     1       0.002  -0.004   0.002  0.00  0.00    +0.050 A 
ATOM      3  C   UNL     1       0.006  -0.706  -1.158  0.00  0.00    +0.011 A 
ATOM      4  S   UNL     1       0.032  -2.378  -0.535  0.00  0.00    -0.057 S 
ATOM      5  C   UNL     1       0.036  -2.015   1.109  0.00  0.00    +0.166 A 
ATOM      6  N   UNL     1       0.023  -0.700   1.124  0.00  0.00    -0.230 NA
ATOM      7  N   UNL     1       0.054  -2.892   2.187  0.00  0.00    -0.248 N 
ATOM      8  C   UNL     1       0.053  -2.411   3.446  0.00  0.00    +0.306 C 
ATOM      9  O   UNL     1       0.038  -1.210   3.639  0.00  0.00    -0.252 OA
ATOM     10  N   UNL     1       0.071  -3.261   4.492  0.00  0.00    -0.292 N 
ATOM     11  C   UNL     1      -0.009  -0.210  -2.581  0.00  0.00    +0.053 C 
ATOM     12  H   UNL     1       0.066  -3.849   2.034  0.00  0.00    +0.158 HD
ATOM     13  H   UNL     1       0.083  -4.218   4.339  0.00  0.00    +0.151 HD
ENDROOT
BRANCH  10  14
ATOM     14  C   UNL     1       0.070  -2.738   5.861  0.00  0.00    +0.114 C 
BRANCH  14  15
ATOM     15  C   UNL     1       0.690  -3.754   6.786  0.00  0.00    +0.010 A 
ATOM     16  C   UNL     1       1.528  -3.555   7.833  0.00  0.00    +0.013 A 
ATOM     17  C   UNL     1       1.976  -4.649   8.550  0.00  0.00    +0.008 A 
ATOM     18  C   UNL     1       1.563  -5.888   8.185  0.00  0.00    +0.045 A 
ATOM     19  S   UNL     1       0.504  -5.529   6.793  0.00  0.00    -0.100 S 
ENDBRANCH  14  15
BRANCH  14  20
ATOM     20  C   UNL     1      -1.369  -2.459   6.300  0.00  0.00    +0.008 C 
ATOM     21  C   UNL     1      -1.997  -1.428   5.360  0.00  0.00    +0.009 C 
ATOM     22  C   UNL     1      -2.178  -3.756   6.249  0.00  0.00    +0.009 C 
ENDBRANCH  14  20
ENDBRANCH  10  14
TORSDOF 3
