REMARK  Name = ZINC39738408
REMARK  8 active torsions:
REMARK  status: ('A' for Active; 'I' for Inactive)
REMARK    1  A    between atoms: C_1  and  C_2
REMARK    2  A    between atoms: C_2  and  C_4
REMARK    3  A    between atoms: C_2  and  N_7
REMARK    4  A    between atoms: C_4  and  C_5
REMARK    5  A    between atoms: C_4  and  C_6
REMARK    6  A    between atoms: N_7  and  C_8
REMARK    7  A    between atoms: C_8  and  C_9
REMARK    8  A    between atoms: C_22  and  C_24
REMARK                            x       y       z     vdW  Elec       q    Type
REMARK                         _______ _______ _______ _____ _____    ______ ____
ROOT
ATOM      1  C   UNL     1       0.689  -0.618   3.619  0.00  0.00    +0.203 C 
ATOM      2  O   UNL     1       1.733  -1.224   3.497  0.00  0.00    -0.277 OA
ATOM      3  N   UNL     1       0.181  -0.391   4.846  0.00  0.00    -0.259 N 
ATOM      4  C   UNL     1      -1.027   0.303   5.002  0.00  0.00    +0.058 A 
ATOM      5  C   UNL     1      -1.093   1.666   4.769  0.00  0.00    +0.025 A 
ATOM      6  C   UNL     1      -2.288   2.338   4.950  0.00  0.00    +0.002 A 
ATOM      7  C   UNL     1      -3.417   1.654   5.364  0.00  0.00    +0.002 A 
ATOM      8  C   UNL     1      -3.361   0.291   5.591  0.00  0.00    +0.025 A 
ATOM      9  C   UNL     1      -2.170  -0.391   5.401  0.00  0.00    +0.055 A 
ATOM     10  N   UNL     1      -2.103  -1.779   5.569  0.00  0.00    -0.284 N 
ATOM     11  C   UNL     1      -1.111  -2.333   6.300  0.00  0.00    +0.219 C 
ATOM     12  O   UNL     1      -1.016  -3.540   6.369  0.00  0.00    -0.275 OA
ATOM     13  C   UNL     1      -0.123  -1.462   7.029  0.00  0.00    +0.128 C 
ATOM     14  C   UNL     1       0.878  -0.870   6.041  0.00  0.00    +0.194 C 
ATOM     15  H   UNL     1      -2.773  -2.347   5.158  0.00  0.00    +0.155 HD
ENDROOT
BRANCH  14  16
ATOM     16  C   UNL     1       1.611   0.297   6.705  0.00  0.00    +0.409 C 
ATOM     17  F   UNL     1       0.686   1.283   7.067  0.00  0.00    -0.169 F 
ATOM     18  F   UNL     1       2.277  -0.159   7.847  0.00  0.00    -0.169 F 
ATOM     19  F   UNL     1       2.539   0.837   5.808  0.00  0.00    -0.169 F 
ENDBRANCH  14  16
BRANCH   1  20
ATOM     20  C   UNL     1      -0.040  -0.119   2.398  0.00  0.00    +0.016 C 
BRANCH  20  21
ATOM     21  N   UNL     1       0.713  -0.491   1.192  0.00  0.00    +0.387 N 
ATOM     22  H   UNL     1       0.798  -1.495   1.145  0.00  0.00    -0.085 HD
ATOM     23  H   UNL     1       1.632  -0.076   1.228  0.00  0.00    -0.085 HD
BRANCH  21  25
ATOM     24  C   UNL     1      -0.019   1.526   0.010  0.00  0.00    -0.013 C 
ATOM     25  C   UNL     1       0.002  -0.004   0.002  0.00  0.00    -0.072 C 
BRANCH  25  26
ATOM     26  C   UNL     1       0.718  -0.497  -1.257  0.00  0.00    -0.032 C 
ATOM     27  C   UNL     1       0.739  -2.027  -1.265  0.00  0.00    +0.005 C 
ATOM     28  C   UNL     1      -0.022   0.009  -2.496  0.00  0.00    +0.005 C 
ENDBRANCH  25  26
ENDBRANCH  21  25
ENDBRANCH  20  21
ENDBRANCH   1  20
TORSDOF 5
