REMARK  Name = ZINC05315906
REMARK  8 active torsions:
REMARK  status: ('A' for Active; 'I' for Inactive)
REMARK    1  A    between atoms: C_1  and  C_2
REMARK    2  A    between atoms: C_2  and  O_3
REMARK    3  A    between atoms: O_3  and  C_4
REMARK    4  A    between atoms: C_4  and  C_6
REMARK    5  A    between atoms: C_6  and  C_31
REMARK    6  A    between atoms: C_11  and  C_28
REMARK    7  A    between atoms: C_14  and  C_25
REMARK    8  A    between atoms: C_16  and  C_18
REMARK                            x       y       z     vdW  Elec       q    Type
REMARK                         _______ _______ _______ _____ _____    ______ ____
ROOT
ATOM      1  C   UNL     1      -2.604   3.754  -0.120  0.00  0.00    +0.184 C 
ATOM      2  C   UNL     1      -1.305   3.116  -0.641  0.00  0.00    +0.128 C 
ATOM      3  C   UNL     1      -0.103   3.932  -0.238  0.00  0.00    -0.002 C 
ATOM      4  C   UNL     1       1.034   3.306   0.057  0.00  0.00    +0.012 C 
ATOM      5  C   UNL     1       1.138   1.834  -0.008  0.00  0.00    +0.050 C 
ATOM      6  C   UNL     1      -0.015   1.081  -0.006  0.00  0.00    +0.084 C 
ATOM      7  N   UNL     1      -1.177   1.799   0.009  0.00  0.00    -0.314 N 
ATOM      8  C   UNL     1      -2.437   1.493   0.696  0.00  0.00    +0.169 C 
ATOM      9  C   UNL     1      -2.974   2.889   1.114  0.00  0.00    +0.081 C 
ENDROOT
BRANCH   9  10
ATOM     10  C   UNL     1      -4.467   2.853   1.319  0.00  0.00    -0.040 A 
ATOM     11  C   UNL     1      -5.295   2.443   0.291  0.00  0.00    +0.005 A 
ATOM     12  C   UNL     1      -6.664   2.405   0.480  0.00  0.00    +0.020 A 
ATOM     13  C   UNL     1      -7.205   2.787   1.695  0.00  0.00    +0.041 A 
ATOM     14  C   UNL     1      -6.375   3.202   2.721  0.00  0.00    +0.020 A 
ATOM     15  C   UNL     1      -5.007   3.235   2.533  0.00  0.00    +0.005 A 
ATOM     16 CL   UNL     1      -8.925   2.746   1.931  0.00  0.00    -0.084 Cl
ENDBRANCH   9  10
BRANCH   8  17
ATOM     17  C   UNL     1      -3.400   0.813  -0.243  0.00  0.00    +0.232 C 
ATOM     18  O   UNL     1      -3.191   0.824  -1.438  0.00  0.00    -0.274 OA
ATOM     19  N   UNL     1      -4.493   0.194   0.245  0.00  0.00    -0.328 N 
ATOM     20  H   UNL     1      -4.659   0.185   1.201  0.00  0.00    +0.145 HD
ATOM     21  H   UNL     1      -5.113  -0.244  -0.359  0.00  0.00    +0.145 HD
ENDBRANCH   8  17
BRANCH   5  22
ATOM     22  C   UNL     1       2.451   1.183  -0.072  0.00  0.00    +0.243 C 
ATOM     23  O   UNL     1       2.527  -0.031  -0.125  0.00  0.00    -0.270 OA
ATOM     24  N   UNL     1       3.573   1.929  -0.073  0.00  0.00    -0.325 N 
ATOM     25  H   UNL     1       3.513   2.896  -0.031  0.00  0.00    +0.145 HD
ATOM     26  H   UNL     1       4.441   1.499  -0.116  0.00  0.00    +0.145 HD
ENDBRANCH   5  22
BRANCH   1  27
ATOM     27  C   UNL     1      -2.365   5.185   0.285  0.00  0.00    +0.330 C 
ATOM     28  O   UNL     1      -2.543   5.527   1.430  0.00  0.00    -0.249 OA
BRANCH  27  29
ATOM     29  O   UNL     1      -1.953   6.081  -0.626  0.00  0.00    -0.464 OA
BRANCH  29  31
ATOM     30  C   UNL     1      -1.278   8.311  -1.334  0.00  0.00    +0.048 C 
ATOM     31  C   UNL     1      -1.742   7.441  -0.164  0.00  0.00    +0.229 C 
ENDBRANCH  29  31
ENDBRANCH  27  29
ENDBRANCH   1  27
BRANCH   1  32
ATOM     32  C   UNL     1      -3.662   3.677  -1.141  0.00  0.00    +0.084 C 
ATOM     33  N   UNL     1      -4.479   3.618  -1.929  0.00  0.00    -0.195 NA
ENDBRANCH   1  32
TORSDOF 7
