REMARK  Name = ZINC44917894
REMARK  8 active torsions:
REMARK  status: ('A' for Active; 'I' for Inactive)
REMARK    1  A    between atoms: C_1  and  C_2
REMARK    2  A    between atoms: C_7  and  C_8
REMARK    3  A    between atoms: C_8  and  N_9
REMARK    4  A    between atoms: C_12  and  C_15
REMARK    5  A    between atoms: N_17  and  C_18
REMARK    6  A    between atoms: C_23  and  S_24
REMARK    7  A    between atoms: S_24  and  C_25
REMARK    8  A    between atoms: C_25  and  C_26
REMARK                            x       y       z     vdW  Elec       q    Type
REMARK                         _______ _______ _______ _____ _____    ______ ____
ROOT
ATOM      1  C   UNL     1      -5.081   1.137   4.748  0.00  0.00    +0.220 C 
ATOM      2  O   UNL     1      -5.962   0.814   3.980  0.00  0.00    -0.275 OA
ATOM      3  N   UNL     1      -5.355   1.954   5.784  0.00  0.00    -0.284 N 
ATOM      4  H   UNL     1      -4.667   2.160   6.435  0.00  0.00    +0.155 HD
ENDROOT
BRANCH   1   8
ATOM      5  N   UNL     1      -1.342   0.442   2.841  0.00  0.00    +0.382 N 
ATOM      6  C   UNL     1      -2.197  -0.731   3.060  0.00  0.00    -0.078 C 
ATOM      7  C   UNL     1      -3.638  -0.278   3.307  0.00  0.00    -0.006 C 
ATOM      8  C   UNL     1      -3.678   0.624   4.544  0.00  0.00    +0.072 C 
ATOM      9  C   UNL     1      -2.726   1.804   4.335  0.00  0.00    -0.006 C 
ATOM     10  C   UNL     1      -1.319   1.274   4.051  0.00  0.00    -0.078 C 
ATOM     11  H   UNL     1      -1.705   0.981   2.070  0.00  0.00    -0.081 HD
BRANCH   5  12
ATOM     12  C   UNL     1       0.023  -0.001   2.528  0.00  0.00    -0.043 C 
BRANCH  12  19
ATOM     13  C   UNL     1      -0.003   1.449   0.029  0.00  0.00    +0.044 C 
ATOM     14  C   UNL     1       0.008  -0.058   0.026  0.00  0.00    -0.049 A 
ATOM     15  C   UNL     1       0.011  -0.747  -1.173  0.00  0.00    +0.003 A 
ATOM     16  C   UNL     1       0.021  -2.129  -1.176  0.00  0.00    +0.000 A 
ATOM     17  C   UNL     1       0.028  -2.823   0.020  0.00  0.00    +0.000 A 
ATOM     18  C   UNL     1       0.026  -2.134   1.219  0.00  0.00    +0.002 A 
ATOM     19  C   UNL     1       0.020  -0.752   1.222  0.00  0.00    -0.061 A 
ENDBRANCH  12  19
ENDBRANCH   5  12
ENDBRANCH   1   8
BRANCH   3  20
ATOM     20  C   UNL     1      -6.636   2.506   5.920  0.00  0.00    +0.047 A 
ATOM     21  C   UNL     1      -7.752   1.776   5.541  0.00  0.00    +0.024 A 
ATOM     22  C   UNL     1      -9.015   2.323   5.676  0.00  0.00    +0.002 A 
ATOM     23  C   UNL     1      -9.169   3.598   6.189  0.00  0.00    +0.001 A 
ATOM     24  C   UNL     1      -8.063   4.333   6.570  0.00  0.00    +0.016 A 
ATOM     25  C   UNL     1      -6.792   3.790   6.443  0.00  0.00    +0.029 A 
BRANCH  25  26
ATOM     26  S   UNL     1      -5.380   4.722   6.934  0.00  0.00    -0.119 S 
BRANCH  26  27
ATOM     27  C   UNL     1      -6.074   6.287   7.535  0.00  0.00    +0.109 C 
BRANCH  27  28
ATOM     28  C   UNL     1      -4.957   7.189   7.992  0.00  0.00    -0.037 A 
ATOM     29  C   UNL     1      -4.521   7.140   9.303  0.00  0.00    +0.006 A 
ATOM     30  C   UNL     1      -3.496   7.967   9.723  0.00  0.00    +0.020 A 
ATOM     31  C   UNL     1      -2.907   8.845   8.831  0.00  0.00    +0.041 A 
ATOM     32  C   UNL     1      -3.343   8.894   7.519  0.00  0.00    +0.020 A 
ATOM     33  C   UNL     1      -4.364   8.062   7.099  0.00  0.00    +0.006 A 
ATOM     34 CL   UNL     1      -1.621   9.885   9.357  0.00  0.00    -0.084 Cl
ENDBRANCH  27  28
ENDBRANCH  26  27
ENDBRANCH  25  26
ENDBRANCH   3  20
TORSDOF 7
