REMARK  Name = ZINC42524432
REMARK  3 active torsions:
REMARK  status: ('A' for Active; 'I' for Inactive)
REMARK    1  A    between atoms: C_4  and  S_7
REMARK    2  A    between atoms: S_7  and  N_10
REMARK    3  A    between atoms: C_15  and  N_17
REMARK                            x       y       z     vdW  Elec       q    Type
REMARK                         _______ _______ _______ _____ _____    ______ ____
ROOT
ATOM      1  N   UNL     1       3.175  -2.494  -0.044  0.00  0.00    -0.190 NA
ATOM      2  C   UNL     1       3.890  -2.662  -1.316  0.00  0.00    +0.107 C 
ATOM      3  C   UNL     1       4.701  -3.961  -1.259  0.00  0.00    +0.017 C 
ATOM      4  C   UNL     1       5.608  -3.937  -0.026  0.00  0.00    +0.001 C 
ATOM      5  C   UNL     1       4.751  -3.846   1.238  0.00  0.00    +0.000 C 
ATOM      6  C   UNL     1       3.942  -2.541   1.209  0.00  0.00    +0.019 C 
ENDROOT
BRANCH   6   7
ATOM      7  N   UNL     1       3.019  -2.505   2.352  0.00  0.00    +0.389 N 
ATOM      8  H   UNL     1       2.486  -3.360   2.380  0.00  0.00    -0.088 HD
ATOM      9  H   UNL     1       3.547  -2.409   3.207  0.00  0.00    -0.088 HD
ATOM     10  H   UNL     1       2.393  -1.720   2.254  0.00  0.00    -0.088 HD
ENDBRANCH   6   7
BRANCH   1  11
ATOM     11  S   UNL     1       1.537  -2.251  -0.022  0.00  0.00    +0.067 S 
ATOM     12  O   UNL     1       1.052  -2.857   1.168  0.00  0.00    -0.152 OA
ATOM     13  O   UNL     1       1.056  -2.610  -1.310  0.00  0.00    -0.152 OA
BRANCH  11  17
ATOM     14  C   UNL     1       0.132   1.539   0.352  0.00  0.00    +0.025 A 
ATOM     15  C   UNL     1       1.333   2.166   0.416  0.00  0.00    +0.048 A 
ATOM     16  S   UNL     1       2.471   0.797   0.282  0.00  0.00    -0.076 S 
ATOM     17  C   UNL     1       1.270  -0.518   0.150  0.00  0.00    +0.156 A 
ATOM     18  C   UNL     1       0.100   0.164   0.215  0.00  0.00    +0.051 A 
ATOM     19 BR   UNL     1      -1.551  -0.753   0.122  0.00  0.00    -0.048 Br
ENDBRANCH  11  17
ENDBRANCH   1  11
TORSDOF 3
