REMARK  Name = ZINC40345618
REMARK  12 active torsions:
REMARK  status: ('A' for Active; 'I' for Inactive)
REMARK    1  A    between atoms: C_1  and  C_2
REMARK    2  A    between atoms: C_2  and  C_3
REMARK    3  A    between atoms: C_3  and  C_4
REMARK    4  A    between atoms: C_4  and  C_5
REMARK    5  A    between atoms: C_5  and  O_6
REMARK    6  A    between atoms: O_6  and  C_7
REMARK    7  A    between atoms: C_10  and  C_13
REMARK    8  A    between atoms: C_16  and  C_32
REMARK    9  A    between atoms: N_23  and  C_24
REMARK   10  A    between atoms: C_24  and  C_25
REMARK   11  A    between atoms: C_35  and  O_38
REMARK   12  A    between atoms: O_38  and  C_39
REMARK                            x       y       z     vdW  Elec       q    Type
REMARK                         _______ _______ _______ _____ _____    ______ ____
ROOT
ATOM      1  C   UNL     1      -7.812  -6.647   0.040  0.00  0.00    +0.142 C 
ATOM      2  C   UNL     1      -8.155  -7.124  -1.344  0.00  0.00    +0.035 A 
ATOM      3  C   UNL     1      -8.411  -6.787  -2.678  0.00  0.00    +0.099 A 
ATOM      4  N   UNL     1      -8.656  -7.908  -3.327  0.00  0.00    -0.173 NA
ATOM      5  N   UNL     1      -8.580  -8.919  -2.536  0.00  0.00    -0.272 N 
ATOM      6  H   UNL     1      -8.723  -9.842  -2.797  0.00  0.00    +0.189 HD
ATOM      7  C   UNL     1      -8.269  -8.499  -1.274  0.00  0.00    +0.126 A 
ATOM      8  C   UNL     1      -8.010  -8.919   0.107  0.00  0.00    +0.266 C 
ATOM      9  O   UNL     1      -8.033 -10.070   0.499  0.00  0.00    -0.268 OA
ATOM     10  N   UNL     1      -7.744  -7.849   0.881  0.00  0.00    -0.281 N 
ENDROOT
BRANCH   1  14
ATOM     11  C   UNL     1      -4.031  -4.655   0.015  0.00  0.00    +0.121 A 
ATOM     12  C   UNL     1      -5.205  -3.917   0.025  0.00  0.00    +0.046 A 
ATOM     13  C   UNL     1      -6.426  -4.563   0.033  0.00  0.00    +0.009 A 
ATOM     14  C   UNL     1      -6.479  -5.945   0.032  0.00  0.00    -0.022 A 
ATOM     15  C   UNL     1      -5.309  -6.683   0.023  0.00  0.00    +0.009 A 
ATOM     16  C   UNL     1      -4.086  -6.042   0.009  0.00  0.00    +0.046 A 
BRANCH  11  17
ATOM     17  O   UNL     1      -2.829  -4.022   0.007  0.00  0.00    -0.492 OA
BRANCH  17  18
ATOM     18  C   UNL     1      -2.848  -2.593   0.015  0.00  0.00    +0.229 C 
BRANCH  18  19
ATOM     19  C   UNL     1      -1.413  -2.063   0.004  0.00  0.00    +0.041 C 
BRANCH  19  20
ATOM     20  C   UNL     1      -1.433  -0.534   0.013  0.00  0.00    +0.003 C 
BRANCH  20  22
ATOM     21  C   UNL     1      -0.019   1.526   0.010  0.00  0.00    +0.004 C 
ATOM     22  C   UNL     1       0.002  -0.004   0.002  0.00  0.00    -0.003 C 
ENDBRANCH  20  22
ENDBRANCH  19  20
ENDBRANCH  18  19
ENDBRANCH  17  18
ENDBRANCH  11  17
ENDBRANCH   1  14
BRANCH   3  23
ATOM     23  C   UNL     1      -8.408  -5.420  -3.255  0.00  0.00    +0.003 A 
ATOM     24  C   UNL     1      -8.849  -4.340  -2.493  0.00  0.00    +0.013 A 
ATOM     25  C   UNL     1      -8.845  -3.070  -3.032  0.00  0.00    +0.046 A 
ATOM     26  C   UNL     1      -8.402  -2.868  -4.332  0.00  0.00    +0.120 A 
ATOM     27  C   UNL     1      -7.963  -3.942  -5.094  0.00  0.00    +0.046 A 
ATOM     28  C   UNL     1      -7.959  -5.213  -4.558  0.00  0.00    +0.013 A 
BRANCH  26  29
ATOM     29  O   UNL     1      -8.399  -1.616  -4.861  0.00  0.00    -0.495 OA
ATOM     30  C   UNL     1      -7.931  -1.480  -6.204  0.00  0.00    +0.277 C 
ENDBRANCH  26  29
ENDBRANCH   3  23
BRANCH  10  31
ATOM     31  C   UNL     1      -7.439  -7.879   2.314  0.00  0.00    +0.145 C 
BRANCH  31  32
ATOM     32  C   UNL     1      -8.717  -7.759   3.102  0.00  0.00    -0.012 A 
ATOM     33  C   UNL     1      -9.088  -6.539   3.637  0.00  0.00    +0.006 A 
ATOM     34  C   UNL     1     -10.260  -6.429   4.360  0.00  0.00    +0.000 A 
ATOM     35  C   UNL     1     -11.063  -7.538   4.550  0.00  0.00    +0.001 A 
ATOM     36  C   UNL     1     -10.694  -8.758   4.016  0.00  0.00    +0.020 A 
ATOM     37  C   UNL     1      -9.523  -8.868   3.286  0.00  0.00    +0.046 A 
ATOM     38 CL   UNL     1      -9.062 -10.399   2.610  0.00  0.00    -0.083 Cl
ENDBRANCH  31  32
ENDBRANCH  10  31
TORSDOF 10
