REMARK  Name = ZINC08883253
REMARK  5 active torsions:
REMARK  status: ('A' for Active; 'I' for Inactive)
REMARK    1  A    between atoms: C_7  and  S_11
REMARK    2  A    between atoms: S_11  and  C_12
REMARK    3  A    between atoms: C_12  and  C_13
REMARK    4  A    between atoms: C_16  and  C_26
REMARK    5  A    between atoms: C_19  and  C_21
REMARK                            x       y       z     vdW  Elec       q    Type
REMARK                         _______ _______ _______ _____ _____    ______ ____
ROOT
ATOM      1  C   UNL     1      -1.293   5.917  -2.139  0.00  0.00    +0.246 C 
ATOM      2  O   UNL     1      -0.462   5.261  -2.732  0.00  0.00    -0.273 OA
ATOM      3  N   UNL     1      -1.166   6.126  -0.814  0.00  0.00    -0.184 N 
ATOM      4  C   UNL     1      -0.074   5.619   0.032  0.00  0.00    +0.137 C 
ATOM      5  C   UNL     1      -0.426   6.149   1.435  0.00  0.00    +0.087 C 
ATOM      6  C   UNL     1      -1.711   6.917   1.224  0.00  0.00    +0.075 C 
ATOM      7  N   UNL     1      -2.048   6.858  -0.021  0.00  0.00    -0.180 NA
ENDROOT
BRANCH   4   8
ATOM      8  C   UNL     1      -0.054   4.112   0.024  0.00  0.00    -0.025 A 
ATOM      9  C   UNL     1       1.153   3.438   0.009  0.00  0.00    +0.008 A 
ATOM     10  C   UNL     1       1.173   2.056   0.002  0.00  0.00    +0.038 A 
ATOM     11  C   UNL     1      -0.016   1.347   0.009  0.00  0.00    +0.123 A 
ATOM     12  C   UNL     1      -1.224   2.023   0.019  0.00  0.00    +0.038 A 
ATOM     13  C   UNL     1      -1.242   3.405   0.032  0.00  0.00    +0.008 A 
ATOM     14  F   UNL     1       0.002  -0.004   0.002  0.00  0.00    -0.205 F 
ENDBRANCH   4   8
BRANCH   6  15
ATOM     15  C   UNL     1      -2.459   7.621   2.271  0.00  0.00    +0.035 A 
ATOM     16  C   UNL     1      -3.633   8.348   2.166  0.00  0.00    +0.017 A 
ATOM     17  C   UNL     1      -4.151   8.918   3.305  0.00  0.00    +0.008 A 
ATOM     18  C   UNL     1      -3.496   8.763   4.485  0.00  0.00    +0.046 A 
ATOM     19  S   UNL     1      -2.091   7.769   4.011  0.00  0.00    -0.095 S 
ENDBRANCH   6  15
BRANCH   1  20
ATOM     20  C   UNL     1      -2.467   6.498  -2.885  0.00  0.00    +0.172 C 
BRANCH  20  21
ATOM     21  S   UNL     1      -2.355   6.044  -4.638  0.00  0.00    -0.114 S 
BRANCH  21  28
ATOM     22  C   UNL     1      -4.241   6.262  -9.118  0.00  0.00    +0.001 A 
ATOM     23  C   UNL     1      -5.421   6.986  -9.228  0.00  0.00    +0.002 A 
ATOM     24  C   UNL     1      -5.984   7.584  -8.123  0.00  0.00    +0.026 A 
ATOM     25  C   UNL     1      -5.366   7.462  -6.881  0.00  0.00    +0.048 A 
ATOM     26  C   UNL     1      -4.168   6.732  -6.777  0.00  0.00    +0.013 A 
ATOM     27  C   UNL     1      -3.618   6.130  -7.910  0.00  0.00    +0.011 A 
ATOM     28  C   UNL     1      -3.778   6.787  -5.363  0.00  0.00    +0.033 A 
ATOM     29  C   UNL     1      -4.712   7.519  -4.726  0.00  0.00    +0.098 A 
ATOM     30  N   UNL     1      -5.671   7.931  -5.623  0.00  0.00    -0.360 N 
ATOM     31  H   UNL     1      -6.446   8.471  -5.402  0.00  0.00    +0.165 HD
ENDBRANCH  21  28
ENDBRANCH  20  21
ENDBRANCH   1  20
TORSDOF 5
