REMARK  Name = ZINC01413642
REMARK  4 active torsions:
REMARK  status: ('A' for Active; 'I' for Inactive)
REMARK    1  A    between atoms: C_3  and  O_28
REMARK    2  A    between atoms: C_6  and  C_7
REMARK    3  A    between atoms: C_13  and  C_24
REMARK    4  A    between atoms: C_15  and  C_17
REMARK                            x       y       z     vdW  Elec       q    Type
REMARK                         _______ _______ _______ _____ _____    ______ ____
ROOT
ATOM      1  C   UNL     1       1.545   5.396   0.017  0.00  0.00    +0.080 A 
ATOM      2  C   UNL     1       2.909   5.500   0.004  0.00  0.00    +0.077 A 
ATOM      3  S   UNL     1       3.373   3.773  -0.003  0.00  0.00    -0.056 S 
ATOM      4  C   UNL     1       1.718   3.098   0.002  0.00  0.00    +0.195 A 
ATOM      5  N   UNL     1       0.986   4.196   0.016  0.00  0.00    -0.221 NA
ATOM      6  N   UNL     1       1.309   1.767  -0.001  0.00  0.00    -0.203 N 
ATOM      7  C   UNL     1       2.126   0.680  -0.015  0.00  0.00    +0.150 A 
ATOM      8  C   UNL     1       1.347  -0.423  -0.013  0.00  0.00    +0.062 A 
ATOM      9  C   UNL     1       0.002  -0.004   0.002  0.00  0.00    +0.094 A 
ATOM     10  N   UNL     1      -0.016   1.312   0.009  0.00  0.00    -0.164 NA
ENDROOT
BRANCH   9  11
ATOM     11  C   UNL     1      -1.187  -0.891   0.009  0.00  0.00    +0.002 A 
ATOM     12  C   UNL     1      -1.026  -2.276  -0.007  0.00  0.00    +0.011 A 
ATOM     13  C   UNL     1      -2.135  -3.097   0.003  0.00  0.00    +0.020 A 
ATOM     14  C   UNL     1      -3.406  -2.547   0.019  0.00  0.00    +0.041 A 
ATOM     15  C   UNL     1      -3.571  -1.173   0.030  0.00  0.00    +0.020 A 
ATOM     16  C   UNL     1      -2.468  -0.344   0.024  0.00  0.00    +0.011 A 
ATOM     17 CL   UNL     1      -4.797  -3.586   0.026  0.00  0.00    -0.084 Cl
ENDBRANCH   9  11
BRANCH   1  23
ATOM     18  C   UNL     1       1.295   7.876   0.040  0.00  0.00    +0.013 A 
ATOM     19  C   UNL     1       0.507   9.008   0.048  0.00  0.00    +0.046 A 
ATOM     20  C   UNL     1      -0.876   8.893   0.061  0.00  0.00    +0.117 A 
ATOM     21  C   UNL     1      -1.471   7.639   0.060  0.00  0.00    +0.046 A 
ATOM     22  C   UNL     1      -0.688   6.503   0.045  0.00  0.00    +0.013 A 
ATOM     23  C   UNL     1       0.701   6.615   0.032  0.00  0.00    +0.001 A 
BRANCH  20  24
ATOM     24  O   UNL     1      -1.649  10.010   0.076  0.00  0.00    -0.507 OA
ATOM     25  H   UNL     1      -1.864  10.329   0.964  0.00  0.00    +0.292 HD
ENDBRANCH  20  24
ENDBRANCH   1  23
BRANCH   7  26
ATOM     26  C   UNL     1       3.633   0.703  -0.029  0.00  0.00    +0.434 C 
ATOM     27  F   UNL     1       4.118  -0.604  -0.156  0.00  0.00    -0.164 F 
ATOM     28  F   UNL     1       4.078   1.472  -1.109  0.00  0.00    -0.164 F 
ATOM     29  F   UNL     1       4.102   1.260   1.165  0.00  0.00    -0.164 F 
ENDBRANCH   7  26
TORSDOF 4
