REMARK  Name = ZINC17886947
REMARK  11 active torsions:
REMARK  status: ('A' for Active; 'I' for Inactive)
REMARK    1  A    between atoms: C_1  and  C_2
REMARK    2  A    between atoms: C_5  and  S_8
REMARK    3  A    between atoms: S_8  and  N_11
REMARK    4  A    between atoms: N_11  and  C_12
REMARK    5  A    between atoms: N_11  and  C_28
REMARK    6  A    between atoms: C_12  and  C_13
REMARK    7  A    between atoms: C_13  and  N_15
REMARK    8  A    between atoms: N_16  and  C_17
REMARK    9  A    between atoms: C_26  and  O_27
REMARK   10  A    between atoms: C_31  and  C_35
REMARK   11  A    between atoms: C_32  and  C_34
REMARK                            x       y       z     vdW  Elec       q    Type
REMARK                         _______ _______ _______ _____ _____    ______ ____
ROOT
ATOM      1  N   UNL     1       1.651  -4.999  -0.034  0.00  0.00    -0.194 N 
ENDROOT
BRANCH   1   2
ATOM      2  C   UNL     1       2.284  -5.292  -1.244  0.00  0.00    +0.052 A 
ATOM      3  C   UNL     1       3.515  -4.721  -1.542  0.00  0.00    +0.025 A 
ATOM      4  C   UNL     1       4.139  -5.013  -2.739  0.00  0.00    +0.005 A 
ATOM      5  C   UNL     1       3.539  -5.872  -3.642  0.00  0.00    -0.047 A 
ATOM      6  C   UNL     1       2.313  -6.441  -3.349  0.00  0.00    -0.046 A 
ATOM      7  C   UNL     1       1.687  -6.158  -2.151  0.00  0.00    +0.028 A 
ATOM      8  C   UNL     1       1.663  -7.375  -4.337  0.00  0.00    +0.044 C 
ATOM      9  C   UNL     1       4.222  -6.187  -4.947  0.00  0.00    +0.044 C 
ENDBRANCH   1   2
BRANCH   1  10
ATOM     10  S   UNL     1       0.149  -4.301  -0.033  0.00  0.00    +0.075 S 
ATOM     11  O   UNL     1      -0.501  -4.738   1.152  0.00  0.00    -0.150 OA
ATOM     12  O   UNL     1      -0.399  -4.515  -1.326  0.00  0.00    -0.150 OA
BRANCH  10  17
ATOM     13  C   UNL     1       0.949   1.653   0.535  0.00  0.00    +0.044 C 
ATOM     14  C   UNL     1       0.750   0.166   0.394  0.00  0.00    -0.050 A 
ATOM     15  C   UNL     1       0.708  -0.409  -0.863  0.00  0.00    +0.005 A 
ATOM     16  C   UNL     1       0.525  -1.773  -0.993  0.00  0.00    +0.029 A 
ATOM     17  C   UNL     1       0.384  -2.562   0.133  0.00  0.00    +0.109 A 
ATOM     18  C   UNL     1       0.427  -1.988   1.389  0.00  0.00    +0.029 A 
ATOM     19  C   UNL     1       0.614  -0.624   1.520  0.00  0.00    +0.005 A 
ENDBRANCH  10  17
ENDBRANCH   1  10
BRANCH   1  20
ATOM     20  C   UNL     1       2.315  -5.311   1.234  0.00  0.00    +0.230 C 
BRANCH  20  21
ATOM     21  C   UNL     1       2.043  -6.746   1.604  0.00  0.00    +0.273 C 
ATOM     22  O   UNL     1       1.360  -7.441   0.879  0.00  0.00    -0.270 OA
BRANCH  21  23
ATOM     23  N   UNL     1       2.554  -7.255   2.734  0.00  0.00    -0.078 NA
ATOM     24  N   UNL     1       2.321  -8.483   3.051  0.00  0.00    -0.151 NA
BRANCH  24  25
ATOM     25  C   UNL     1       2.829  -8.990   4.175  0.00  0.00    +0.152 A 
ATOM     26  C   UNL     1       2.667 -10.368   4.682  0.00  0.00    +0.030 A 
ATOM     27  C   UNL     1       1.998 -11.494   4.211  0.00  0.00    +0.012 A 
ATOM     28  C   UNL     1       2.038 -12.666   4.936  0.00  0.00    +0.001 A 
ATOM     29  C   UNL     1       2.741 -12.725   6.129  0.00  0.00    +0.002 A 
ATOM     30  C   UNL     1       3.408 -11.616   6.606  0.00  0.00    +0.026 A 
ATOM     31  C   UNL     1       3.379 -10.426   5.889  0.00  0.00    +0.051 A 
ATOM     32  N   UNL     1       3.941  -9.179   6.116  0.00  0.00    -0.324 N 
ATOM     33  H   UNL     1       4.486  -8.951   6.886  0.00  0.00    +0.169 HD
ATOM     34  C   UNL     1       3.632  -8.325   5.112  0.00  0.00    +0.219 A 
BRANCH  34  35
ATOM     35  O   UNL     1       4.029  -7.039   5.030  0.00  0.00    -0.492 OA
ATOM     36  H   UNL     1       3.421  -6.412   5.446  0.00  0.00    +0.294 HD
ENDBRANCH  34  35
ENDBRANCH  24  25
ENDBRANCH  21  23
ENDBRANCH  20  21
ENDBRANCH   1  20
TORSDOF 8
