REMARK  Name = ZINC04209876
REMARK  6 active torsions:
REMARK  status: ('A' for Active; 'I' for Inactive)
REMARK    1  A    between atoms: C_8  and  C_10
REMARK    2  A    between atoms: C_10  and  O_12
REMARK    3  A    between atoms: O_12  and  C_13
REMARK    4  A    between atoms: C_16  and  C_19
REMARK    5  A    between atoms: N_20  and  N_21
REMARK    6  A    between atoms: C_22  and  C_24
REMARK                            x       y       z     vdW  Elec       q    Type
REMARK                         _______ _______ _______ _____ _____    ______ ____
ROOT
ATOM      1  C   UNL     1       2.237   1.096  -0.048  0.00  0.00    +0.132 A 
ATOM      2  C   UNL     1       2.077  -0.282  -0.121  0.00  0.00    +0.047 A 
ATOM      3  C   UNL     1       3.182  -1.104  -0.177  0.00  0.00    +0.013 A 
ATOM      4  C   UNL     1       4.465  -0.549  -0.147  0.00  0.00    -0.005 A 
ATOM      5  C   UNL     1       4.620   0.837  -0.067  0.00  0.00    +0.013 A 
ATOM      6  C   UNL     1       3.509   1.651  -0.018  0.00  0.00    +0.047 A 
ENDROOT
BRANCH   4   7
ATOM      7  C   UNL     1       5.650  -1.424  -0.201  0.00  0.00    +0.138 C 
ATOM      8  N   UNL     1       5.503  -2.712  -0.275  0.00  0.00    -0.187 NA
BRANCH   8   9
ATOM      9  N   UNL     1       6.629  -3.544  -0.326  0.00  0.00    -0.200 N 
ATOM     10  C   UNL     1       6.477  -4.880  -0.403  0.00  0.00    +0.299 C 
ATOM     11  O   UNL     1       5.361  -5.365  -0.428  0.00  0.00    -0.265 OA
ATOM     12  H   UNL     1       7.519  -3.157  -0.306  0.00  0.00    +0.178 HD
BRANCH  10  13
ATOM     13  C   UNL     1       7.655  -5.750  -0.456  0.00  0.00    +0.192 A 
ATOM     14  C   UNL     1       7.643  -7.114  -0.530  0.00  0.00    +0.056 A 
ATOM     15  C   UNL     1       8.982  -7.529  -0.562  0.00  0.00    +0.058 A 
ATOM     16  C   UNL     1       9.746  -6.414  -0.499  0.00  0.00    +0.171 A 
ATOM     17  O   UNL     1       8.942  -5.344  -0.435  0.00  0.00    -0.444 OA
ATOM     18 BR   UNL     1      11.637  -6.372  -0.501  0.00  0.00    -0.008 Br
ENDBRANCH  10  13
ENDBRANCH   8   9
ENDBRANCH   4   7
BRANCH   1  19
ATOM     19  O   UNL     1       1.144   1.902   0.001  0.00  0.00    -0.422 OA
BRANCH  19  20
ATOM     20  C   UNL     1       0.810   2.549  -1.134  0.00  0.00    +0.353 C 
ATOM     21  O   UNL     1       1.525   2.467  -2.114  0.00  0.00    -0.244 OA
BRANCH  20  29
ATOM     22  C   UNL     1      -3.949   6.223  -2.714  0.00  0.00    +0.001 A 
ATOM     23  C   UNL     1      -4.523   6.106  -1.454  0.00  0.00    +0.001 A 
ATOM     24  C   UNL     1      -3.902   5.334  -0.493  0.00  0.00    +0.016 A 
ATOM     25  C   UNL     1      -2.721   4.691  -0.797  0.00  0.00    +0.022 A 
ATOM     26  C   UNL     1      -2.114   4.793  -2.072  0.00  0.00    +0.008 A 
ATOM     27  C   UNL     1      -2.787   5.596  -3.029  0.00  0.00    +0.010 A 
ATOM     28  C   UNL     1      -0.909   4.083  -2.224  0.00  0.00    +0.070 A 
ATOM     29  C   UNL     1      -0.414   3.356  -1.184  0.00  0.00    +0.116 A 
ATOM     30  S   UNL     1      -1.617   3.633   0.104  0.00  0.00    -0.080 S 
ATOM     31 CL   UNL     1      -0.057   4.130  -3.736  0.00  0.00    -0.082 Cl
ENDBRANCH  20  29
ENDBRANCH  19  20
ENDBRANCH   1  19
TORSDOF 6
