REMARK  Name = ZINC10886132
REMARK  7 active torsions:
REMARK  status: ('A' for Active; 'I' for Inactive)
REMARK    1  A    between atoms: C_1  and  C_2
REMARK    2  A    between atoms: C_2  and  O_3
REMARK    3  A    between atoms: O_3  and  C_4
REMARK    4  A    between atoms: C_11  and  C_13
REMARK    5  A    between atoms: C_19  and  C_21
REMARK    6  A    between atoms: N_27  and  S_28
REMARK    7  A    between atoms: S_28  and  C_31
REMARK                            x       y       z     vdW  Elec       q    Type
REMARK                         _______ _______ _______ _____ _____    ______ ____
ROOT
ATOM      1  C   UNL     1       2.696  -6.602   4.104  0.00  0.00    +0.115 A 
ATOM      2  C   UNL     1       2.263  -7.781   3.558  0.00  0.00    +0.080 A 
ATOM      3  S   UNL     1       2.921  -8.955   4.735  0.00  0.00    -0.060 S 
ATOM      4  C   UNL     1       3.698  -7.772   5.825  0.00  0.00    +0.165 A 
ATOM      5  N   UNL     1       3.410  -6.631   5.228  0.00  0.00    -0.221 NA
ATOM      6  N   UNL     1       4.419  -7.995   6.992  0.00  0.00    -0.263 N 
ATOM      7  C   UNL     1       4.607  -9.252   7.438  0.00  0.00    +0.238 C 
ATOM      8  O   UNL     1       4.147 -10.190   6.821  0.00  0.00    -0.274 OA
ATOM      9  H   UNL     1       4.787  -7.245   7.485  0.00  0.00    +0.157 HD
ENDROOT
BRANCH   1  17
ATOM     10  C   UNL     1       1.652  -1.097   1.800  0.00  0.00    +0.121 A 
ATOM     11  C   UNL     1       0.981  -1.845   0.837  0.00  0.00    +0.049 A 
ATOM     12  C   UNL     1       0.937  -3.220   0.919  0.00  0.00    +0.050 A 
ATOM     13  C   UNL     1       1.555  -3.874   1.977  0.00  0.00    +0.136 A 
ATOM     14  C   UNL     1       2.228  -3.121   2.954  0.00  0.00    +0.024 A 
ATOM     15  C   UNL     1       2.273  -1.729   2.860  0.00  0.00    +0.057 A 
ATOM     16  C   UNL     1       2.759  -4.096   3.910  0.00  0.00    +0.060 A 
ATOM     17  C   UNL     1       2.380  -5.315   3.453  0.00  0.00    +0.155 A 
ATOM     18  O   UNL     1       1.672  -5.176   2.315  0.00  0.00    -0.453 OA
BRANCH  10  19
ATOM     19  O   UNL     1       1.691   0.258   1.701  0.00  0.00    -0.492 OA
BRANCH  19  21
ATOM     20  C   UNL     1       1.178   2.368   0.639  0.00  0.00    +0.048 C 
ATOM     21  C   UNL     1       1.028   0.846   0.580  0.00  0.00    +0.225 C 
ENDBRANCH  19  21
ENDBRANCH  10  19
ENDBRANCH   1  17
BRANCH   7  22
ATOM     22  C   UNL     1       5.390  -9.494   8.703  0.00  0.00    +0.166 C 
ATOM     23  C   UNL     1       4.486 -10.158   9.746  0.00  0.00    +0.030 C 
ATOM     24  C   UNL     1       5.320 -10.530  10.975  0.00  0.00    +0.003 C 
ATOM     25  C   UNL     1       6.411 -11.525  10.574  0.00  0.00    +0.017 C 
ATOM     26  C   UNL     1       7.336 -10.873   9.541  0.00  0.00    +0.110 C 
ATOM     27  N   UNL     1       6.522 -10.386   8.419  0.00  0.00    -0.164 NA
BRANCH  27  28
ATOM     28  S   UNL     1       6.876 -10.832   6.864  0.00  0.00    +0.068 S 
ATOM     29  O   UNL     1       6.323  -9.832   6.019  0.00  0.00    -0.152 OA
ATOM     30  O   UNL     1       8.256 -11.170   6.842  0.00  0.00    -0.152 OA
BRANCH  28  31
ATOM     31  C   UNL     1       5.988 -12.318   6.533  0.00  0.00    +0.143 A 
ATOM     32  C   UNL     1       4.805 -12.481   5.891  0.00  0.00    +0.036 A 
ATOM     33  C   UNL     1       4.293 -13.756   5.743  0.00  0.00    +0.010 A 
ATOM     34  C   UNL     1       4.983 -14.805   6.254  0.00  0.00    +0.047 A 
ATOM     35  S   UNL     1       6.408 -13.998   6.965  0.00  0.00    -0.077 S 
ENDBRANCH  28  31
ENDBRANCH  27  28
ENDBRANCH   7  22
TORSDOF 6
