REMARK  Name = ZINC65182298
REMARK  7 active torsions:
REMARK  status: ('A' for Active; 'I' for Inactive)
REMARK    1  A    between atoms: C_1  and  C_2
REMARK    2  A    between atoms: C_7  and  C_12
REMARK    3  A    between atoms: C_15  and  C_18
REMARK    4  A    between atoms: C_18  and  C_19
REMARK    5  A    between atoms: C_19  and  N_20
REMARK    6  A    between atoms: N_20  and  C_21
REMARK    7  A    between atoms: C_22  and  C_24
REMARK                            x       y       z     vdW  Elec       q    Type
REMARK                         _______ _______ _______ _____ _____    ______ ____
ROOT
ATOM      1  C   UNL     1       0.636  -5.781   1.470  0.00  0.00    +0.318 C 
ATOM      2  N   UNL     1       1.001  -7.067   0.854  0.00  0.00    -0.291 N 
ATOM      3  C   UNL     1       2.140  -6.846   0.115  0.00  0.00    +0.139 C 
ATOM      4  N   UNL     1       2.519  -5.622   0.190  0.00  0.00    -0.072 NA
ATOM      5  O   UNL     1       1.647  -4.868   1.016  0.00  0.00    -0.367 OA
ATOM      6  H   UNL     1       0.529  -7.909   0.951  0.00  0.00    +0.151 HD
ENDROOT
BRANCH   1  13
ATOM      7  C   UNL     1      -2.009   0.284  -0.994  0.00  0.00    +0.044 C 
ATOM      8  C   UNL     1      -1.671  -1.179  -0.867  0.00  0.00    -0.050 A 
ATOM      9  C   UNL     1      -1.469  -1.937  -2.029  0.00  0.00    +0.005 A 
ATOM     10  C   UNL     1      -1.164  -3.251  -1.998  0.00  0.00    +0.026 A 
ATOM     11  C   UNL     1      -1.033  -3.930  -0.755  0.00  0.00    +0.043 A 
ATOM     12  N   UNL     1      -0.749  -5.177  -0.468  0.00  0.00    -0.373 N 
ATOM     13  C   UNL     1      -0.745  -5.332   0.991  0.00  0.00    +0.165 C 
ATOM     14  C   UNL     1      -1.075  -3.967   1.553  0.00  0.00    +0.012 C 
ATOM     15  C   UNL     1      -1.241  -3.152   0.487  0.00  0.00    -0.004 A 
ATOM     16  C   UNL     1      -1.565  -1.726   0.366  0.00  0.00    +0.013 A 
ATOM     17  H   UNL     1      -0.572  -5.880  -1.112  0.00  0.00    +0.160 HD
ENDBRANCH   1  13
BRANCH   3  18
ATOM     18  C   UNL     1       2.853  -7.907  -0.682  0.00  0.00    +0.094 C 
BRANCH  18  19
ATOM     19  C   UNL     1       4.074  -7.294  -1.370  0.00  0.00    +0.115 C 
BRANCH  19  20
ATOM     20  N   UNL     1       4.767  -8.326  -2.146  0.00  0.00    -0.300 N 
ATOM     21  C   UNL     1       4.402  -8.559  -3.545  0.00  0.00    +0.132 C 
ATOM     22  C   UNL     1       5.740  -9.060  -1.571  0.00  0.00    +0.253 C 
ATOM     23  O   UNL     1       5.973  -8.939  -0.383  0.00  0.00    -0.269 OA
BRANCH  22  24
ATOM     24  C   UNL     1       6.519 -10.004  -2.379  0.00  0.00    +0.074 A 
ATOM     25  C   UNL     1       7.469 -10.927  -1.969  0.00  0.00    +0.021 A 
ATOM     26  C   UNL     1       8.037 -11.682  -2.968  0.00  0.00    +0.008 A 
ATOM     27  C   UNL     1       7.644 -11.482  -4.250  0.00  0.00    +0.046 A 
ATOM     28  S   UNL     1       6.486 -10.269  -4.141  0.00  0.00    -0.092 S 
ENDBRANCH  22  24
ENDBRANCH  19  20
ENDBRANCH  18  19
ENDBRANCH   3  18
TORSDOF 5
