REMARK  Name = ZINC03445714
REMARK  12 active torsions:
REMARK  status: ('A' for Active; 'I' for Inactive)
REMARK    1  A    between atoms: C_1  and  C_2
REMARK    2  A    between atoms: C_2  and  O_3
REMARK    3  A    between atoms: O_3  and  C_4
REMARK    4  A    between atoms: C_4  and  C_6
REMARK    5  A    between atoms: C_10  and  N_11
REMARK    6  A    between atoms: C_12  and  C_14
REMARK    7  A    between atoms: C_14  and  C_16
REMARK    8  A    between atoms: C_14  and  N_65
REMARK    9  A    between atoms: C_22  and  C_23
REMARK   10  A    between atoms: C_22  and  N_65
REMARK   11  A    between atoms: C_23  and  C_24
REMARK   12  A    between atoms: C_31  and  C_35
REMARK                            x       y       z     vdW  Elec       q    Type
REMARK                         _______ _______ _______ _____ _____    ______ ____
ROOT
ATOM      1  N   UNL     1      -2.345   0.357   2.407  0.00  0.00    -0.280 N 
ATOM      2  C   UNL     1      -3.065   0.927   1.421  0.00  0.00    +0.208 C 
ATOM      3  O   UNL     1      -4.157   1.397   1.661  0.00  0.00    -0.277 OA
ATOM      4  H   UNL     1      -1.472  -0.020   2.215  0.00  0.00    +0.155 HD
ENDROOT
BRANCH   1   9
ATOM      5  C   UNL     1      -2.269  -0.236   4.833  0.00  0.00    +0.091 A 
ATOM      6  C   UNL     1      -3.016  -0.152   6.077  0.00  0.00    -0.021 A 
ATOM      7  C   UNL     1      -4.222   0.449   5.983  0.00  0.00    -0.004 A 
ATOM      8  S   UNL     1      -4.370   0.906   4.279  0.00  0.00    -0.077 S 
ATOM      9  C   UNL     1      -2.852   0.308   3.696  0.00  0.00    +0.086 A 
ATOM     10  C   UNL     1      -5.207   0.673   7.089  0.00  0.00    +0.046 C 
ATOM     11  C   UNL     1      -4.489   0.454   8.428  0.00  0.00    -0.009 C 
ATOM     12  C   UNL     1      -3.700  -0.857   8.356  0.00  0.00    +0.008 C 
ATOM     13  C   UNL     1      -2.512  -0.697   7.407  0.00  0.00    +0.037 C 
ATOM     14  C   UNL     1      -5.521   0.373   9.556  0.00  0.00    +0.008 C 
BRANCH   5  15
ATOM     15  C   UNL     1      -0.949  -0.868   4.781  0.00  0.00    +0.342 C 
ATOM     16  O   UNL     1       0.052  -0.203   4.973  0.00  0.00    -0.245 OA
BRANCH  15  17
ATOM     17  O   UNL     1      -0.842  -2.187   4.521  0.00  0.00    -0.461 OA
BRANCH  17  19
ATOM     18  C   UNL     1       0.419  -4.243   4.179  0.00  0.00    +0.048 C 
ATOM     19  C   UNL     1       0.498  -2.746   4.486  0.00  0.00    +0.229 C 
ENDBRANCH  17  19
ENDBRANCH  15  17
ENDBRANCH   5  15
ENDBRANCH   1   9
BRANCH   2  20
ATOM     20  C   UNL     1      -2.514   0.980   0.019  0.00  0.00    +0.047 C 
BRANCH  20  21
ATOM     21  C   UNL     1      -1.219   1.751   0.017  0.00  0.00    -0.053 A 
ATOM     22  C   UNL     1      -0.013   1.076   0.008  0.00  0.00    +0.002 A 
ATOM     23  C   UNL     1       1.175   1.783   0.000  0.00  0.00    +0.000 A 
ATOM     24  C   UNL     1       1.156   3.165   0.008  0.00  0.00    +0.000 A 
ATOM     25  C   UNL     1      -0.050   3.840   0.022  0.00  0.00    +0.000 A 
ATOM     26  C   UNL     1      -1.238   3.133   0.030  0.00  0.00    +0.002 A 
ENDBRANCH  20  21
BRANCH  20  27
ATOM     27  N   UNL     1      -3.489   1.652  -0.859  0.00  0.00    +0.390 N 
ATOM     28  H   UNL     1      -3.354   2.668  -0.799  0.00  0.00    -0.084 HD
ATOM     29  H   UNL     1      -4.440   1.414  -0.555  0.00  0.00    -0.084 HD
BRANCH  27  30
ATOM     30  C   UNL     1      -3.303   1.219  -2.257  0.00  0.00    -0.076 C 
BRANCH  30  31
ATOM     31  C   UNL     1      -4.326   1.932  -3.143  0.00  0.00    +0.016 C 
BRANCH  31  32
ATOM     32  C   UNL     1      -4.143   1.495  -4.574  0.00  0.00    -0.049 A 
ATOM     33  C   UNL     1      -3.288   2.193  -5.406  0.00  0.00    +0.003 A 
ATOM     34  C   UNL     1      -3.116   1.789  -6.717  0.00  0.00    +0.000 A 
ATOM     35  C   UNL     1      -3.807   0.693  -7.198  0.00  0.00    +0.000 A 
ATOM     36  C   UNL     1      -4.666  -0.002  -6.368  0.00  0.00    +0.000 A 
ATOM     37  C   UNL     1      -4.834   0.399  -5.056  0.00  0.00    +0.003 A 
ENDBRANCH  31  32
ENDBRANCH  30  31
ENDBRANCH  27  30
ENDBRANCH  20  27
ENDBRANCH   2  20
TORSDOF 10
