REMARK  Name = ZINC60274569
REMARK  4 active torsions:
REMARK  status: ('A' for Active; 'I' for Inactive)
REMARK    1  A    between atoms: N_10  and  C_13
REMARK    2  A    between atoms: C_13  and  C_14
REMARK    3  A    between atoms: C_21  and  C_23
REMARK    4  A    between atoms: C_28  and  O_29
REMARK                            x       y       z     vdW  Elec       q    Type
REMARK                         _______ _______ _______ _____ _____    ______ ____
ROOT
ATOM      1  C   UNL     1       0.650  -7.160  -1.479  0.00  0.00    +0.020 C 
ATOM      2  C   UNL     1       0.797  -8.418  -2.338  0.00  0.00    +0.008 C 
ATOM      3  C   UNL     1      -0.330  -9.399  -2.006  0.00  0.00    +0.019 C 
ATOM      4  C   UNL     1      -0.231  -9.805  -0.533  0.00  0.00    +0.108 C 
ATOM      5  N   UNL     1      -0.226  -8.590   0.293  0.00  0.00    -0.297 N 
ATOM      6  C   UNL     1       0.759  -7.540   0.001  0.00  0.00    +0.112 C 
ATOM      7  C   UNL     1      -1.109  -8.441   1.300  0.00  0.00    +0.250 C 
ATOM      8  O   UNL     1      -1.167  -7.389   1.908  0.00  0.00    -0.270 OA
ENDROOT
BRANCH   7   9
ATOM      9  C   UNL     1      -2.007  -9.553   1.665  0.00  0.00    +0.080 A 
ATOM     10  C   UNL     1      -1.495 -10.843   1.832  0.00  0.00    +0.036 A 
ATOM     11  C   UNL     1      -2.340 -11.878   2.173  0.00  0.00    +0.042 A 
ATOM     12  C   UNL     1      -3.695 -11.646   2.352  0.00  0.00    +0.023 A 
ATOM     13  C   UNL     1      -4.212 -10.376   2.191  0.00  0.00    +0.047 A 
ATOM     14  C   UNL     1      -3.376  -9.322   1.853  0.00  0.00    +0.129 A 
ATOM     15 CL   UNL     1      -1.703 -13.480   2.379  0.00  0.00    -0.084 Cl
BRANCH  14  16
ATOM     16  O   UNL     1      -3.883  -8.072   1.700  0.00  0.00    -0.506 OA
ATOM     17  H   UNL     1      -4.175  -7.874   0.800  0.00  0.00    +0.292 HD
ENDBRANCH  14  16
ENDBRANCH   7   9
BRANCH   1  18
ATOM     18  C   UNL     1       1.758  -6.167  -1.835  0.00  0.00    +0.089 C 
BRANCH  18  28
ATOM     19  C   UNL     1      -0.153   1.079  -1.497  0.00  0.00    +0.005 A 
ATOM     20  C   UNL     1       0.991   1.849  -1.334  0.00  0.00    +0.018 A 
ATOM     21  C   UNL     1       2.163   1.241  -0.933  0.00  0.00    +0.084 A 
ATOM     22  N   UNL     1       2.208  -0.058  -0.705  0.00  0.00    -0.350 N 
ATOM     23  C   UNL     1       1.140  -0.826  -0.850  0.00  0.00    +0.099 A 
ATOM     24  C   UNL     1      -0.075  -0.280  -1.250  0.00  0.00    +0.042 A 
ATOM     25  N   UNL     1       1.233  -2.190  -0.599  0.00  0.00    -0.314 N 
ATOM     26  C   UNL     1       2.530  -2.817  -0.301  0.00  0.00    +0.122 C 
ATOM     27  C   UNL     1       2.710  -4.025  -1.226  0.00  0.00    +0.103 C 
ATOM     28  N   UNL     1       1.547  -4.914  -1.097  0.00  0.00    -0.299 NA
ATOM     29  C   UNL     1       0.315  -4.245  -1.535  0.00  0.00    +0.103 C 
ATOM     30  C   UNL     1       0.035  -3.045  -0.618  0.00  0.00    +0.122 C 
ATOM     31  H   UNL     1       3.045  -0.460  -0.424  0.00  0.00    +0.166 HD
ENDBRANCH  18  28
ENDBRANCH   1  18
TORSDOF 4
