REMARK  Name = ZINC14139305
REMARK  8 active torsions:
REMARK  status: ('A' for Active; 'I' for Inactive)
REMARK    1  A    between atoms: C_1  and  C_2
REMARK    2  A    between atoms: C_5  and  O_8
REMARK    3  A    between atoms: O_8  and  C_9
REMARK    4  A    between atoms: C_9  and  C_11
REMARK    5  A    between atoms: C_9  and  C_12
REMARK    6  A    between atoms: N_14  and  C_15
REMARK    7  A    between atoms: C_16  and  C_26
REMARK    8  A    between atoms: C_21  and  C_25
REMARK                            x       y       z     vdW  Elec       q    Type
REMARK                         _______ _______ _______ _____ _____    ______ ____
ROOT
ATOM      1  C   UNL     1       3.523  -6.061   1.099  0.00  0.00    +0.084 A 
ATOM      2  C   UNL     1       4.556  -6.971   1.268  0.00  0.00    +0.068 A 
ATOM      3  C   UNL     1       4.234  -8.246   1.887  0.00  0.00    -0.023 A 
ATOM      4  C   UNL     1       2.937  -8.408   2.227  0.00  0.00    -0.004 A 
ATOM      5  S   UNL     1       2.150  -6.898   1.743  0.00  0.00    -0.077 S 
ATOM      6  C   UNL     1       2.316  -9.608   2.873  0.00  0.00    +0.046 C 
ATOM      7  C   UNL     1       3.440 -10.490   3.437  0.00  0.00    -0.009 C 
ATOM      8  C   UNL     1       4.516 -10.666   2.361  0.00  0.00    +0.008 C 
ATOM      9  C   UNL     1       5.257  -9.345   2.145  0.00  0.00    +0.037 C 
ATOM     10  C   UNL     1       2.874 -11.857   3.825  0.00  0.00    +0.008 C 
ENDROOT
BRANCH   2  11
ATOM     11  C   UNL     1       5.923  -6.658   0.840  0.00  0.00    +0.244 C 
ATOM     12  O   UNL     1       6.694  -6.120   1.613  0.00  0.00    -0.270 OA
ATOM     13  N   UNL     1       6.326  -6.965  -0.409  0.00  0.00    -0.325 N 
ATOM     14  H   UNL     1       5.711  -7.393  -1.025  0.00  0.00    +0.145 HD
ATOM     15  H   UNL     1       7.230  -6.757  -0.692  0.00  0.00    +0.145 HD
ENDBRANCH   2  11
BRANCH   1  18
ATOM     16  C   UNL     1       2.455  -4.047   0.457  0.00  0.00    +0.258 C 
ATOM     17  O   UNL     1       1.401  -4.487   0.865  0.00  0.00    -0.271 OA
ATOM     18  N   UNL     1       3.575  -4.792   0.543  0.00  0.00    -0.276 N 
ATOM     19  H   UNL     1       4.418  -4.439   0.216  0.00  0.00    +0.155 HD
BRANCH  16  20
ATOM     20  C   UNL     1       2.512  -2.667  -0.147  0.00  0.00    +0.256 C 
ATOM     21  C   UNL     1       2.883  -2.773  -1.627  0.00  0.00    +0.062 C 
BRANCH  20  22
ATOM     22  O   UNL     1       1.234  -2.039  -0.020  0.00  0.00    -0.480 OA
BRANCH  22  27
ATOM     23  C   UNL     1       1.146   3.593   0.002  0.00  0.00    +0.044 C 
ATOM     24  C   UNL     1       1.170   2.086  -0.004  0.00  0.00    -0.050 A 
ATOM     25  C   UNL     1       2.357   1.415  -0.236  0.00  0.00    +0.007 A 
ATOM     26  C   UNL     1       2.381   0.034  -0.242  0.00  0.00    +0.046 A 
ATOM     27  C   UNL     1       1.213  -0.680  -0.015  0.00  0.00    +0.122 A 
ATOM     28  C   UNL     1       0.024  -0.005   0.218  0.00  0.00    +0.046 A 
ATOM     29  C   UNL     1       0.005   1.377   0.223  0.00  0.00    +0.007 A 
ENDBRANCH  22  27
ENDBRANCH  20  22
ENDBRANCH  16  20
ENDBRANCH   1  18
TORSDOF 5
