REMARK  Name = ZINC06764133
REMARK  10 active torsions:
REMARK  status: ('A' for Active; 'I' for Inactive)
REMARK    1  A    between atoms: C_1  and  C_2
REMARK    2  A    between atoms: C_9  and  N_13
REMARK    3  A    between atoms: C_10  and  C_11
REMARK    4  A    between atoms: N_13  and  C_14
REMARK    5  A    between atoms: C_14  and  N_16
REMARK    6  A    between atoms: C_17  and  C_19
REMARK    7  A    between atoms: C_21  and  O_27
REMARK    8  A    between atoms: C_23  and  O_25
REMARK    9  A    between atoms: O_25  and  C_26
REMARK   10  A    between atoms: O_27  and  C_28
REMARK                            x       y       z     vdW  Elec       q    Type
REMARK                         _______ _______ _______ _____ _____    ______ ____
ROOT
ATOM      1  C   UNL     1       2.229  -6.108  -3.022  0.00  0.00    +0.141 C 
ATOM      2  S   UNL     1       2.189  -4.850  -4.183  0.00  0.00    -0.018 S 
ENDROOT
BRANCH   1   3
ATOM      3  N   UNL     1       2.558  -7.360  -3.397  0.00  0.00    -0.264 N 
ATOM      4  C   UNL     1       2.856  -7.622  -4.685  0.00  0.00    +0.250 C 
ATOM      5  O   UNL     1       2.828  -6.729  -5.509  0.00  0.00    -0.270 OA
ATOM      6  H   UNL     1       2.581  -8.073  -2.739  0.00  0.00    +0.157 HD
BRANCH   4   7
ATOM      7  C   UNL     1       3.217  -8.995  -5.095  0.00  0.00    +0.044 A 
ATOM      8  C   UNL     1       3.256 -10.021  -4.150  0.00  0.00    +0.059 A 
ATOM      9  C   UNL     1       3.588 -11.308  -4.540  0.00  0.00    +0.124 A 
ATOM     10  C   UNL     1       3.895 -11.575  -5.866  0.00  0.00    +0.091 A 
ATOM     11  C   UNL     1       3.863 -10.557  -6.809  0.00  0.00    +0.124 A 
ATOM     12  C   UNL     1       3.526  -9.269  -6.428  0.00  0.00    +0.059 A 
BRANCH  11  13
ATOM     13  O   UNL     1       4.164 -10.825  -8.107  0.00  0.00    -0.495 OA
ATOM     14  C   UNL     1       4.503 -12.175  -8.429  0.00  0.00    +0.277 C 
ENDBRANCH  11  13
BRANCH   9  15
ATOM     15  O   UNL     1       3.621 -12.309  -3.621  0.00  0.00    -0.495 OA
ATOM     16  C   UNL     1       3.978 -13.610  -4.091  0.00  0.00    +0.277 C 
ENDBRANCH   9  15
ENDBRANCH   4   7
ENDBRANCH   1   3
BRANCH   1  17
ATOM     17  N   UNL     1       1.931  -5.846  -1.734  0.00  0.00    -0.290 N 
ATOM     18  H   UNL     1       1.954  -6.559  -1.077  0.00  0.00    +0.154 HD
BRANCH  17  26
ATOM     19  C   UNL     1      -0.019   1.526   0.010  0.00  0.00    +0.008 C 
ATOM     20  C   UNL     1       0.002  -0.004   0.002  0.00  0.00    -0.009 C 
ATOM     21  C   UNL     1       0.742  -0.514   1.242  0.00  0.00    +0.008 C 
ATOM     22  C   UNL     1       0.556  -2.027   1.373  0.00  0.00    +0.037 C 
ATOM     23  C   UNL     1       0.941  -2.684   0.053  0.00  0.00    -0.018 A 
ATOM     24  C   UNL     1       1.008  -1.965  -1.089  0.00  0.00    -0.004 A 
ATOM     25  S   UNL     1       1.485  -3.134  -2.331  0.00  0.00    -0.077 S 
ATOM     26  C   UNL     1       1.593  -4.557  -1.349  0.00  0.00    +0.089 A 
ATOM     27  C   UNL     1       1.258  -4.095  -0.085  0.00  0.00    +0.084 A 
ATOM     28  C   UNL     1       0.736  -0.502  -1.252  0.00  0.00    +0.046 C 
BRANCH  27  29
ATOM     29  C   UNL     1       1.226  -4.977   1.043  0.00  0.00    +0.102 C 
ATOM     30  N   UNL     1       1.201  -5.677   1.938  0.00  0.00    -0.191 NA
ENDBRANCH  27  29
ENDBRANCH  17  26
ENDBRANCH   1  17
TORSDOF 7
