REMARK  Name = ZINC10969567
REMARK  8 active torsions:
REMARK  status: ('A' for Active; 'I' for Inactive)
REMARK    1  A    between atoms: C_1  and  C_2
REMARK    2  A    between atoms: C_2  and  C_4
REMARK    3  A    between atoms: C_2  and  N_14
REMARK    4  A    between atoms: C_7  and  S_10
REMARK    5  A    between atoms: S_10  and  C_13
REMARK    6  A    between atoms: C_15  and  C_17
REMARK    7  A    between atoms: C_17  and  N_18
REMARK    8  A    between atoms: C_20  and  C_26
REMARK                            x       y       z     vdW  Elec       q    Type
REMARK                         _______ _______ _______ _____ _____    ______ ____
ROOT
ATOM      1  N   UNL     1      -3.064   4.307   5.187  0.00  0.00    -0.307 N 
ATOM      2  C   UNL     1      -4.077   4.752   5.958  0.00  0.00    +0.233 C 
ATOM      3  O   UNL     1      -4.678   3.979   6.674  0.00  0.00    -0.274 OA
ATOM      4  H   UNL     1      -2.584   4.925   4.614  0.00  0.00    +0.149 HD
ENDROOT
BRANCH   1   6
ATOM      5  C   UNL     1      -1.722   2.642   6.373  0.00  0.00    +0.033 C 
ATOM      6  C   UNL     1      -2.690   2.891   5.215  0.00  0.00    +0.100 C 
BRANCH   6   7
ATOM      7  C   UNL     1      -2.022   2.523   3.915  0.00  0.00    -0.027 A 
ATOM      8  C   UNL     1      -2.295   1.306   3.318  0.00  0.00    +0.007 A 
ATOM      9  C   UNL     1      -1.683   0.968   2.126  0.00  0.00    +0.027 A 
ATOM     10  C   UNL     1      -0.798   1.847   1.530  0.00  0.00    +0.088 A 
ATOM     11  C   UNL     1      -0.521   3.062   2.129  0.00  0.00    +0.027 A 
ATOM     12  C   UNL     1      -1.137   3.402   3.319  0.00  0.00    +0.007 A 
BRANCH  10  13
ATOM     13  S   UNL     1      -0.017   1.417   0.010  0.00  0.00    -0.006 S 
ATOM     14  O   UNL     1       0.002  -0.004   0.002  0.00  0.00    -0.170 OA
ATOM     15  O   UNL     1       1.195   2.158   0.002  0.00  0.00    -0.170 OA
ATOM     16  C   UNL     1      -1.135   2.034  -1.279  0.00  0.00    +0.200 C 
ENDBRANCH  10  13
ENDBRANCH   6   7
ENDBRANCH   1   6
BRANCH   2  17
ATOM     17  C   UNL     1      -4.462   6.208   5.929  0.00  0.00    +0.220 C 
BRANCH  17  18
ATOM     18  N   UNL     1      -5.581   6.436   6.847  0.00  0.00    -0.305 N 
ATOM     19  C   UNL     1      -5.332   6.758   8.143  0.00  0.00    +0.102 A 
ATOM     20  C   UNL     1      -6.348   6.973   9.009  0.00  0.00    +0.073 A 
ATOM     21  C   UNL     1      -7.676   6.863   8.573  0.00  0.00    +0.039 A 
ATOM     22  C   UNL     1      -7.925   6.539   7.271  0.00  0.00    +0.106 A 
ATOM     23  C   UNL     1      -6.845   6.327   6.396  0.00  0.00    +0.270 A 
ATOM     24  O   UNL     1      -7.053   6.041   5.227  0.00  0.00    -0.266 OA
ATOM     25 CL   UNL     1      -9.558   6.396   6.699  0.00  0.00    -0.078 Cl
BRANCH  20  26
ATOM     26  C   UNL     1      -6.054   7.330  10.444  0.00  0.00    +0.419 C 
ATOM     27  F   UNL     1      -6.076   8.721  10.592  0.00  0.00    -0.166 F 
ATOM     28  F   UNL     1      -7.022   6.756  11.275  0.00  0.00    -0.166 F 
ATOM     29  F   UNL     1      -4.790   6.843  10.795  0.00  0.00    -0.166 F 
ENDBRANCH  20  26
ENDBRANCH  17  18
ENDBRANCH   2  17
TORSDOF 6
