REMARK  Name = ZINC36571694
REMARK  15 active torsions:
REMARK  status: ('A' for Active; 'I' for Inactive)
REMARK    1  A    between atoms: C_1  and  C_2
REMARK    2  A    between atoms: C_2  and  C_3
REMARK    3  A    between atoms: C_3  and  N_4
REMARK    4  A    between atoms: N_4  and  C_5
REMARK    5  A    between atoms: C_5  and  C_7
REMARK    6  A    between atoms: C_5  and  C_13
REMARK    7  A    between atoms: N_15  and  C_16
REMARK    8  A    between atoms: C_16  and  S_17
REMARK    9  A    between atoms: S_17  and  C_20
REMARK   10  A    between atoms: C_23  and  C_26
REMARK   11  A    between atoms: C_27  and  C_29
REMARK   12  A    between atoms: C_29  and  C_30
REMARK   13  A    between atoms: C_30  and  C_31
REMARK   14  A    between atoms: C_34  and  O_37
REMARK   15  A    between atoms: O_37  and  C_38
REMARK                            x       y       z     vdW  Elec       q    Type
REMARK                         _______ _______ _______ _____ _____    ______ ____
ROOT
ATOM      1  C   UNL     1      -1.416  -2.737   1.274  0.00  0.00    +0.165 C 
ENDROOT
BRANCH   1   2
ATOM      2  C   UNL     1      -0.128  -2.079   1.771  0.00  0.00    +0.018 C 
ATOM      3  C   UNL     1       1.053  -2.571   0.932  0.00  0.00    +0.006 C 
ATOM      4  C   UNL     1       2.342  -1.912   1.429  0.00  0.00    +0.000 C 
ATOM      5  C   UNL     1       2.570  -2.281   2.896  0.00  0.00    +0.000 C 
ATOM      6  C   UNL     1       1.389  -1.788   3.735  0.00  0.00    +0.000 C 
ATOM      7  C   UNL     1       0.101  -2.447   3.238  0.00  0.00    +0.006 C 
ENDBRANCH   1   2
BRANCH   1   8
ATOM      8  C   UNL     1      -2.574  -2.279   2.123  0.00  0.00    +0.235 C 
ATOM      9  O   UNL     1      -3.408  -1.531   1.657  0.00  0.00    -0.274 OA
ATOM     10  N   UNL     1      -2.683  -2.699   3.398  0.00  0.00    -0.295 N 
ATOM     11  H   UNL     1      -1.981  -3.240   3.792  0.00  0.00    +0.150 HD
BRANCH  10  12
ATOM     12  C   UNL     1      -3.861  -2.338   4.191  0.00  0.00    +0.278 C 
BRANCH  12  13
ATOM     13  S   UNL     1      -5.083  -3.677   4.101  0.00  0.00    +0.013 S 
ATOM     14  O   UNL     1      -6.206  -3.369   4.916  0.00  0.00    -0.168 OA
ATOM     15  O   UNL     1      -5.257  -4.091   2.753  0.00  0.00    -0.168 OA
BRANCH  13  16
ATOM     16  C   UNL     1      -4.312  -5.047   4.897  0.00  0.00    +0.090 A 
ATOM     17  C   UNL     1      -3.545  -5.931   4.161  0.00  0.00    +0.027 A 
ATOM     18  C   UNL     1      -2.940  -7.006   4.785  0.00  0.00    +0.005 A 
ATOM     19  C   UNL     1      -3.102  -7.197   6.145  0.00  0.00    -0.050 A 
ATOM     20  C   UNL     1      -3.868  -6.312   6.880  0.00  0.00    +0.005 A 
ATOM     21  C   UNL     1      -4.469  -5.235   6.257  0.00  0.00    +0.027 A 
ATOM     22  C   UNL     1      -2.443  -8.369   6.825  0.00  0.00    +0.044 C 
ENDBRANCH  13  16
ENDBRANCH  12  13
ENDBRANCH  10  12
ENDBRANCH   1   8
BRANCH   1  23
ATOM     23  N   UNL     1      -1.652  -2.358  -0.121  0.00  0.00    -0.290 N 
ATOM     24  C   UNL     1      -1.719  -3.307  -1.075  0.00  0.00    +0.216 C 
ATOM     25  O   UNL     1      -1.584  -4.475  -0.779  0.00  0.00    -0.276 OA
BRANCH  23  26
ATOM     26  C   UNL     1      -1.816  -0.947  -0.478  0.00  0.00    +0.108 C 
BRANCH  26  28
ATOM     27  C   UNL     1      -0.621   1.130  -1.187  0.00  0.00    +0.005 C 
ATOM     28  C   UNL     1      -0.450  -0.344  -0.813  0.00  0.00    +0.016 C 
ENDBRANCH  26  28
ENDBRANCH  23  26
BRANCH  24  29
ATOM     29  C   UNL     1      -1.962  -2.917  -2.511  0.00  0.00    +0.100 C 
BRANCH  29  30
ATOM     30  C   UNL     1      -1.992  -4.173  -3.383  0.00  0.00    +0.044 C 
BRANCH  30  31
ATOM     31  C   UNL     1      -2.235  -3.783  -4.818  0.00  0.00    -0.047 A 
ATOM     32  C   UNL     1      -3.529  -3.691  -5.299  0.00  0.00    +0.007 A 
ATOM     33  C   UNL     1      -3.754  -3.334  -6.614  0.00  0.00    +0.046 A 
ATOM     34  C   UNL     1      -2.681  -3.066  -7.453  0.00  0.00    +0.120 A 
ATOM     35  C   UNL     1      -1.385  -3.159  -6.968  0.00  0.00    +0.046 A 
ATOM     36  C   UNL     1      -1.165  -3.511  -5.650  0.00  0.00    +0.007 A 
BRANCH  34  37
ATOM     37  O   UNL     1      -2.900  -2.715  -8.747  0.00  0.00    -0.495 OA
ATOM     38  C   UNL     1      -1.749  -2.454  -9.552  0.00  0.00    +0.277 C 
ENDBRANCH  34  37
ENDBRANCH  30  31
ENDBRANCH  29  30
ENDBRANCH  24  29
ENDBRANCH   1  23
TORSDOF 12
