REMARK  Name = ZINC39370741
REMARK  4 active torsions:
REMARK  status: ('A' for Active; 'I' for Inactive)
REMARK    1  A    between atoms: C_7  and  C_10
REMARK    2  A    between atoms: C_11  and  C_12
REMARK    3  A    between atoms: C_11  and  S_14
REMARK    4  A    between atoms: S_14  and  C_15
REMARK                            x       y       z     vdW  Elec       q    Type
REMARK                         _______ _______ _______ _____ _____    ______ ____
ROOT
ATOM      1  C   UNL     1       1.012  -3.214  -0.197  0.00  0.00    +0.031 C 
ATOM      2  C   UNL     1       1.332  -4.562  -0.237  0.00  0.00    +0.087 C 
ENDROOT
BRANCH   1   9
ATOM      3  C   UNL     1       0.870   1.310  -0.456  0.00  0.00    +0.001 A 
ATOM      4  C   UNL     1       2.131   1.901  -0.542  0.00  0.00    +0.002 A 
ATOM      5  C   UNL     1       3.268   1.162  -0.546  0.00  0.00    +0.026 A 
ATOM      6  C   UNL     1       3.191  -0.252  -0.460  0.00  0.00    +0.043 A 
ATOM      7  N   UNL     1       4.131  -1.177  -0.445  0.00  0.00    -0.380 N 
ATOM      8  C   UNL     1       3.508  -2.501  -0.342  0.00  0.00    +0.149 C 
ATOM      9  C   UNL     1       2.016  -2.259  -0.294  0.00  0.00    -0.018 C 
ATOM     10  C   UNL     1       1.859  -0.869  -0.368  0.00  0.00    +0.003 A 
ATOM     11  C   UNL     1       0.721  -0.038  -0.371  0.00  0.00    +0.010 A 
ATOM     12  H   UNL     1       5.085  -1.009  -0.494  0.00  0.00    +0.160 HD
ENDBRANCH   1   9
BRANCH   2  13
ATOM     13  C   UNL     1       2.704  -4.973  -0.254  0.00  0.00    +0.106 C 
ATOM     14  N   UNL     1       3.792  -5.298  -0.266  0.00  0.00    -0.190 NA
ENDBRANCH   2  13
BRANCH   2  15
ATOM     15  S   UNL     1       0.051  -5.772  -0.269  0.00  0.00    -0.081 S 
BRANCH  15  16
ATOM     16  C   UNL     1       0.229  -6.642   1.312  0.00  0.00    +0.198 C 
ATOM     17  N   UNL     1       1.601  -7.136   1.492  0.00  0.00    -0.323 N 
ATOM     18  C   UNL     1       2.330  -6.638   2.570  0.00  0.00    +0.042 A 
ATOM     19  C   UNL     1       3.651  -6.993   2.899  0.00  0.00    +0.024 A 
ATOM     20  C   UNL     1       4.285  -6.443   3.989  0.00  0.00    +0.002 A 
ATOM     21  C   UNL     1       3.647  -5.521   4.797  0.00  0.00    +0.001 A 
ATOM     22  C   UNL     1       2.346  -5.152   4.497  0.00  0.00    +0.016 A 
ATOM     23  C   UNL     1       1.712  -5.704   3.407  0.00  0.00    +0.031 A 
ATOM     24  S   UNL     1       0.082  -5.479   2.727  0.00  0.00    -0.090 S 
ATOM     25  H   UNL     1       1.985  -7.786   0.882  0.00  0.00    +0.148 HD
ENDBRANCH  15  16
ENDBRANCH   2  15
TORSDOF 4
