REMARK  Name = ZINC32642517
REMARK  9 active torsions:
REMARK  status: ('A' for Active; 'I' for Inactive)
REMARK    1  A    between atoms: C_1  and  C_2
REMARK    2  A    between atoms: N_8  and  C_9
REMARK    3  A    between atoms: C_9  and  C_10
REMARK    4  A    between atoms: C_10  and  C_11
REMARK    5  A    between atoms: C_11  and  N_12
REMARK    6  A    between atoms: C_13  and  C_15
REMARK    7  A    between atoms: N_25  and  S_26
REMARK    8  A    between atoms: S_26  and  C_29
REMARK    9  A    between atoms: C_32  and  C_35
REMARK                            x       y       z     vdW  Elec       q    Type
REMARK                         _______ _______ _______ _____ _____    ______ ____
ROOT
ATOM      1  C   UNL     1       1.345   1.563  -5.962  0.00  0.00    +0.170 C 
ATOM      2  C   UNL     1       2.675   2.003  -5.351  0.00  0.00    +0.065 C 
ATOM      3  C   UNL     1       3.828   1.606  -6.234  0.00  0.00    -0.041 A 
ATOM      4  C   UNL     1       5.090   1.539  -5.656  0.00  0.00    +0.004 A 
ATOM      5  C   UNL     1       6.191   1.191  -6.411  0.00  0.00    +0.000 A 
ATOM      6  C   UNL     1       6.040   0.907  -7.755  0.00  0.00    +0.000 A 
ATOM      7  C   UNL     1       4.788   0.970  -8.332  0.00  0.00    +0.005 A 
ATOM      8  C   UNL     1       3.679   1.314  -7.572  0.00  0.00    -0.028 A 
ATOM      9  C   UNL     1       2.336   1.338  -8.258  0.00  0.00    +0.145 C 
ATOM     10  N   UNL     1       1.343   1.965  -7.378  0.00  0.00    -0.160 NA
ENDROOT
BRANCH   1  12
ATOM     11  N   UNL     1      -0.865   1.513  -4.853  0.00  0.00    -0.314 N 
ATOM     12  C   UNL     1       0.206   2.234  -5.240  0.00  0.00    +0.232 C 
ATOM     13  O   UNL     1       0.252   3.424  -5.007  0.00  0.00    -0.274 OA
ATOM     14  H   UNL     1      -0.907   0.434  -5.064  0.00  0.00    +0.149 HD
BRANCH  11  15
ATOM     15  C   UNL     1      -1.973   2.166  -4.151  0.00  0.00    +0.102 C 
BRANCH  15  16
ATOM     16  C   UNL     1      -3.052   1.131  -3.827  0.00  0.00    +0.000 C 
BRANCH  16  17
ATOM     17  C   UNL     1      -4.209   1.812  -3.094  0.00  0.00    -0.077 C 
BRANCH  17  24
ATOM     18  C   UNL     1      -5.460   1.851  -0.574  0.00  0.00    -0.013 C 
ATOM     19  C   UNL     1      -6.208   1.349  -1.810  0.00  0.00    -0.072 C 
ATOM     20  C   UNL     1      -7.184   0.243  -1.401  0.00  0.00    -0.016 C 
ATOM     21  C   UNL     1      -7.917  -0.271  -2.644  0.00  0.00    -0.003 C 
ATOM     22  C   UNL     1      -6.888  -0.772  -3.662  0.00  0.00    -0.019 C 
ATOM     23  C   UNL     1      -5.921   0.363  -4.005  0.00  0.00    -0.078 C 
ATOM     24  N   UNL     1      -5.245   0.818  -2.783  0.00  0.00    +0.381 N 
ATOM     25  H   UNL     1      -4.754  -0.053  -2.327  0.00  0.00    -0.081 HD
ENDBRANCH  17  24
ENDBRANCH  16  17
ENDBRANCH  15  16
ENDBRANCH  11  15
ENDBRANCH   1  12
BRANCH  10  26
ATOM     26  S   UNL     1       0.263   3.079  -7.956  0.00  0.00    +0.062 S 
ATOM     27  O   UNL     1       0.071   2.783  -9.332  0.00  0.00    -0.153 OA
ATOM     28  O   UNL     1      -0.813   3.120  -7.028  0.00  0.00    -0.153 OA
BRANCH  26  29
ATOM     29  C   UNL     1       1.050   4.654  -7.884  0.00  0.00    +0.106 A 
ATOM     30  C   UNL     1       0.929   5.436  -6.751  0.00  0.00    +0.029 A 
ATOM     31  C   UNL     1       1.551   6.669  -6.692  0.00  0.00    +0.014 A 
ATOM     32  C   UNL     1       2.285   7.125  -7.772  0.00  0.00    +0.055 A 
ATOM     33  C   UNL     1       2.401   6.345  -8.907  0.00  0.00    +0.014 A 
ATOM     34  C   UNL     1       1.784   5.109  -8.963  0.00  0.00    +0.029 A 
BRANCH  32  35
ATOM     35  C   UNL     1       2.957   8.472  -7.711  0.00  0.00    +0.417 C 
ATOM     36  F   UNL     1       2.082   9.453  -8.190  0.00  0.00    -0.166 F 
ATOM     37  F   UNL     1       3.302   8.762  -6.386  0.00  0.00    -0.166 F 
ATOM     38  F   UNL     1       4.113   8.453  -8.500  0.00  0.00    -0.166 F 
ENDBRANCH  32  35
ENDBRANCH  26  29
ENDBRANCH  10  26
TORSDOF 8
