REMARK  Name = ZINC16611898
REMARK  12 active torsions:
REMARK  status: ('A' for Active; 'I' for Inactive)
REMARK    1  A    between atoms: C_1  and  C_2
REMARK    2  A    between atoms: C_2  and  O_3
REMARK    3  A    between atoms: O_3  and  C_4
REMARK    4  A    between atoms: C_4  and  C_6
REMARK    5  A    between atoms: C_7  and  C_39
REMARK    6  A    between atoms: N_8  and  C_20
REMARK    7  A    between atoms: C_12  and  C_14
REMARK    8  A    between atoms: C_20  and  C_21
REMARK    9  A    between atoms: C_24  and  C_26
REMARK   10  A    between atoms: C_34  and  O_36
REMARK   11  A    between atoms: O_36  and  C_37
REMARK   12  A    between atoms: C_37  and  C_38
REMARK                            x       y       z     vdW  Elec       q    Type
REMARK                         _______ _______ _______ _____ _____    ______ ____
ROOT
ATOM      1  C   UNL     1       0.305  -0.516   0.917  0.00  0.00    +0.061 C 
ATOM      2  C   UNL     1       0.184   0.789   0.621  0.00  0.00    +0.021 C 
ATOM      3  N   UNL     1       1.272   1.620   0.613  0.00  0.00    -0.268 N 
ATOM      4  C   UNL     1       2.522   1.124   0.622  0.00  0.00    +0.221 C 
ATOM      5  O   UNL     1       3.470   1.876   0.705  0.00  0.00    -0.275 OA
ATOM      6  C   UNL     1       2.749  -0.363   0.527  0.00  0.00    +0.109 C 
ATOM      7  C   UNL     1       1.645  -1.094   1.294  0.00  0.00    +0.066 C 
ATOM      8  C   UNL     1      -1.175   1.347   0.283  0.00  0.00    +0.061 C 
ENDROOT
BRANCH   7   9
ATOM      9  C   UNL     1       1.866  -0.927   2.775  0.00  0.00    -0.039 A 
ATOM     10  C   UNL     1       1.885   0.338   3.333  0.00  0.00    +0.004 A 
ATOM     11  C   UNL     1       2.083   0.490   4.692  0.00  0.00    +0.000 A 
ATOM     12  C   UNL     1       2.272  -0.621   5.492  0.00  0.00    +0.000 A 
ATOM     13  C   UNL     1       2.259  -1.885   4.934  0.00  0.00    +0.000 A 
ATOM     14  C   UNL     1       2.055  -2.038   3.575  0.00  0.00    +0.004 A 
ENDBRANCH   7   9
BRANCH   1  15
ATOM     15  C   UNL     1      -0.835  -1.354   0.877  0.00  0.00    +0.337 C 
ATOM     16  O   UNL     1      -1.027  -2.072  -0.086  0.00  0.00    -0.245 OA
BRANCH  15  17
ATOM     17  O   UNL     1      -1.708  -1.355   1.906  0.00  0.00    -0.462 OA
BRANCH  17  19
ATOM     18  C   UNL     1      -3.706  -2.090   3.049  0.00  0.00    +0.048 C 
ATOM     19  C   UNL     1      -2.836  -2.225   1.798  0.00  0.00    +0.229 C 
ENDBRANCH  17  19
ENDBRANCH  15  17
ENDBRANCH   1  15
BRANCH   3  20
ATOM     20  C   UNL     1       1.072   3.071   0.596  0.00  0.00    +0.187 C 
BRANCH  20  21
ATOM     21  C   UNL     1       1.000   3.586   2.010  0.00  0.00    +0.124 A 
ATOM     22  C   UNL     1       2.051   3.999   2.752  0.00  0.00    +0.047 A 
ATOM     23  C   UNL     1       1.545   4.398   3.999  0.00  0.00    +0.055 A 
ATOM     24  C   UNL     1       0.196   4.196   3.958  0.00  0.00    +0.190 A 
ATOM     25  O   UNL     1      -0.116   3.702   2.742  0.00  0.00    -0.453 OA
BRANCH  24  26
ATOM     26  C   UNL     1      -0.750   4.469   5.045  0.00  0.00    +0.282 C 
ATOM     27  O   UNL     1      -0.337   4.784   6.146  0.00  0.00    -0.267 OA
ATOM     28  N   UNL     1      -2.076   4.371   4.826  0.00  0.00    -0.292 N 
ATOM     29  C   UNL     1      -3.028   4.472   5.941  0.00  0.00    +0.127 C 
ATOM     30  C   UNL     1      -4.037   5.588   5.618  0.00  0.00    +0.130 C 
ATOM     31  N   UNL     1      -4.556   5.371   4.260  0.00  0.00    -0.264 N 
ATOM     32  C   UNL     1      -3.604   5.264   3.146  0.00  0.00    +0.130 C 
ATOM     33  C   UNL     1      -2.595   4.154   3.468  0.00  0.00    +0.127 C 
ATOM     34  C   UNL     1      -5.882   5.272   4.041  0.00  0.00    +0.403 C 
ATOM     35  O   UNL     1      -6.300   5.093   2.914  0.00  0.00    -0.226 OA
BRANCH  34  36
ATOM     36  O   UNL     1      -6.744   5.372   5.070  0.00  0.00    -0.451 OA
BRANCH  36  37
ATOM     37  C   UNL     1      -8.158   5.257   4.760  0.00  0.00    +0.230 C 
ATOM     38  C   UNL     1      -8.975   5.395   6.045  0.00  0.00    +0.048 C 
ENDBRANCH  36  37
ENDBRANCH  34  36
ENDBRANCH  24  26
ENDBRANCH  20  21
ENDBRANCH   3  20
TORSDOF 9
