REMARK  Name = ZINC21344308
REMARK  4 active torsions:
REMARK  status: ('A' for Active; 'I' for Inactive)
REMARK    1  A    between atoms: C_9  and  C_13
REMARK    2  A    between atoms: C_13  and  O_32
REMARK    3  A    between atoms: N_20  and  C_23
REMARK    4  A    between atoms: C_23  and  C_24
REMARK                            x       y       z     vdW  Elec       q    Type
REMARK                         _______ _______ _______ _____ _____    ______ ____
ROOT
ATOM      1  C   UNL     1       1.486   3.561   0.007  0.00  0.00    +0.178 C 
ATOM      2  C   UNL     1       1.029   2.122  -0.078  0.00  0.00    +0.016 A 
ATOM      3  C   UNL     1      -0.215   1.539  -0.159  0.00  0.00    +0.024 A 
ATOM      4  C   UNL     1      -0.328   0.160  -0.227  0.00  0.00    +0.018 A 
ATOM      5  C   UNL     1       0.811  -0.625  -0.213  0.00  0.00    +0.017 A 
ATOM      6  C   UNL     1       2.059  -0.042  -0.132  0.00  0.00    +0.025 A 
ATOM      7  C   UNL     1       2.180   1.345  -0.064  0.00  0.00    +0.043 A 
ATOM      8  N   UNL     1       3.310   2.159   0.022  0.00  0.00    -0.264 N 
ATOM      9  C   UNL     1       2.995   3.464   0.068  0.00  0.00    +0.257 C 
ATOM     10  O   UNL     1       3.774   4.391   0.144  0.00  0.00    -0.272 OA
ATOM     11 BR   UNL     1      -2.034  -0.647  -0.339  0.00  0.00    -0.050 Br
ENDROOT
BRANCH   1  20
ATOM     12  C   UNL     1       1.284   7.533   5.173  0.00  0.00    +0.000 A 
ATOM     13  C   UNL     1       1.600   8.275   4.048  0.00  0.00    +0.001 A 
ATOM     14  C   UNL     1       1.663   7.662   2.814  0.00  0.00    +0.011 A 
ATOM     15  C   UNL     1       1.406   6.292   2.706  0.00  0.00    +0.021 A 
ATOM     16  C   UNL     1       1.084   5.547   3.841  0.00  0.00    -0.037 A 
ATOM     17  C   UNL     1       1.028   6.179   5.071  0.00  0.00    +0.004 A 
ATOM     18  C   UNL     1       0.789   4.075   3.760  0.00  0.00    +0.036 C 
ATOM     19  C   UNL     1       1.410   3.454   2.512  0.00  0.00    +0.020 C 
ATOM     20  C   UNL     1       0.939   4.226   1.272  0.00  0.00    +0.106 C 
ATOM     21  C   UNL     1       1.478   5.636   1.386  0.00  0.00    +0.170 C 
ATOM     22  O   UNL     1       1.952   6.207   0.426  0.00  0.00    -0.292 OA
ENDBRANCH   1  20
BRANCH   1  23
ATOM     23  O   UNL     1       1.077   4.285  -1.155  0.00  0.00    -0.374 OA
ATOM     24  H   UNL     1       1.384   3.942  -2.154  0.00  0.00    +0.211 HD
ENDBRANCH   1  23
BRANCH   8  25
ATOM     25  C   UNL     1       4.683   1.649   0.059  0.00  0.00    +0.148 C 
BRANCH  25  26
ATOM     26  C   UNL     1       5.216   1.538  -1.347  0.00  0.00    -0.030 A 
ATOM     27  C   UNL     1       5.050   0.364  -2.058  0.00  0.00    +0.006 A 
ATOM     28  C   UNL     1       5.533   0.264  -3.349  0.00  0.00    +0.020 A 
ATOM     29  C   UNL     1       6.193   1.334  -3.925  0.00  0.00    +0.041 A 
ATOM     30  C   UNL     1       6.363   2.507  -3.211  0.00  0.00    +0.020 A 
ATOM     31  C   UNL     1       5.875   2.608  -1.922  0.00  0.00    +0.006 A 
ATOM     32 CL   UNL     1       6.806   1.206  -5.544  0.00  0.00    -0.084 Cl
ENDBRANCH  25  26
ENDBRANCH   8  25
TORSDOF 4
