REMARK  Name = ZINC63029066
REMARK  6 active torsions:
REMARK  status: ('A' for Active; 'I' for Inactive)
REMARK    1  A    between atoms: C_1  and  C_2
REMARK    2  A    between atoms: C_2  and  C_4
REMARK    3  A    between atoms: C_2  and  C_18
REMARK    4  A    between atoms: C_13  and  N_14
REMARK    5  A    between atoms: C_18  and  C_20
REMARK    6  A    between atoms: C_18  and  N_21
REMARK                            x       y       z     vdW  Elec       q    Type
REMARK                         _______ _______ _______ _____ _____    ______ ____
ROOT
ATOM      1  C   UNL     1      -1.357  -1.242  -0.544  0.00  0.00    -0.005 A 
ATOM      2  C   UNL     1      -1.834  -2.065   0.493  0.00  0.00    +0.007 A 
ATOM      3  C   UNL     1      -0.999  -2.998   1.129  0.00  0.00    +0.025 A 
ATOM      4  C   UNL     1      -1.497  -3.776   2.130  0.00  0.00    +0.019 A 
ATOM      5  C   UNL     1      -2.827  -3.658   2.531  0.00  0.00    +0.017 A 
ATOM      6  C   UNL     1      -3.664  -2.765   1.937  0.00  0.00    +0.029 A 
ATOM      7  C   UNL     1      -3.186  -1.944   0.900  0.00  0.00    +0.071 A 
ATOM      8  N   UNL     1      -3.984  -1.056   0.299  0.00  0.00    -0.253 NA
ATOM      9  C   UNL     1      -3.543  -0.287  -0.666  0.00  0.00    +0.144 A 
ATOM     10  C   UNL     1      -2.225  -0.353  -1.113  0.00  0.00    +0.148 A 
ATOM     11 BR   UNL     1      -0.372  -5.032   2.984  0.00  0.00    -0.050 Br
ENDROOT
BRANCH  10  12
ATOM     12  N   UNL     1      -1.767   0.536  -2.203  0.00  0.00    +0.058 N 
ATOM     13  O   UNL     1      -2.459   0.700  -3.181  0.00  0.00    -0.126 OA
ATOM     14  O   UNL     1      -0.700   1.098  -2.116  0.00  0.00    -0.126 OA
ENDBRANCH  10  12
BRANCH   1  16
ATOM     15  C   UNL     1       0.362  -2.759  -1.489  0.00  0.00    +0.011 C 
ATOM     16  C   UNL     1       0.073  -1.334  -1.011  0.00  0.00    +0.004 C 
BRANCH  16  17
ATOM     17  C   UNL     1       1.010  -0.983   0.145  0.00  0.00    -0.071 C 
ATOM     18  C   UNL     1       0.707   0.434   0.636  0.00  0.00    -0.014 C 
BRANCH  17  19
ATOM     19  N   UNL     1       2.404  -1.054  -0.315  0.00  0.00    +0.380 N 
ATOM     20  H   UNL     1       2.542  -0.400  -1.070  0.00  0.00    -0.090 HD
ATOM     21  H   UNL     1       3.022  -0.823   0.448  0.00  0.00    -0.090 HD
ATOM     22  H   UNL     1       2.604  -1.989  -0.638  0.00  0.00    -0.090 HD
ENDBRANCH  17  19
ENDBRANCH  16  17
ENDBRANCH   1  16
TORSDOF 4
