REMARK  Name = ZINC42289187
REMARK  4 active torsions:
REMARK  status: ('A' for Active; 'I' for Inactive)
REMARK    1  A    between atoms: C_1  and  C_2
REMARK    2  A    between atoms: C_2  and  C_4
REMARK    3  A    between atoms: C_2  and  N_18
REMARK    4  A    between atoms: N_6  and  C_7
REMARK                            x       y       z     vdW  Elec       q    Type
REMARK                         _______ _______ _______ _____ _____    ______ ____
ROOT
ATOM      1  C   UNL     1       0.386   1.558  -0.448  0.00  0.00    +0.204 C 
ATOM      2  O   UNL     1       1.264   2.226   0.059  0.00  0.00    -0.277 OA
ATOM      3  N   UNL     1      -0.619   2.160  -1.114  0.00  0.00    -0.282 N 
ATOM      4  H   UNL     1      -1.295   1.625  -1.558  0.00  0.00    +0.155 HD
ENDROOT
BRANCH   3   5
ATOM      5  C   UNL     1      -0.686   3.560  -1.166  0.00  0.00    +0.111 A 
ATOM      6  C   UNL     1      -1.183   4.191  -2.300  0.00  0.00    +0.185 A 
ATOM      7  C   UNL     1      -1.250   5.574  -2.348  0.00  0.00    +0.198 A 
ATOM      8  C   UNL     1      -0.821   6.328  -1.267  0.00  0.00    +0.199 A 
ATOM      9  C   UNL     1      -0.325   5.700  -0.136  0.00  0.00    +0.198 A 
ATOM     10  C   UNL     1      -0.262   4.318  -0.081  0.00  0.00    +0.185 A 
ATOM     11  F   UNL     1       0.216   3.706   1.025  0.00  0.00    -0.200 F 
ATOM     12  F   UNL     1       0.094   6.437   0.917  0.00  0.00    -0.199 F 
ATOM     13  F   UNL     1      -0.886   7.676  -1.317  0.00  0.00    -0.199 F 
ATOM     14  F   UNL     1      -1.732   6.188  -3.451  0.00  0.00    -0.199 F 
ATOM     15  F   UNL     1      -1.600   3.457  -3.354  0.00  0.00    -0.200 F 
ENDBRANCH   3   5
BRANCH   1  17
ATOM     16  C   UNL     1      -0.751  -0.415   0.534  0.00  0.00    -0.004 C 
ATOM     17  C   UNL     1       0.420   0.056  -0.331  0.00  0.00    +0.016 C 
BRANCH  17  18
ATOM     18  N   UNL     1       1.685  -0.359   0.289  0.00  0.00    +0.387 N 
ATOM     19  C   UNL     1       1.792  -1.823   0.250  0.00  0.00    -0.078 C 
ATOM     20  C   UNL     1       3.242  -2.239   0.488  0.00  0.00    -0.019 C 
ATOM     21  C   UNL     1       4.178  -1.354  -0.334  0.00  0.00    -0.002 C 
ATOM     22  C   UNL     1       5.003  -0.471   0.608  0.00  0.00    -0.000 C 
ATOM     23  C   UNL     1       4.104   0.643   1.152  0.00  0.00    -0.002 C 
ATOM     24  C   UNL     1       3.156   0.063   2.202  0.00  0.00    -0.019 C 
ATOM     25  C   UNL     1       1.720   0.102   1.683  0.00  0.00    -0.078 C 
ATOM     26  H   UNL     1       2.457   0.047  -0.218  0.00  0.00    -0.081 HD
ENDBRANCH  17  18
ENDBRANCH   1  17
TORSDOF 3
