REMARK  Name = ZINC01106921
REMARK  7 active torsions:
REMARK  status: ('A' for Active; 'I' for Inactive)
REMARK    1  A    between atoms: C_1  and  C_2
REMARK    2  A    between atoms: C_2  and  C_3
REMARK    3  A    between atoms: C_3  and  N_4
REMARK    4  A    between atoms: C_8  and  C_9
REMARK    5  A    between atoms: N_11  and  C_18
REMARK    6  A    between atoms: C_18  and  C_19
REMARK    7  A    between atoms: C_22  and  N_25
REMARK                            x       y       z     vdW  Elec       q    Type
REMARK                         _______ _______ _______ _____ _____    ______ ____
ROOT
ATOM      1  C   UNL     1      -2.419   3.663  -4.917  0.00  0.00    +0.002 A 
ATOM      2  C   UNL     1      -3.288   2.625  -5.103  0.00  0.00    +0.095 A 
ATOM      3  N   UNL     1      -3.998   2.822  -6.243  0.00  0.00    -0.342 N 
ATOM      4  C   UNL     1      -3.618   4.003  -6.849  0.00  0.00    +0.050 A 
ATOM      5  C   UNL     1      -2.622   4.586  -6.050  0.00  0.00    +0.007 A 
ATOM      6  C   UNL     1      -2.052   5.801  -6.420  0.00  0.00    +0.010 A 
ATOM      7  C   UNL     1      -2.473   6.429  -7.572  0.00  0.00    +0.001 A 
ATOM      8  C   UNL     1      -3.461   5.857  -8.360  0.00  0.00    +0.002 A 
ATOM      9  C   UNL     1      -4.027   4.650  -8.010  0.00  0.00    +0.026 A 
ENDROOT
BRANCH   1  14
ATOM     10  N   UNL     1      -1.294   2.211  -0.657  0.00  0.00    -0.246 N 
ATOM     11  C   UNL     1      -0.742   3.039  -1.564  0.00  0.00    +0.269 C 
ATOM     12  O   UNL     1       0.323   3.621  -1.460  0.00  0.00    -0.268 OA
ATOM     13  C   UNL     1      -1.637   3.106  -2.667  0.00  0.00    +0.105 C 
ATOM     14  C   UNL     1      -1.478   3.829  -3.809  0.00  0.00    +0.041 C 
ATOM     15  N   UNL     1      -2.718   2.276  -2.336  0.00  0.00    -0.333 N 
ATOM     16  C   UNL     1      -2.469   1.753  -1.121  0.00  0.00    +0.153 C 
ATOM     17  S   UNL     1      -3.499   0.668  -0.288  0.00  0.00    -0.015 SA
ATOM     18  H   UNL     1      -3.645   2.016  -2.867  0.00  0.00    +0.168 HD
BRANCH  10  19
ATOM     19  C   UNL     1      -0.701   1.857   0.635  0.00  0.00    +0.116 C 
BRANCH  19  21
ATOM     20  C   UNL     1      -0.546   2.485   3.049  0.00  0.00    +0.005 C 
ATOM     21  C   UNL     1      -1.166   2.854   1.699  0.00  0.00    +0.016 C 
ENDBRANCH  19  21
ENDBRANCH  10  19
ENDBRANCH   1  14
BRANCH   3  22
ATOM     22  C   UNL     1      -5.023   1.911  -6.758  0.00  0.00    +0.157 C 
BRANCH  22  23
ATOM     23  C   UNL     1      -4.405   0.978  -7.767  0.00  0.00    -0.028 A 
ATOM     24  C   UNL     1      -4.378   1.325  -9.105  0.00  0.00    +0.007 A 
ATOM     25  C   UNL     1      -3.807   0.471 -10.029  0.00  0.00    +0.033 A 
ATOM     26  C   UNL     1      -3.270  -0.735  -9.617  0.00  0.00    +0.126 A 
ATOM     27  C   UNL     1      -3.302  -1.085  -8.280  0.00  0.00    +0.033 A 
ATOM     28  C   UNL     1      -3.869  -0.228  -7.355  0.00  0.00    +0.007 A 
BRANCH  26  29
ATOM     29  N   UNL     1      -2.663  -1.651 -10.608  0.00  0.00    +0.056 N 
ATOM     30  O   UNL     1      -2.190  -2.714 -10.245  0.00  0.00    -0.126 OA
ATOM     31  O   UNL     1      -2.635  -1.343 -11.786  0.00  0.00    -0.126 OA
ENDBRANCH  26  29
ENDBRANCH  22  23
ENDBRANCH   3  22
TORSDOF 6
