REMARK  Name = ZINC09936935
REMARK  19 active torsions:
REMARK  status: ('A' for Active; 'I' for Inactive)
REMARK    1  A    between atoms: C_1  and  C_2
REMARK    2  A    between atoms: C_2  and  C_3
REMARK    3  A    between atoms: C_3  and  N_78
REMARK    4  A    between atoms: C_4  and  C_5
REMARK    5  A    between atoms: C_4  and  N_78
REMARK    6  A    between atoms: C_5  and  C_6
REMARK    7  A    between atoms: C_7  and  C_8
REMARK    8  A    between atoms: C_7  and  N_78
REMARK    9  A    between atoms: C_8  and  C_9
REMARK   10  A    between atoms: C_9  and  N_10
REMARK   11  A    between atoms: C_11  and  C_13
REMARK   12  A    between atoms: C_17  and  O_37
REMARK   13  A    between atoms: C_18  and  O_35
REMARK   14  A    between atoms: N_23  and  C_34
REMARK   15  A    between atoms: C_24  and  C_26
REMARK   16  A    between atoms: C_29  and  S_32
REMARK   17  A    between atoms: S_32  and  C_33
REMARK   18  A    between atoms: O_35  and  C_36
REMARK   19  A    between atoms: O_37  and  C_38
REMARK                            x       y       z     vdW  Elec       q    Type
REMARK                         _______ _______ _______ _____ _____    ______ ____
ROOT
ATOM      1  C   UNL     1      -2.149  -2.380   1.730  0.00  0.00    +0.130 C 
ATOM      2  C   UNL     1      -2.866  -3.638   2.145  0.00  0.00    -0.018 A 
ATOM      3  C   UNL     1      -2.400  -4.396   3.196  0.00  0.00    +0.054 A 
ATOM      4  C   UNL     1      -3.091  -5.534   3.591  0.00  0.00    +0.162 A 
ATOM      5  C   UNL     1      -4.256  -5.915   2.926  0.00  0.00    +0.162 A 
ATOM      6  C   UNL     1      -4.725  -5.162   1.866  0.00  0.00    +0.062 A 
ATOM      7  C   UNL     1      -4.026  -4.022   1.467  0.00  0.00    +0.045 A 
ATOM      8  C   UNL     1      -4.494  -3.208   0.328  0.00  0.00    +0.247 C 
ATOM      9  O   UNL     1      -5.607  -3.376  -0.131  0.00  0.00    -0.270 OA
ATOM     10  N   UNL     1      -3.676  -2.276  -0.198  0.00  0.00    -0.292 N 
ATOM     11  C   UNL     1      -2.280  -2.173   0.224  0.00  0.00    +0.122 C 
ATOM     12  C   UNL     1      -4.194  -1.351  -1.208  0.00  0.00    +0.133 C 
ENDROOT
BRANCH  11  13
ATOM     13  C   UNL     1      -1.754  -0.808  -0.137  0.00  0.00    -0.026 A 
ATOM     14  C   UNL     1      -1.797  -0.376  -1.450  0.00  0.00    +0.006 A 
ATOM     15  C   UNL     1      -1.321   0.876  -1.783  0.00  0.00    +0.015 A 
ATOM     16  C   UNL     1      -0.787   1.699  -0.799  0.00  0.00    +0.008 A 
ATOM     17  C   UNL     1      -0.739   1.260   0.519  0.00  0.00    +0.015 A 
ATOM     18  C   UNL     1      -1.223   0.008   0.845  0.00  0.00    +0.006 A 
BRANCH  16  19
ATOM     19  S   UNL     1      -0.171   3.295  -1.220  0.00  0.00    -0.129 S 
ATOM     20  C   UNL     1      -0.444   3.412  -3.010  0.00  0.00    +0.090 C 
ENDBRANCH  16  19
ENDBRANCH  11  13
BRANCH   1  22
ATOM     21  N   UNL     1      -2.436  -0.967   3.740  0.00  0.00    -0.315 N 
ATOM     22  C   UNL     1      -2.750  -1.200   2.451  0.00  0.00    +0.223 C 
ATOM     23  O   UNL     1      -3.516  -0.461   1.870  0.00  0.00    -0.275 OA
ATOM     24  H   UNL     1      -1.823  -1.559   4.205  0.00  0.00    +0.149 HD
BRANCH  21  25
ATOM     25  C   UNL     1      -3.020   0.179   4.441  0.00  0.00    +0.102 C 
BRANCH  25  26
ATOM     26  C   UNL     1      -2.503   0.215   5.881  0.00  0.00    +0.000 C 
BRANCH  26  27
ATOM     27  C   UNL     1      -3.113   1.412   6.612  0.00  0.00    -0.077 C 
BRANCH  27  28
ATOM     28  N   UNL     1      -2.622   1.420   8.006  0.00  0.00    +0.380 N 
ATOM     29  H   UNL     1      -2.781   0.495   8.421  0.00  0.00    -0.082 HD
BRANCH  28  30
ATOM     30  C   UNL     1      -1.173   1.714   8.029  0.00  0.00    -0.079 C 
BRANCH  30  32
ATOM     31  C   UNL     1       0.606   3.381   7.484  0.00  0.00    +0.002 C 
ATOM     32  C   UNL     1      -0.897   3.098   7.439  0.00  0.00    -0.022 C 
ENDBRANCH  30  32
ENDBRANCH  28  30
BRANCH  28  33
ATOM     33  C   UNL     1      -3.355   2.433   8.794  0.00  0.00    -0.079 C 
BRANCH  33  34
ATOM     34  C   UNL     1      -3.032   2.232  10.276  0.00  0.00    -0.022 C 
ATOM     35  C   UNL     1      -3.879   3.190  11.117  0.00  0.00    +0.002 C 
ENDBRANCH  33  34
ENDBRANCH  28  33
ENDBRANCH  27  28
ENDBRANCH  26  27
ENDBRANCH  25  26
ENDBRANCH  21  25
ENDBRANCH   1  22
BRANCH   5  36
ATOM     36  O   UNL     1      -4.933  -7.026   3.321  0.00  0.00    -0.491 OA
ATOM     37  C   UNL     1      -6.118  -7.357   2.595  0.00  0.00    +0.277 C 
ENDBRANCH   5  36
BRANCH   4  38
ATOM     38  O   UNL     1      -2.630  -6.279   4.628  0.00  0.00    -0.491 OA
ATOM     39  C   UNL     1      -1.431  -5.834   5.265  0.00  0.00    +0.277 C 
ENDBRANCH   4  38
TORSDOF 13
