REMARK  Name = ZINC63851961
REMARK  8 active torsions:
REMARK  status: ('A' for Active; 'I' for Inactive)
REMARK    1  A    between atoms: C_1  and  C_2
REMARK    2  A    between atoms: C_2  and  C_3
REMARK    3  A    between atoms: C_2  and  C_4
REMARK    4  A    between atoms: C_6  and  C_23
REMARK    5  A    between atoms: C_7  and  N_9
REMARK    6  A    between atoms: N_9  and  N_10
REMARK    7  A    between atoms: C_11  and  C_13
REMARK    8  A    between atoms: C_13  and  C_16
REMARK                            x       y       z     vdW  Elec       q    Type
REMARK                         _______ _______ _______ _____ _____    ______ ____
ROOT
ATOM      1  N   UNL     1      -3.728  -2.939  -2.505  0.00  0.00    -0.233 N 
ATOM      2  C   UNL     1      -4.623  -3.681  -3.186  0.00  0.00    +0.240 C 
ATOM      3  O   UNL     1      -5.716  -3.904  -2.708  0.00  0.00    -0.273 OA
ATOM      4  H   UNL     1      -2.830  -2.823  -2.852  0.00  0.00    +0.173 HD
ENDROOT
BRANCH   2   5
ATOM      5  C   UNL     1      -4.267  -4.235  -4.542  0.00  0.00    +0.073 C 
ATOM      6  C   UNL     1      -4.594  -5.705  -4.812  0.00  0.00    +0.022 C 
ATOM      7  C   UNL     1      -3.141  -5.269  -4.609  0.00  0.00    +0.022 C 
BRANCH   5   8
ATOM      8  C   UNL     1      -4.396  -3.270  -5.692  0.00  0.00    -0.032 A 
ATOM      9  C   UNL     1      -3.576  -3.400  -6.798  0.00  0.00    +0.006 A 
ATOM     10  C   UNL     1      -3.693  -2.516  -7.854  0.00  0.00    +0.015 A 
ATOM     11  C   UNL     1      -4.631  -1.500  -7.804  0.00  0.00    +0.018 A 
ATOM     12  C   UNL     1      -5.452  -1.371  -6.697  0.00  0.00    +0.015 A 
ATOM     13  C   UNL     1      -5.337  -2.259  -5.644  0.00  0.00    +0.006 A 
ATOM     14 BR   UNL     1      -4.792  -0.290  -9.248  0.00  0.00    -0.050 Br
ENDBRANCH   5   8
ENDBRANCH   2   5
BRANCH   1  15
ATOM     15  N   UNL     1      -4.095  -2.334  -1.296  0.00  0.00    -0.232 N 
ATOM     16  H   UNL     1      -4.994  -2.450  -0.949  0.00  0.00    +0.173 HD
BRANCH  15  20
ATOM     17  C   UNL     1      -1.350  -0.547  -0.009  0.00  0.00    +0.202 A 
ATOM     18  N   UNL     1      -2.220  -0.296   0.920  0.00  0.00    -0.200 NA
ATOM     19  C   UNL     1      -3.390  -0.918   0.602  0.00  0.00    +0.202 A 
ATOM     20  C   UNL     1      -3.179  -1.574  -0.599  0.00  0.00    +0.241 A 
ATOM     21  O   UNL     1      -1.906  -1.321  -0.955  0.00  0.00    -0.423 OA
BRANCH  17  23
ATOM     22  C   UNL     1       0.064   1.490  -0.024  0.00  0.00    +0.017 C 
ATOM     23  C   UNL     1       0.069  -0.040  -0.029  0.00  0.00    +0.069 C 
ATOM     24  C   UNL     1       0.810  -0.551   1.209  0.00  0.00    +0.017 C 
ENDBRANCH  17  23
BRANCH  19  25
ATOM     25  C   UNL     1      -4.604  -0.896   1.361  0.00  0.00    +0.124 C 
ATOM     26  N   UNL     1      -5.566  -0.879   1.964  0.00  0.00    -0.189 NA
ENDBRANCH  19  25
ENDBRANCH  15  20
ENDBRANCH   1  15
TORSDOF 6
