REMARK  Name = ZINC63805817
REMARK  9 active torsions:
REMARK  status: ('A' for Active; 'I' for Inactive)
REMARK    1  A    between atoms: C_1  and  C_2
REMARK    2  A    between atoms: C_7  and  C_8
REMARK    3  A    between atoms: C_8  and  C_9
REMARK    4  A    between atoms: C_8  and  C_10
REMARK    5  A    between atoms: C_11  and  C_14
REMARK    6  A    between atoms: C_14  and  C_15
REMARK    7  A    between atoms: N_17  and  N_18
REMARK    8  A    between atoms: C_19  and  C_21
REMARK    9  A    between atoms: C_21  and  C_22
REMARK                            x       y       z     vdW  Elec       q    Type
REMARK                         _______ _______ _______ _____ _____    ______ ____
ROOT
ATOM      1  C   UNL     1      -0.409  -5.856   1.132  0.00  0.00    +0.234 C 
ATOM      2  O   UNL     1      -1.494  -5.367   0.896  0.00  0.00    -0.274 OA
ATOM      3  N   UNL     1      -0.310  -6.896   1.983  0.00  0.00    -0.234 N 
ATOM      4  H   UNL     1       0.558  -7.287   2.172  0.00  0.00    +0.173 HD
ENDROOT
BRANCH   3   5
ATOM      5  N   UNL     1      -1.459  -7.413   2.595  0.00  0.00    -0.234 N 
ATOM      6  C   UNL     1      -1.360  -8.454   3.446  0.00  0.00    +0.233 C 
ATOM      7  O   UNL     1      -0.275  -8.942   3.682  0.00  0.00    -0.274 OA
ATOM      8  H   UNL     1      -2.327  -7.022   2.406  0.00  0.00    +0.173 HD
BRANCH   6   9
ATOM      9  C   UNL     1      -2.596  -9.010   4.104  0.00  0.00    +0.130 C 
BRANCH   9  10
ATOM     10  C   UNL     1      -2.214 -10.159   5.001  0.00  0.00    -0.033 C 
ATOM     11  C   UNL     1      -1.974 -10.107   6.331  0.00  0.00    -0.001 A 
ATOM     12  C   UNL     1      -1.996  -9.008   7.303  0.00  0.00    +0.010 A 
ATOM     13  C   UNL     1      -1.704  -9.271   8.597  0.00  0.00    +0.001 A 
ATOM     14  C   UNL     1      -1.381 -10.564   9.032  0.00  0.00    +0.002 A 
ATOM     15  C   UNL     1      -1.341 -11.625   8.198  0.00  0.00    +0.026 A 
ATOM     16  C   UNL     1      -1.632 -11.463   6.816  0.00  0.00    +0.043 A 
ATOM     17  N   UNL     1      -1.658 -12.320   5.824  0.00  0.00    -0.380 N 
ATOM     18  C   UNL     1      -2.027 -11.604   4.597  0.00  0.00    +0.145 C 
ATOM     19  H   UNL     1      -1.470 -13.269   5.890  0.00  0.00    +0.160 HD
ENDBRANCH   9  10
ENDBRANCH   6   9
ENDBRANCH   3   5
BRANCH   1  20
ATOM     20  C   UNL     1       0.827  -5.299   0.474  0.00  0.00    +0.136 C 
BRANCH  20  28
ATOM     21  C   UNL     1      -0.485   1.457   0.078  0.00  0.00    +0.044 C 
ATOM     22  C   UNL     1      -0.222  -0.026   0.035  0.00  0.00    -0.044 A 
ATOM     23  C   UNL     1      -0.327  -0.702  -1.162  0.00  0.00    +0.050 A 
ATOM     24  C   UNL     1      -0.086  -2.069  -1.210  0.00  0.00    +0.135 A 
ATOM     25  C   UNL     1       0.264  -2.748  -0.030  0.00  0.00    +0.024 A 
ATOM     26  C   UNL     1       0.366  -2.052   1.174  0.00  0.00    +0.016 A 
ATOM     27  C   UNL     1       0.128  -0.695   1.198  0.00  0.00    -0.041 A 
ATOM     28  C   UNL     1       0.445  -4.150  -0.423  0.00  0.00    +0.007 A 
ATOM     29  C   UNL     1       0.203  -4.203  -1.740  0.00  0.00    +0.200 A 
ATOM     30  O   UNL     1      -0.109  -2.980  -2.203  0.00  0.00    -0.463 OA
BRANCH  27  31
ATOM     31  C   UNL     1       0.243   0.064   2.495  0.00  0.00    +0.013 C 
ATOM     32  C   UNL     1      -0.844  -0.411   3.462  0.00  0.00    +0.012 C 
ATOM     33  C   UNL     1       1.620  -0.188   3.112  0.00  0.00    +0.012 C 
ENDBRANCH  27  31
ENDBRANCH  20  28
ENDBRANCH   1  20
TORSDOF 6
