REMARK  Name = ZINC34685752
REMARK  8 active torsions:
REMARK  status: ('A' for Active; 'I' for Inactive)
REMARK    1  A    between atoms: C_2  and  C_3
REMARK    2  A    between atoms: C_3  and  N_4
REMARK    3  A    between atoms: C_10  and  C_12
REMARK    4  A    between atoms: C_15  and  C_17
REMARK    5  A    between atoms: C_17  and  O_18
REMARK    6  A    between atoms: O_18  and  C_19
REMARK    7  A    between atoms: C_25  and  C_35
REMARK    8  A    between atoms: C_30  and  C_32
REMARK                            x       y       z     vdW  Elec       q    Type
REMARK                         _______ _______ _______ _____ _____    ______ ____
ROOT
ATOM      1  C   UNL     1      -9.026  -4.471  -1.870  0.00  0.00    +0.121 A 
ATOM      2  C   UNL     1     -10.001  -4.135  -2.799  0.00  0.00    +0.046 A 
ATOM      3  C   UNL     1     -11.317  -4.039  -2.404  0.00  0.00    +0.007 A 
ATOM      4  C   UNL     1     -11.681  -4.278  -1.083  0.00  0.00    -0.040 A 
ATOM      5  C   UNL     1     -10.715  -4.620  -0.163  0.00  0.00    -0.016 A 
ATOM      6  C   UNL     1      -9.388  -4.716  -0.556  0.00  0.00    +0.051 A 
ATOM      7  C   UNL     1     -11.044  -4.921   1.278  0.00  0.00    +0.137 C 
ATOM      8  N   UNL     1     -12.426  -4.521   1.563  0.00  0.00    -0.290 N 
ATOM      9  C   UNL     1     -13.453  -4.882   0.572  0.00  0.00    +0.113 C 
ATOM     10  C   UNL     1     -13.137  -4.138  -0.725  0.00  0.00    +0.054 C 
ATOM     11  C   UNL     1     -12.743  -3.849   2.688  0.00  0.00    +0.219 C 
ATOM     12  O   UNL     1     -11.892  -3.629   3.523  0.00  0.00    -0.275 OA
ENDROOT
BRANCH   7  13
ATOM     13  C   UNL     1     -10.106  -4.157   2.176  0.00  0.00    -0.023 A 
ATOM     14  C   UNL     1     -10.189  -2.779   2.251  0.00  0.00    +0.006 A 
ATOM     15  C   UNL     1      -9.328  -2.079   3.075  0.00  0.00    +0.000 A 
ATOM     16  C   UNL     1      -8.385  -2.756   3.825  0.00  0.00    +0.000 A 
ATOM     17  C   UNL     1      -8.303  -4.134   3.752  0.00  0.00    +0.000 A 
ATOM     18  C   UNL     1      -9.166  -4.835   2.931  0.00  0.00    +0.006 A 
ENDBRANCH   7  13
BRANCH  11  19
ATOM     19  C   UNL     1     -14.156  -3.373   2.908  0.00  0.00    +0.075 C 
ATOM     20  C   UNL     1     -14.406  -1.864   2.873  0.00  0.00    +0.013 C 
ATOM     21  C   UNL     1     -14.453  -2.617   4.204  0.00  0.00    +0.013 C 
ENDBRANCH  11  19
BRANCH   1  22
ATOM     22  O   UNL     1      -7.724  -4.563  -2.249  0.00  0.00    -0.484 OA
BRANCH  22  23
ATOM     23  C   UNL     1      -7.427  -4.295  -3.621  0.00  0.00    +0.303 C 
BRANCH  23  27
ATOM     24  C   UNL     1      -3.811  -3.964  -4.018  0.00  0.00    +0.190 A 
ATOM     25  C   UNL     1      -3.949  -5.288  -4.321  0.00  0.00    +0.055 A 
ATOM     26  C   UNL     1      -5.317  -5.586  -4.212  0.00  0.00    +0.049 A 
ATOM     27  C   UNL     1      -5.945  -4.446  -3.852  0.00  0.00    +0.143 A 
ATOM     28  O   UNL     1      -5.034  -3.471  -3.732  0.00  0.00    -0.452 OA
BRANCH  24  35
ATOM     29  N   UNL     1      -2.382   0.217  -1.779  0.00  0.00    +0.384 N 
ATOM     30  C   UNL     1      -1.180  -0.585  -2.043  0.00  0.00    -0.059 C 
ATOM     31  C   UNL     1      -1.271  -1.193  -3.447  0.00  0.00    +0.089 C 
ATOM     32  N   UNL     1      -2.534  -1.940  -3.550  0.00  0.00    -0.299 N 
ATOM     33  C   UNL     1      -3.776  -1.262  -3.147  0.00  0.00    +0.089 C 
ATOM     34  C   UNL     1      -3.566  -0.651  -1.758  0.00  0.00    -0.059 C 
ATOM     35  C   UNL     1      -2.553  -3.210  -4.001  0.00  0.00    +0.282 C 
ATOM     36  O   UNL     1      -1.526  -3.731  -4.395  0.00  0.00    -0.267 OA
ATOM     37  H   UNL     1      -2.487   0.910  -2.505  0.00  0.00    -0.081 HD
BRANCH  29  38
ATOM     38  C   UNL     1      -2.245   0.888  -0.480  0.00  0.00    -0.052 C 
BRANCH  38  40
ATOM     39  C   UNL     1      -1.303   3.126  -0.227  0.00  0.00    +0.002 C 
ATOM     40  C   UNL     1      -1.103   1.870  -0.540  0.00  0.00    -0.053 C 
ENDBRANCH  38  40
ENDBRANCH  29  38
ENDBRANCH  24  35
ENDBRANCH  23  27
ENDBRANCH  22  23
ENDBRANCH   1  22
TORSDOF 8
