REMARK  Name = ZINC40917152
REMARK  6 active torsions:
REMARK  status: ('A' for Active; 'I' for Inactive)
REMARK    1  A    between atoms: C_1  and  O_2
REMARK    2  A    between atoms: O_2  and  C_3
REMARK    3  A    between atoms: C_5  and  C_19
REMARK    4  A    between atoms: C_8  and  O_9
REMARK    5  A    between atoms: O_9  and  C_10
REMARK    6  A    between atoms: C_10  and  C_11
REMARK                            x       y       z     vdW  Elec       q    Type
REMARK                         _______ _______ _______ _____ _____    ______ ____
ROOT
ATOM      1  C   UNL     1       0.606  -0.608  -1.056  0.00  0.00    +0.163 A 
ATOM      2  C   UNL     1       1.173   0.159  -2.062  0.00  0.00    +0.055 A 
ATOM      3  C   UNL     1       1.786  -0.455  -3.138  0.00  0.00    -0.014 A 
ATOM      4  C   UNL     1       1.836  -1.835  -3.214  0.00  0.00    +0.025 A 
ATOM      5  C   UNL     1       1.273  -2.606  -2.213  0.00  0.00    +0.063 A 
ATOM      6  C   UNL     1       0.662  -1.996  -1.129  0.00  0.00    +0.176 A 
ATOM      7 BR   UNL     1       1.342  -4.493  -2.321  0.00  0.00    -0.046 Br
ENDROOT
BRANCH   3   8
ATOM      8  C   UNL     1       2.401   0.380  -4.231  0.00  0.00    +0.177 C 
ATOM      9  C   UNL     1       3.881   0.075  -4.325  0.00  0.00    +0.041 C 
ATOM     10  C   UNL     1       4.400  -0.656  -5.335  0.00  0.00    +0.020 C 
ATOM     11  C   UNL     1       5.879  -0.959  -5.391  0.00  0.00    +0.052 C 
ATOM     12  C   UNL     1       6.665   0.192  -4.760  0.00  0.00    +0.014 C 
ATOM     13  C   UNL     1       6.191   0.362  -3.312  0.00  0.00    +0.080 C 
ATOM     14  C   UNL     1       4.705   0.589  -3.308  0.00  0.00    +0.163 C 
ATOM     15  O   UNL     1       4.205   1.231  -2.406  0.00  0.00    -0.292 OA
ATOM     16  N   UNL     1       3.618  -1.148  -6.352  0.00  0.00    -0.286 N 
ATOM     17  C   UNL     1       2.334  -0.649  -6.485  0.00  0.00    +0.240 A 
ATOM     18  N   UNL     1       1.752   0.075  -5.496  0.00  0.00    -0.201 N 
ATOM     19  N   UNL     1       0.487   0.409  -5.978  0.00  0.00    -0.042 NA
ATOM     20  N   UNL     1       0.394  -0.112  -7.158  0.00  0.00    -0.021 NA
ATOM     21  N   UNL     1       1.475  -0.735  -7.460  0.00  0.00    -0.092 NA
ATOM     22  H   UNL     1       3.956  -1.826  -6.959  0.00  0.00    +0.155 HD
ENDBRANCH   3   8
BRANCH   1  24
ATOM     23  C   UNL     1      -0.017   1.425   0.010  0.00  0.00    +0.277 C 
ATOM     24  O   UNL     1       0.002  -0.004   0.002  0.00  0.00    -0.491 OA
ENDBRANCH   1  24
BRANCH   6  25
ATOM     25  O   UNL     1       0.112  -2.752  -0.141  0.00  0.00    -0.483 OA
BRANCH  25  26
ATOM     26  C   UNL     1      -1.259  -3.125  -0.296  0.00  0.00    +0.266 C 
BRANCH  26  27
ATOM     27  C   UNL     1      -1.691  -3.954   0.885  0.00  0.00    +0.008 A 
ATOM     28  C   UNL     1      -0.794  -4.232   1.900  0.00  0.00    +0.008 A 
ATOM     29  C   UNL     1      -1.190  -4.992   2.984  0.00  0.00    +0.000 A 
ATOM     30  C   UNL     1      -2.484  -5.476   3.054  0.00  0.00    +0.001 A 
ATOM     31  C   UNL     1      -3.381  -5.199   2.041  0.00  0.00    +0.020 A 
ATOM     32  C   UNL     1      -2.987  -4.433   0.958  0.00  0.00    +0.047 A 
ATOM     33 CL   UNL     1      -4.116  -4.079  -0.313  0.00  0.00    -0.083 Cl
ENDBRANCH  26  27
ENDBRANCH  25  26
ENDBRANCH   6  25
TORSDOF 5
