REMARK  Name = ZINC15175677
REMARK  8 active torsions:
REMARK  status: ('A' for Active; 'I' for Inactive)
REMARK    1  A    between atoms: C_1  and  C_2
REMARK    2  A    between atoms: C_2  and  C_3
REMARK    3  A    between atoms: C_2  and  C_4
REMARK    4  A    between atoms: C_2  and  N_5
REMARK    5  A    between atoms: C_6  and  C_8
REMARK    6  A    between atoms: C_8  and  N_9
REMARK    7  A    between atoms: C_10  and  C_12
REMARK    8  A    between atoms: C_13  and  C_14
REMARK                            x       y       z     vdW  Elec       q    Type
REMARK                         _______ _______ _______ _____ _____    ______ ____
ROOT
ATOM      1  N   UNL     1       4.051  -0.111  -2.677  0.00  0.00    -0.303 N 
ATOM      2  C   UNL     1       4.876  -0.420  -3.698  0.00  0.00    +0.237 C 
ATOM      3  O   UNL     1       4.478  -1.121  -4.611  0.00  0.00    -0.271 OA
ATOM      4  H   UNL     1       4.368   0.447  -1.950  0.00  0.00    +0.149 HD
ENDROOT
BRANCH   2   5
ATOM      5  C   UNL     1       6.203   0.070  -3.708  0.00  0.00    +0.071 C 
ATOM      6  C   UNL     1       7.033  -0.241  -4.735  0.00  0.00    +0.051 C 
BRANCH   6   7
ATOM      7  C   UNL     1       8.361   0.249  -4.745  0.00  0.00    +0.129 A 
ATOM      8  C   UNL     1       9.306   0.017  -5.724  0.00  0.00    +0.050 A 
ATOM      9  C   UNL     1      10.469   0.691  -5.324  0.00  0.00    +0.056 A 
ATOM     10  C   UNL     1      10.196   1.295  -4.144  0.00  0.00    +0.165 A 
ATOM     11  O   UNL     1       8.927   1.031  -3.802  0.00  0.00    -0.450 OA
ATOM     12  I   UNL     1      11.538   2.459  -3.035  0.00  0.00    -0.001 I 
ENDBRANCH   6   7
ENDBRANCH   2   5
BRANCH   1  13
ATOM     13  C   UNL     1       2.677  -0.618  -2.667  0.00  0.00    +0.200 C 
BRANCH  13  15
ATOM     14  N   UNL     1       0.688  -0.476  -1.203  0.00  0.00    -0.309 N 
ATOM     15  C   UNL     1       1.972  -0.132  -1.427  0.00  0.00    +0.231 C 
ATOM     16  O   UNL     1       2.559   0.569  -0.630  0.00  0.00    -0.274 OA
ATOM     17  H   UNL     1       0.218  -1.037  -1.840  0.00  0.00    +0.149 HD
BRANCH  14  19
ATOM     18  C   UNL     1      -0.019   1.526   0.010  0.00  0.00    +0.031 C 
ATOM     19  C   UNL     1       0.002  -0.004   0.002  0.00  0.00    +0.026 C 
ATOM     20  C   UNL     1       0.742  -0.511   1.242  0.00  0.00    +0.031 C 
ATOM     21  C   UNL     1      -1.433  -0.534   0.013  0.00  0.00    +0.031 C 
ENDBRANCH  14  19
ENDBRANCH  13  15
ENDBRANCH   1  13
TORSDOF 5
