REMARK  Name = ZINC05427247
REMARK  7 active torsions:
REMARK  status: ('A' for Active; 'I' for Inactive)
REMARK    1  A    between atoms: C_1  and  C_2
REMARK    2  A    between atoms: C_6  and  C_30
REMARK    3  A    between atoms: C_8  and  C_10
REMARK    4  A    between atoms: C_10  and  O_11
REMARK    5  A    between atoms: O_11  and  C_12
REMARK    6  A    between atoms: C_27  and  C_28
REMARK    7  A    between atoms: C_27  and  C_29
REMARK                            x       y       z     vdW  Elec       q    Type
REMARK                         _______ _______ _______ _____ _____    ______ ____
ROOT
ATOM      1  C   UNL     1      -0.056   1.570   0.350  0.00  0.00    +0.039 C 
ATOM      2  C   UNL     1      -0.032   0.063   0.301  0.00  0.00    -0.070 C 
ATOM      3  C   UNL     1      -0.008  -0.499  -0.870  0.00  0.00    -0.023 C 
ATOM      4  C   UNL     1       0.028  -2.000  -0.987  0.00  0.00    +0.024 C 
ATOM      5  C   UNL     1       0.891  -2.547   0.136  0.00  0.00    -0.018 C 
ATOM      6  C   UNL     1       0.240  -2.169   1.474  0.00  0.00    +0.018 C 
ATOM      7  C   UNL     1      -0.049  -0.683   1.595  0.00  0.00    +0.052 C 
ATOM      8  C   UNL     1       0.964  -4.079   0.061  0.00  0.00    +0.081 C 
ATOM      9  C   UNL     1       1.399  -4.448  -1.341  0.00  0.00    +0.134 C 
ATOM     10  O   UNL     1       2.393  -5.101  -1.536  0.00  0.00    -0.297 OA
ATOM     11  C   UNL     1       0.536  -3.970  -2.483  0.00  0.00    +0.081 C 
ATOM     12  C   UNL     1       0.356  -2.452  -2.392  0.00  0.00    -0.021 C 
ATOM     13  C   UNL     1      -0.836  -2.080  -3.306  0.00  0.00    +0.012 C 
ATOM     14  C   UNL     1       1.595  -1.754  -2.955  0.00  0.00    +0.012 C 
ATOM     15  C   UNL     1       2.313  -1.987   0.104  0.00  0.00    +0.012 C 
ENDROOT
BRANCH   7  16
ATOM     16  C   UNL     1       0.938  -0.034   2.572  0.00  0.00    +0.237 C 
BRANCH  16  17
ATOM     17  O   UNL     1       0.493   1.286   2.890  0.00  0.00    -0.491 OA
BRANCH  17  18
ATOM     18  C   UNL     1       1.260   2.004   3.750  0.00  0.00    +0.121 A 
ATOM     19  C   UNL     1       2.424   1.448   4.272  0.00  0.00    +0.046 A 
ATOM     20  C   UNL     1       3.208   2.168   5.144  0.00  0.00    +0.012 A 
ATOM     21  C   UNL     1       2.832   3.468   5.508  0.00  0.00    -0.021 A 
ATOM     22  C   UNL     1       1.658   4.019   4.976  0.00  0.00    -0.029 A 
ATOM     23  C   UNL     1       0.884   3.297   4.102  0.00  0.00    +0.050 A 
ATOM     24  C   UNL     1       1.269   5.422   5.380  0.00  0.00    +0.114 C 
ATOM     25  C   UNL     1       2.182   6.150   6.343  0.00  0.00    +0.160 C 
ATOM     26  O   UNL     1       1.922   7.280   6.704  0.00  0.00    -0.292 OA
ATOM     27  C   UNL     1       3.337   5.499   6.814  0.00  0.00    +0.047 C 
ATOM     28  C   UNL     1       3.657   4.245   6.435  0.00  0.00    +0.011 C 
ENDBRANCH  17  18
ENDBRANCH  16  17
ENDBRANCH   7  16
TORSDOF 3
