REMARK  Name = ZINC15314427
REMARK  6 active torsions:
REMARK  status: ('A' for Active; 'I' for Inactive)
REMARK    1  A    between atoms: C_1  and  C_2
REMARK    2  A    between atoms: C_2  and  C_4
REMARK    3  A    between atoms: C_2  and  N_14
REMARK    4  A    between atoms: C_15  and  C_17
REMARK    5  A    between atoms: C_17  and  C_18
REMARK    6  A    between atoms: C_23  and  N_24
REMARK                            x       y       z     vdW  Elec       q    Type
REMARK                         _______ _______ _______ _____ _____    ______ ____
ROOT
ATOM      1  N   UNL     1      -3.073  -1.785  -0.816  0.00  0.00    -0.312 N 
ATOM      2  C   UNL     1      -1.921  -1.085  -0.805  0.00  0.00    +0.218 C 
ATOM      3  O   UNL     1      -1.456  -0.667  -1.845  0.00  0.00    -0.275 OA
ATOM      4  H   UNL     1      -3.445  -2.119   0.015  0.00  0.00    +0.149 HD
ENDROOT
BRANCH   1   6
ATOM      5  C   UNL     1      -4.657  -0.846  -2.425  0.00  0.00    +0.028 C 
ATOM      6  C   UNL     1      -3.764  -2.040  -2.082  0.00  0.00    +0.076 C 
BRANCH   6   7
ATOM      7  C   UNL     1      -4.624  -3.298  -1.950  0.00  0.00    -0.010 C 
ATOM      8  C   UNL     1      -5.655  -3.096  -0.838  0.00  0.00    +0.012 C 
ATOM      9  C   UNL     1      -6.515  -4.355  -0.705  0.00  0.00    -0.010 C 
ATOM     10  C   UNL     1      -7.237  -4.621  -2.028  0.00  0.00    +0.007 C 
ATOM     11  C   UNL     1      -6.206  -4.823  -3.140  0.00  0.00    -0.010 C 
ATOM     12  C   UNL     1      -5.346  -3.564  -3.272  0.00  0.00    +0.012 C 
ATOM     13  C   UNL     1      -5.313  -6.017  -2.797  0.00  0.00    +0.007 C 
ATOM     14  C   UNL     1      -4.591  -5.751  -1.474  0.00  0.00    -0.010 C 
ATOM     15  C   UNL     1      -5.622  -5.549  -0.362  0.00  0.00    +0.007 C 
ATOM     16  C   UNL     1      -3.731  -4.492  -1.607  0.00  0.00    +0.012 C 
ENDBRANCH   6   7
ENDBRANCH   1   6
BRANCH   2  17
ATOM     17  C   UNL     1      -1.210  -0.823   0.497  0.00  0.00    +0.133 C 
BRANCH  17  18
ATOM     18  C   UNL     1       0.042  -0.027   0.235  0.00  0.00    -0.008 A 
ATOM     19  C   UNL     1       0.053   1.338   0.457  0.00  0.00    +0.006 A 
ATOM     20  C   UNL     1       1.202   2.068   0.217  0.00  0.00    +0.000 A 
ATOM     21  C   UNL     1       2.340   1.433  -0.246  0.00  0.00    +0.002 A 
ATOM     22  C   UNL     1       2.329   0.069  -0.468  0.00  0.00    +0.033 A 
ATOM     23  C   UNL     1       1.180  -0.661  -0.227  0.00  0.00    +0.130 A 
BRANCH  23  24
ATOM     24  N   UNL     1       1.170  -2.123  -0.459  0.00  0.00    +0.057 N 
ATOM     25  O   UNL     1       2.201  -2.699  -0.755  0.00  0.00    -0.126 OA
ATOM     26  O   UNL     1       0.131  -2.749  -0.352  0.00  0.00    -0.126 OA
ENDBRANCH  23  24
ENDBRANCH  17  18
ENDBRANCH   2  17
TORSDOF 5
