REMARK  Name = ZINC12571285
REMARK  6 active torsions:
REMARK  status: ('A' for Active; 'I' for Inactive)
REMARK    1  A    between atoms: C_1  and  O_2
REMARK    2  A    between atoms: O_2  and  C_3
REMARK    3  A    between atoms: C_6  and  C_17
REMARK    4  A    between atoms: C_8  and  O_9
REMARK    5  A    between atoms: O_9  and  C_10
REMARK    6  A    between atoms: C_10  and  C_11
REMARK                            x       y       z     vdW  Elec       q    Type
REMARK                         _______ _______ _______ _____ _____    ______ ____
ROOT
ATOM      1  C   UNL     1       2.507  -2.501  -4.386  0.00  0.00    +0.209 C 
ATOM      2  N   UNL     1       3.712  -1.741  -4.770  0.00  0.00    -0.294 N 
ATOM      3  C   UNL     1       3.541  -0.608  -5.552  0.00  0.00    +0.159 C 
ATOM      4  N   UNL     1       2.787  -0.764  -6.715  0.00  0.00    -0.259 N 
ATOM      5  C   UNL     1       1.741  -1.678  -6.624  0.00  0.00    +0.205 A 
ATOM      6  N   UNL     1       1.597  -2.512  -5.538  0.00  0.00    -0.288 N 
ATOM      7  C   UNL     1       0.494  -3.283  -5.764  0.00  0.00    +0.072 A 
ATOM      8  C   UNL     1      -0.123  -4.290  -5.031  0.00  0.00    +0.028 A 
ATOM      9  C   UNL     1      -1.255  -4.868  -5.581  0.00  0.00    +0.002 A 
ATOM     10  C   UNL     1      -1.761  -4.471  -6.807  0.00  0.00    +0.002 A 
ATOM     11  C   UNL     1      -1.165  -3.473  -7.556  0.00  0.00    +0.030 A 
ATOM     12  C   UNL     1      -0.020  -2.874  -7.021  0.00  0.00    +0.091 A 
ATOM     13  N   UNL     1       0.784  -1.896  -7.485  0.00  0.00    -0.214 NA
ATOM     14  N   UNL     1       4.057   0.541  -5.217  0.00  0.00    -0.375 N 
ATOM     15  H   UNL     1       4.594  -2.025  -4.486  0.00  0.00    +0.151 HD
ATOM     16  H   UNL     1       4.577   0.620  -4.402  0.00  0.00    +0.158 HD
ATOM     17  H   UNL     1       2.977  -0.271  -7.529  0.00  0.00    +0.158 HD
ATOM     18  H   UNL     1       3.922   1.317  -5.783  0.00  0.00    +0.158 HD
ENDROOT
BRANCH   1  22
ATOM     19  C   UNL     1       0.606  -0.608  -1.056  0.00  0.00    +0.162 A 
ATOM     20  C   UNL     1       1.173   0.159  -2.062  0.00  0.00    +0.050 A 
ATOM     21  C   UNL     1       1.787  -0.456  -3.137  0.00  0.00    +0.011 A 
ATOM     22  C   UNL     1       1.837  -1.836  -3.212  0.00  0.00    -0.003 A 
ATOM     23  C   UNL     1       1.273  -2.606  -2.212  0.00  0.00    +0.056 A 
ATOM     24  C   UNL     1       0.662  -1.996  -1.129  0.00  0.00    +0.163 A 
BRANCH  19  26
ATOM     25  C   UNL     1      -0.017   1.425   0.010  0.00  0.00    +0.277 C 
ATOM     26  O   UNL     1       0.002  -0.004   0.002  0.00  0.00    -0.491 OA
ENDBRANCH  19  26
BRANCH  24  27
ATOM     27  O   UNL     1       0.112  -2.753  -0.142  0.00  0.00    -0.484 OA
BRANCH  27  28
ATOM     28  C   UNL     1       0.206  -4.171  -0.283  0.00  0.00    +0.264 C 
BRANCH  28  29
ATOM     29  C   UNL     1      -0.453  -4.838   0.897  0.00  0.00    -0.010 A 
ATOM     30  C   UNL     1       0.286  -5.128   2.029  0.00  0.00    +0.007 A 
ATOM     31  C   UNL     1      -0.319  -5.740   3.111  0.00  0.00    +0.000 A 
ATOM     32  C   UNL     1      -1.663  -6.062   3.061  0.00  0.00    +0.000 A 
ATOM     33  C   UNL     1      -2.401  -5.771   1.929  0.00  0.00    +0.000 A 
ATOM     34  C   UNL     1      -1.798  -5.155   0.849  0.00  0.00    +0.007 A 
ENDBRANCH  28  29
ENDBRANCH  27  28
ENDBRANCH  24  27
ENDBRANCH   1  22
TORSDOF 5
