REMARK  Name = ZINC16227947
REMARK  10 active torsions:
REMARK  status: ('A' for Active; 'I' for Inactive)
REMARK    1  A    between atoms: C_1  and  O_2
REMARK    2  A    between atoms: O_2  and  C_3
REMARK    3  A    between atoms: C_7  and  C_9
REMARK    4  A    between atoms: N_10  and  N_11
REMARK    5  A    between atoms: C_12  and  C_14
REMARK    6  A    between atoms: C_14  and  N_15
REMARK    7  A    between atoms: N_15  and  C_16
REMARK    8  A    between atoms: N_15  and  S_32
REMARK    9  A    between atoms: C_19  and  C_22
REMARK   10  A    between atoms: S_32  and  C_35
REMARK                            x       y       z     vdW  Elec       q    Type
REMARK                         _______ _______ _______ _____ _____    ______ ____
ROOT
ATOM      1  N   UNL     1      -3.825   9.981   0.087  0.00  0.00    -0.199 N 
ENDROOT
BRANCH   1   2
ATOM      2  C   UNL     1      -4.532  10.108  -1.111  0.00  0.00    +0.051 A 
ATOM      3  C   UNL     1      -5.603  10.990  -1.197  0.00  0.00    +0.025 A 
ATOM      4  C   UNL     1      -6.296  11.117  -2.384  0.00  0.00    +0.006 A 
ATOM      5  C   UNL     1      -5.934  10.360  -3.483  0.00  0.00    -0.041 A 
ATOM      6  C   UNL     1      -4.872   9.478  -3.399  0.00  0.00    +0.006 A 
ATOM      7  C   UNL     1      -4.171   9.350  -2.217  0.00  0.00    +0.025 A 
BRANCH   5   8
ATOM      8  C   UNL     1      -6.697  10.497  -4.775  0.00  0.00    -0.003 C 
ATOM      9  C   UNL     1      -7.308   9.146  -5.152  0.00  0.00    +0.015 C 
ATOM     10  C   UNL     1      -8.084   9.285  -6.464  0.00  0.00    -0.010 C 
ATOM     11  C   UNL     1      -9.199  10.318  -6.290  0.00  0.00    +0.007 C 
ATOM     12  C   UNL     1      -8.588  11.669  -5.913  0.00  0.00    -0.010 C 
ATOM     13  C   UNL     1      -7.813  11.530  -4.601  0.00  0.00    +0.015 C 
ATOM     14  C   UNL     1      -7.637  12.126  -7.021  0.00  0.00    +0.007 C 
ATOM     15  C   UNL     1      -6.522  11.093  -7.195  0.00  0.00    -0.010 C 
ATOM     16  C   UNL     1      -7.133   9.742  -7.572  0.00  0.00    +0.007 C 
ATOM     17  C   UNL     1      -5.747  10.954  -5.883  0.00  0.00    +0.015 C 
ENDBRANCH   5   8
ENDBRANCH   1   2
BRANCH   1  18
ATOM     18  S   UNL     1      -4.557  10.355   1.525  0.00  0.00    +0.043 S 
ATOM     19  O   UNL     1      -5.933  10.069   1.316  0.00  0.00    -0.155 OA
ATOM     20  O   UNL     1      -3.811   9.649   2.506  0.00  0.00    -0.155 OA
ATOM     21  C   UNL     1      -4.313  12.142   1.720  0.00  0.00    +0.218 C 
ENDBRANCH   1  18
BRANCH   1  22
ATOM     22  C   UNL     1      -2.436   9.515   0.072  0.00  0.00    +0.228 C 
BRANCH  22  24
ATOM     23  N   UNL     1      -1.233   7.354   0.050  0.00  0.00    -0.206 N 
ATOM     24  C   UNL     1      -2.411   8.009   0.064  0.00  0.00    +0.251 C 
ATOM     25  O   UNL     1      -3.452   7.385   0.071  0.00  0.00    -0.272 OA
ATOM     26  H   UNL     1      -0.401   7.853   0.044  0.00  0.00    +0.177 HD
BRANCH  23  28
ATOM     27  C   UNL     1      -0.076   5.323   0.029  0.00  0.00    +0.138 C 
ATOM     28  N   UNL     1      -1.210   5.953   0.043  0.00  0.00    -0.188 NA
BRANCH  27  33
ATOM     29  C   UNL     1       1.182   1.784   0.000  0.00  0.00    +0.121 A 
ATOM     30  C   UNL     1      -0.013   1.076   0.008  0.00  0.00    +0.045 A 
ATOM     31  C   UNL     1      -1.221   1.748   0.017  0.00  0.00    +0.004 A 
ATOM     32  C   UNL     1      -1.248   3.127   0.030  0.00  0.00    +0.010 A 
ATOM     33  C   UNL     1      -0.051   3.849   0.022  0.00  0.00    -0.002 A 
ATOM     34  C   UNL     1       1.168   3.168   0.007  0.00  0.00    +0.055 A 
BRANCH  29  36
ATOM     35  C   UNL     1       2.307  -0.311  -0.022  0.00  0.00    +0.277 C 
ATOM     36  O   UNL     1       2.366   1.117  -0.015  0.00  0.00    -0.495 OA
ENDBRANCH  29  36
ENDBRANCH  27  33
ENDBRANCH  23  28
ENDBRANCH  22  24
ENDBRANCH   1  22
TORSDOF 8
