REMARK  Name = ZINC06552218
REMARK  11 active torsions:
REMARK  status: ('A' for Active; 'I' for Inactive)
REMARK    1  A    between atoms: C_1  and  C_2
REMARK    2  A    between atoms: C_7  and  N_52
REMARK    3  A    between atoms: C_9  and  C_11
REMARK    4  A    between atoms: C_12  and  C_13
REMARK    5  A    between atoms: C_12  and  N_52
REMARK    6  A    between atoms: C_13  and  C_15
REMARK    7  A    between atoms: C_13  and  O_27
REMARK    8  A    between atoms: C_15  and  O_16
REMARK    9  A    between atoms: O_16  and  C_17
REMARK   10  A    between atoms: C_17  and  C_19
REMARK   11  A    between atoms: C_17  and  C_20
REMARK                            x       y       z     vdW  Elec       q    Type
REMARK                         _______ _______ _______ _____ _____    ______ ____
ROOT
ATOM      1  C   UNL     1       1.418   1.954  -0.001  0.00  0.00    +0.123 C 
ENDROOT
BRANCH   1   2
ATOM      2  O   UNL     1       2.050   1.592  -1.230  0.00  0.00    -0.391 OA
ATOM      3  H   UNL     1       1.611   1.942  -2.017  0.00  0.00    +0.210 HD
ENDBRANCH   1   2
BRANCH   1   4
ATOM      4  C   UNL     1       1.400   3.478   0.133  0.00  0.00    -0.048 C 
BRANCH   4   5
ATOM      5  N   UNL     1       2.787   3.981   0.122  0.00  0.00    +0.383 N 
ATOM      6  H   UNL     1       3.304   3.567   0.907  0.00  0.00    -0.085 HD
ATOM      7  H   UNL     1       3.237   3.714  -0.762  0.00  0.00    -0.085 HD
BRANCH   5  13
ATOM      8  C   UNL     1       3.022   7.864   1.896  0.00  0.00    +0.008 C 
ATOM      9  C   UNL     1       4.162   7.414   0.980  0.00  0.00    -0.013 C 
ATOM     10  C   UNL     1       3.987   8.049  -0.401  0.00  0.00    +0.003 C 
ATOM     11  C   UNL     1       2.649   7.609  -0.999  0.00  0.00    -0.001 C 
ATOM     12  C   UNL     1       2.626   6.085  -1.131  0.00  0.00    -0.015 C 
ATOM     13  C   UNL     1       2.801   5.450   0.250  0.00  0.00    -0.069 C 
ATOM     14  C   UNL     1       4.139   5.890   0.847  0.00  0.00    -0.025 C 
ATOM     15  C   UNL     1       4.314   5.255   2.229  0.00  0.00    +0.006 C 
ENDBRANCH   5  13
ENDBRANCH   4   5
ENDBRANCH   1   4
BRANCH   1  16
ATOM     16  C   UNL     1      -0.017   1.425   0.010  0.00  0.00    +0.190 C 
BRANCH  16  17
ATOM     17  O   UNL     1       0.002  -0.004   0.002  0.00  0.00    -0.370 OA
BRANCH  17  18
ATOM     18  C   UNL     1      -1.295  -0.603   0.011  0.00  0.00    +0.145 C 
ATOM     19  C   UNL     1      -1.772  -0.809  -1.428  0.00  0.00    +0.043 C 
BRANCH  18  20
ATOM     20  C   UNL     1      -1.229  -1.935   0.714  0.00  0.00    -0.019 A 
ATOM     21  C   UNL     1      -0.103  -2.726   0.589  0.00  0.00    +0.007 A 
ATOM     22  C   UNL     1      -0.039  -3.945   1.238  0.00  0.00    +0.020 A 
ATOM     23  C   UNL     1      -1.107  -4.378   2.003  0.00  0.00    +0.041 A 
ATOM     24  C   UNL     1      -2.236  -3.587   2.123  0.00  0.00    +0.020 A 
ATOM     25  C   UNL     1      -2.296  -2.366   1.479  0.00  0.00    +0.007 A 
ATOM     26 CL   UNL     1      -1.030  -5.911   2.813  0.00  0.00    -0.084 Cl
ENDBRANCH  18  20
ENDBRANCH  17  18
ENDBRANCH  16  17
ENDBRANCH   1  16
TORSDOF 8
