REMARK  Name = ZINC13065562
REMARK  11 active torsions:
REMARK  status: ('A' for Active; 'I' for Inactive)
REMARK    1  A    between atoms: C_1  and  C_2
REMARK    2  A    between atoms: C_9  and  C_14
REMARK    3  A    between atoms: C_14  and  N_66
REMARK    4  A    between atoms: C_15  and  C_16
REMARK    5  A    between atoms: C_15  and  N_66
REMARK    6  A    between atoms: C_16  and  C_17
REMARK    7  A    between atoms: C_22  and  C_23
REMARK    8  A    between atoms: C_24  and  C_25
REMARK    9  A    between atoms: C_24  and  N_66
REMARK   10  A    between atoms: N_29  and  C_30
REMARK   11  A    between atoms: C_30  and  C_31
REMARK                            x       y       z     vdW  Elec       q    Type
REMARK                         _______ _______ _______ _____ _____    ______ ____
ROOT
ATOM      1  N   UNL     1       2.220  -2.180  -1.329  0.00  0.00    +0.387 N 
ATOM      2  H   UNL     1       2.579  -1.678  -2.150  0.00  0.00    -0.081 HD
ENDROOT
BRANCH   1   3
ATOM      3  C   UNL     1       3.147  -3.283  -0.998  0.00  0.00    -0.037 C 
BRANCH   3  12
ATOM      4  C   UNL     1       7.104  -4.949  -7.096  0.00  0.00    +0.044 C 
ATOM      5  C   UNL     1       5.931  -5.195  -6.183  0.00  0.00    -0.050 A 
ATOM      6  C   UNL     1       5.029  -6.209  -6.479  0.00  0.00    +0.005 A 
ATOM      7  C   UNL     1       3.950  -6.452  -5.658  0.00  0.00    +0.026 A 
ATOM      8  C   UNL     1       3.758  -5.674  -4.520  0.00  0.00    +0.049 A 
ATOM      9  C   UNL     1       4.674  -4.647  -4.224  0.00  0.00    -0.001 A 
ATOM     10  C   UNL     1       5.763  -4.419  -5.072  0.00  0.00    +0.013 A 
ATOM     11  C   UNL     1       4.465  -3.834  -3.025  0.00  0.00    +0.017 A 
ATOM     12  C   UNL     1       3.392  -4.101  -2.240  0.00  0.00    +0.001 A 
ATOM     13  C   UNL     1       2.506  -5.146  -2.579  0.00  0.00    +0.251 A 
ATOM     14  O   UNL     1       1.550  -5.373  -1.857  0.00  0.00    -0.268 OA
ATOM     15  N   UNL     1       2.687  -5.895  -3.681  0.00  0.00    -0.322 N 
ATOM     16  H   UNL     1       2.057  -6.603  -3.887  0.00  0.00    +0.169 HD
ENDBRANCH   3  12
ENDBRANCH   1   3
BRANCH   1  17
ATOM     17  C   UNL     1       0.882  -2.722  -1.644  0.00  0.00    -0.073 C 
BRANCH  17  18
ATOM     18  C   UNL     1      -0.013  -1.579  -2.129  0.00  0.00    +0.017 C 
BRANCH  18  19
ATOM     19  C   UNL     1      -1.329  -2.139  -2.603  0.00  0.00    -0.046 A 
ATOM     20  C   UNL     1      -1.516  -2.427  -3.942  0.00  0.00    +0.004 A 
ATOM     21  C   UNL     1      -2.722  -2.945  -4.376  0.00  0.00    +0.000 A 
ATOM     22  C   UNL     1      -3.745  -3.164  -3.473  0.00  0.00    +0.000 A 
ATOM     23  C   UNL     1      -3.560  -2.871  -2.135  0.00  0.00    +0.003 A 
ATOM     24  C   UNL     1      -2.352  -2.358  -1.700  0.00  0.00    -0.047 A 
ATOM     25  C   UNL     1      -2.151  -2.038  -0.241  0.00  0.00    +0.044 C 
ENDBRANCH  18  19
ENDBRANCH  17  18
ENDBRANCH   1  17
BRANCH   1  26
ATOM     26  C   UNL     1       2.130  -1.239  -0.193  0.00  0.00    +0.001 C 
BRANCH  26  27
ATOM     27  C   UNL     1       3.439  -0.504  -0.065  0.00  0.00    +0.135 A 
ATOM     28  N   UNL     1       3.820   0.542  -0.757  0.00  0.00    -0.115 NA
ATOM     29  N   UNL     1       4.998   0.876  -0.356  0.00  0.00    -0.023 NA
ATOM     30  N   UNL     1       5.379   0.070   0.574  0.00  0.00    -0.044 NA
ATOM     31  N   UNL     1       4.445  -0.795   0.781  0.00  0.00    -0.227 N 
BRANCH  31  32
ATOM     32  C   UNL     1       4.473  -1.889   1.756  0.00  0.00    +0.182 C 
BRANCH  32  33
ATOM     33  C   UNL     1       4.051  -1.370   3.106  0.00  0.00    -0.026 A 
ATOM     34  C   UNL     1       4.983  -0.791   3.946  0.00  0.00    +0.008 A 
ATOM     35  C   UNL     1       4.596  -0.311   5.183  0.00  0.00    +0.038 A 
ATOM     36  C   UNL     1       3.275  -0.419   5.584  0.00  0.00    +0.123 A 
ATOM     37  C   UNL     1       2.343  -1.003   4.744  0.00  0.00    +0.038 A 
ATOM     38  C   UNL     1       2.732  -1.478   3.506  0.00  0.00    +0.008 A 
ATOM     39  F   UNL     1       2.896   0.047   6.795  0.00  0.00    -0.205 F 
ENDBRANCH  32  33
ENDBRANCH  31  32
ENDBRANCH  26  27
ENDBRANCH   1  26
TORSDOF 9
