REMARK  Name = ZINC09458786
REMARK  10 active torsions:
REMARK  status: ('A' for Active; 'I' for Inactive)
REMARK    1  A    between atoms: C_1  and  C_2
REMARK    2  A    between atoms: C_5  and  O_9
REMARK    3  A    between atoms: C_7  and  C_8
REMARK    4  A    between atoms: O_9  and  C_10
REMARK    5  A    between atoms: C_10  and  C_11
REMARK    6  A    between atoms: C_11  and  C_12
REMARK    7  A    between atoms: C_12  and  O_13
REMARK    8  A    between atoms: O_13  and  C_14
REMARK    9  A    between atoms: C_17  and  C_20
REMARK   10  A    between atoms: C_30  and  C_32
REMARK                            x       y       z     vdW  Elec       q    Type
REMARK                         _______ _______ _______ _____ _____    ______ ____
ROOT
ATOM      1  C   UNL     1      -0.626  -9.586  -3.233  0.00  0.00    +0.121 A 
ATOM      2  C   UNL     1      -0.351  -8.835  -4.371  0.00  0.00    +0.046 A 
ATOM      3  C   UNL     1      -0.110  -9.459  -5.562  0.00  0.00    +0.011 A 
ATOM      4  C   UNL     1      -0.140 -10.859  -5.636  0.00  0.00    -0.024 A 
ATOM      5  C   UNL     1      -0.418 -11.610  -4.486  0.00  0.00    +0.011 A 
ATOM      6  C   UNL     1      -0.652 -10.976  -3.299  0.00  0.00    +0.046 A 
ENDROOT
BRANCH   4   7
ATOM      7  C   UNL     1       0.117 -11.533  -6.911  0.00  0.00    +0.024 C 
ATOM      8  C   UNL     1       0.811 -12.722  -6.933  0.00  0.00    +0.081 C 
ATOM      9  C   UNL     1       0.939 -13.534  -8.176  0.00  0.00    +0.153 C 
ATOM     10  N   UNL     1       1.004 -13.011  -9.371  0.00  0.00    -0.283 NA
ATOM     11  N   UNL     1       0.984 -14.924  -7.935  0.00  0.00    -0.152 N 
ATOM     12  C   UNL     1       1.399 -15.340  -6.688  0.00  0.00    +0.181 C 
ATOM     13  N   UNL     1       1.672 -14.594  -5.647  0.00  0.00    -0.152 NA
ATOM     14  C   UNL     1       1.478 -13.260  -5.721  0.00  0.00    +0.273 C 
ATOM     15  O   UNL     1       1.836 -12.520  -4.819  0.00  0.00    -0.268 OA
ATOM     16  S   UNL     1       1.437 -17.103  -6.874  0.00  0.00    -0.032 S 
ATOM     17  C   UNL     1       0.808 -17.179  -8.545  0.00  0.00    +0.136 C 
ATOM     18  N   UNL     1       0.658 -15.908  -8.844  0.00  0.00    -0.164 NA
ATOM     19  H   UNL     1       1.087 -13.585 -10.149  0.00  0.00    +0.188 HD
BRANCH  17  20
ATOM     20  C   UNL     1       0.528 -18.362  -9.376  0.00  0.00    +0.046 A 
ATOM     21  C   UNL     1       0.677 -19.690  -9.066  0.00  0.00    +0.018 A 
ATOM     22  C   UNL     1       0.346 -20.631 -10.014  0.00  0.00    +0.008 A 
ATOM     23  C   UNL     1      -0.115 -20.219 -11.223  0.00  0.00    +0.046 A 
ATOM     24  S   UNL     1      -0.100 -18.442 -11.045  0.00  0.00    -0.095 S 
ENDBRANCH  17  20
ENDBRANCH   4   7
BRANCH   1  25
ATOM     25  O   UNL     1      -0.865  -8.962  -2.052  0.00  0.00    -0.492 OA
BRANCH  25  26
ATOM     26  C   UNL     1      -0.823  -7.533  -2.054  0.00  0.00    +0.232 C 
BRANCH  26  27
ATOM     27  C   UNL     1      -1.114  -7.013  -0.645  0.00  0.00    +0.082 C 
BRANCH  27  28
ATOM     28  C   UNL     1      -1.070  -5.483  -0.647  0.00  0.00    +0.232 C 
BRANCH  28  29
ATOM     29  O   UNL     1      -1.342  -4.997   0.669  0.00  0.00    -0.492 OA
BRANCH  29  34
ATOM     30  C   UNL     1      -1.337   0.590   1.382  0.00  0.00    +0.044 C 
ATOM     31  C   UNL     1      -1.338  -0.905   1.191  0.00  0.00    -0.047 A 
ATOM     32  C   UNL     1      -1.081  -1.441  -0.057  0.00  0.00    +0.007 A 
ATOM     33  C   UNL     1      -1.082  -2.811  -0.235  0.00  0.00    +0.046 A 
ATOM     34  C   UNL     1      -1.340  -3.649   0.841  0.00  0.00    +0.121 A 
ATOM     35  C   UNL     1      -1.597  -3.108   2.092  0.00  0.00    +0.049 A 
ATOM     36  C   UNL     1      -1.590  -1.737   2.265  0.00  0.00    -0.044 A 
ATOM     37  C   UNL     1      -1.864  -1.149   3.626  0.00  0.00    +0.044 C 
ENDBRANCH  29  34
ENDBRANCH  28  29
ENDBRANCH  27  28
ENDBRANCH  26  27
ENDBRANCH  25  26
ENDBRANCH   1  25
TORSDOF 8
