REMARK  Name = ZINC07607456
REMARK  11 active torsions:
REMARK  status: ('A' for Active; 'I' for Inactive)
REMARK    1  A    between atoms: C_1  and  C_2
REMARK    2  A    between atoms: C_3  and  C_28
REMARK    3  A    between atoms: C_4  and  C_27
REMARK    4  A    between atoms: C_5  and  S_10
REMARK    5  A    between atoms: C_6  and  C_9
REMARK    6  A    between atoms: C_7  and  C_8
REMARK    7  A    between atoms: S_10  and  N_13
REMARK    8  A    between atoms: C_18  and  C_20
REMARK    9  A    between atoms: C_18  and  C_21
REMARK   10  A    between atoms: C_18  and  N_61
REMARK   11  A    between atoms: N_23  and  C_24
REMARK                            x       y       z     vdW  Elec       q    Type
REMARK                         _______ _______ _______ _____ _____    ______ ____
ROOT
ATOM      1  N   UNL     1      -3.224   4.157   4.948  0.00  0.00    -0.180 NA
ATOM      2  C   UNL     1      -2.175   5.016   5.519  0.00  0.00    +0.091 C 
ATOM      3  C   UNL     1      -1.741   6.026   4.445  0.00  0.00    -0.060 C 
ATOM      4  C   UNL     1      -3.861   5.822   3.285  0.00  0.00    -0.060 C 
ATOM      5  C   UNL     1      -4.379   4.803   4.306  0.00  0.00    +0.091 C 
ATOM      6  N   UNL     1      -2.938   6.753   3.970  0.00  0.00    +0.389 N 
ATOM      7  H   UNL     1      -3.419   7.166   4.777  0.00  0.00    -0.081 HD
ENDROOT
BRANCH   1   8
ATOM      8  S   UNL     1      -3.111   2.507   5.032  0.00  0.00    +0.061 S 
ATOM      9  O   UNL     1      -4.415   1.998   4.784  0.00  0.00    -0.153 OA
ATOM     10  O   UNL     1      -2.390   2.209   6.220  0.00  0.00    -0.153 OA
BRANCH   8  15
ATOM     11  C   UNL     1       0.346   0.719   0.422  0.00  0.00    +0.044 C 
ATOM     12  C   UNL     1      -0.517   1.165   1.574  0.00  0.00    -0.044 A 
ATOM     13  C   UNL     1       0.049   1.399   2.813  0.00  0.00    -0.043 A 
ATOM     14  C   UNL     1      -0.742   1.813   3.868  0.00  0.00    -0.021 A 
ATOM     15  C   UNL     1      -2.102   1.985   3.686  0.00  0.00    +0.112 A 
ATOM     16  C   UNL     1      -2.669   1.746   2.448  0.00  0.00    -0.021 A 
ATOM     17  C   UNL     1      -1.877   1.337   1.392  0.00  0.00    -0.043 A 
ATOM     18  C   UNL     1      -2.496   1.077   0.043  0.00  0.00    +0.044 C 
ATOM     19  C   UNL     1      -4.151   1.933   2.251  0.00  0.00    +0.046 C 
ATOM     20  C   UNL     1      -0.123   2.073   5.217  0.00  0.00    +0.046 C 
ATOM     21  C   UNL     1       1.531   1.206   3.012  0.00  0.00    +0.044 C 
ENDBRANCH   8  15
ENDBRANCH   1   8
BRANCH   6  22
ATOM     22  C   UNL     1      -2.536   7.835   3.046  0.00  0.00    +0.016 C 
ATOM     23  C   UNL     1      -1.752   7.268   1.861  0.00  0.00    -0.004 C 
BRANCH  22  24
ATOM     24  C   UNL     1      -1.675   8.819   3.795  0.00  0.00    +0.199 C 
ATOM     25  O   UNL     1      -1.409   8.627   4.963  0.00  0.00    -0.278 OA
ATOM     26  N   UNL     1      -1.199   9.912   3.166  0.00  0.00    -0.314 N 
ATOM     27  H   UNL     1      -1.412  10.066   2.232  0.00  0.00    +0.149 HD
BRANCH  26  28
ATOM     28  C   UNL     1      -0.362  10.869   3.894  0.00  0.00    +0.073 C 
ATOM     29  C   UNL     1      -0.649  12.358   3.688  0.00  0.00    +0.024 C 
ATOM     30  C   UNL     1       0.604  11.728   3.075  0.00  0.00    +0.024 C 
ENDBRANCH  26  28
ENDBRANCH  22  24
ENDBRANCH   6  22
TORSDOF 5
