REMARK  Name = ZINC04082553
REMARK  3 active torsions:
REMARK  status: ('A' for Active; 'I' for Inactive)
REMARK    1  A    between atoms: C_1  and  C_2
REMARK    2  A    between atoms: N_10  and  C_13
REMARK    3  A    between atoms: C_13  and  C_14
REMARK                            x       y       z     vdW  Elec       q    Type
REMARK                         _______ _______ _______ _____ _____    ______ ____
ROOT
ATOM      1  C   UNL     1      -0.687   1.628   1.264  0.00  0.00    -0.013 C 
ATOM      2  C   UNL     1       0.032   1.100   0.021  0.00  0.00    -0.060 C 
ATOM      3  C   UNL     1      -0.651   1.625  -1.260  0.00  0.00    +0.073 C 
ATOM      4  C   UNL     1       0.515   1.903  -2.249  0.00  0.00    +0.088 C 
ATOM      5  C   UNL     1       0.459   3.402  -2.440  0.00  0.00    +0.225 C 
ATOM      6  O   UNL     1       1.199   4.045  -3.152  0.00  0.00    -0.275 OA
ATOM      7  N   UNL     1      -0.534   3.908  -1.700  0.00  0.00    -0.237 N 
ATOM      8  C   UNL     1      -1.220   3.000  -0.996  0.00  0.00    +0.224 C 
ATOM      9  O   UNL     1      -2.153   3.242  -0.261  0.00  0.00    -0.275 OA
ATOM     10  C   UNL     1       1.781   1.531  -1.467  0.00  0.00    +0.050 C 
ATOM     11  C   UNL     1       2.929   2.435  -1.811  0.00  0.00    -0.028 A 
ATOM     12  C   UNL     1       3.122   3.796  -1.730  0.00  0.00    +0.004 A 
ATOM     13  C   UNL     1       4.323   4.351  -2.133  0.00  0.00    +0.000 A 
ATOM     14  C   UNL     1       5.330   3.536  -2.618  0.00  0.00    +0.002 A 
ATOM     15  C   UNL     1       5.141   2.172  -2.702  0.00  0.00    +0.023 A 
ATOM     16  C   UNL     1       3.935   1.605  -2.298  0.00  0.00    +0.036 A 
ATOM     17  N   UNL     1       3.510   0.275  -2.287  0.00  0.00    -0.286 N 
ATOM     18  C   UNL     1       2.255   0.146  -1.815  0.00  0.00    +0.211 C 
ATOM     19  O   UNL     1       1.629  -0.886  -1.693  0.00  0.00    -0.277 OA
ATOM     20  H   UNL     1       4.055  -0.470  -2.586  0.00  0.00    +0.155 HD
ATOM     21  N   UNL     1       1.398   1.619  -0.069  0.00  0.00    +0.394 N 
ATOM     22  H   UNL     1       2.031   1.054   0.509  0.00  0.00    -0.083 HD
ATOM     23  H   UNL     1       1.428   2.596   0.247  0.00  0.00    -0.083 HD
ENDROOT
BRANCH   7  24
ATOM     24  C   UNL     1      -0.845   5.339  -1.662  0.00  0.00    +0.153 C 
BRANCH  24  25
ATOM     25  C   UNL     1      -1.715   5.695  -2.840  0.00  0.00    -0.011 A 
ATOM     26  C   UNL     1      -1.143   6.196  -3.995  0.00  0.00    +0.006 A 
ATOM     27  C   UNL     1      -1.940   6.519  -5.077  0.00  0.00    +0.000 A 
ATOM     28  C   UNL     1      -3.311   6.349  -5.002  0.00  0.00    +0.001 A 
ATOM     29  C   UNL     1      -3.884   5.853  -3.846  0.00  0.00    +0.020 A 
ATOM     30  C   UNL     1      -3.086   5.525  -2.764  0.00  0.00    +0.046 A 
ATOM     31 CL   UNL     1      -3.804   4.901  -1.313  0.00  0.00    -0.083 Cl
ENDBRANCH  24  25
ENDBRANCH   7  24
TORSDOF 2
