REMARK  Name = ZINC13499666
REMARK  13 active torsions:
REMARK  status: ('A' for Active; 'I' for Inactive)
REMARK    1  A    between atoms: C_1  and  C_2
REMARK    2  A    between atoms: C_2  and  C_3
REMARK    3  A    between atoms: C_3  and  C_4
REMARK    4  A    between atoms: C_4  and  C_6
REMARK    5  A    between atoms: C_4  and  N_75
REMARK    6  A    between atoms: N_10  and  C_11
REMARK    7  A    between atoms: C_16  and  C_17
REMARK    8  A    between atoms: C_16  and  N_75
REMARK    9  A    between atoms: C_17  and  C_18
REMARK   10  A    between atoms: C_24  and  C_25
REMARK   11  A    between atoms: C_24  and  N_75
REMARK   12  A    between atoms: C_28  and  C_38
REMARK   13  A    between atoms: C_31  and  C_37
REMARK                            x       y       z     vdW  Elec       q    Type
REMARK                         _______ _______ _______ _____ _____    ______ ____
ROOT
ATOM      1  N   UNL     1      -2.130   1.789  -0.677  0.00  0.00    +0.389 N 
ATOM      2  H   UNL     1      -1.910   1.565  -1.655  0.00  0.00    -0.080 HD
ENDROOT
BRANCH   1   3
ATOM      3  C   UNL     1      -0.868   1.924   0.081  0.00  0.00    +0.003 C 
BRANCH   3   4
ATOM      4  C   UNL     1       0.025   0.757  -0.253  0.00  0.00    +0.138 A 
ATOM      5  N   UNL     1      -0.325  -0.505  -0.308  0.00  0.00    -0.115 NA
ATOM      6  N   UNL     1       0.716  -1.193  -0.629  0.00  0.00    -0.023 NA
ATOM      7  N   UNL     1       1.720  -0.403  -0.781  0.00  0.00    -0.044 NA
ATOM      8  N   UNL     1       1.335   0.808  -0.557  0.00  0.00    -0.228 N 
BRANCH   8   9
ATOM      9  C   UNL     1       2.166   2.012  -0.622  0.00  0.00    +0.111 C 
ATOM     10  C   UNL     1       2.794   2.146  -2.025  0.00  0.00    +0.027 C 
ATOM     11  C   UNL     1       4.213   2.708  -1.754  0.00  0.00    +0.002 C 
ATOM     12  C   UNL     1       4.631   1.971  -0.458  0.00  0.00    +0.002 C 
ATOM     13  C   UNL     1       3.334   1.902   0.374  0.00  0.00    +0.027 C 
ENDBRANCH   8   9
ENDBRANCH   3   4
BRANCH   3  14
ATOM     14  C   UNL     1      -1.146   1.941   1.585  0.00  0.00    -0.008 C 
BRANCH  14  16
ATOM     15  C   UNL     1      -0.101   2.131   3.847  0.00  0.00    +0.004 C 
ATOM     16  C   UNL     1       0.156   2.216   2.341  0.00  0.00    -0.005 C 
ENDBRANCH  14  16
ENDBRANCH   3  14
ENDBRANCH   1   3
BRANCH   1  17
ATOM     17  C   UNL     1      -2.947   0.698  -0.106  0.00  0.00    -0.073 C 
BRANCH  17  18
ATOM     18  C   UNL     1      -4.037   0.323  -1.113  0.00  0.00    +0.016 C 
BRANCH  18  19
ATOM     19  C   UNL     1      -4.896  -0.774  -0.537  0.00  0.00    -0.049 A 
ATOM     20  C   UNL     1      -4.513  -2.095  -0.674  0.00  0.00    +0.003 A 
ATOM     21  C   UNL     1      -5.298  -3.101  -0.142  0.00  0.00    +0.000 A 
ATOM     22  C   UNL     1      -6.471  -2.787   0.517  0.00  0.00    +0.000 A 
ATOM     23  C   UNL     1      -6.857  -1.466   0.649  0.00  0.00    +0.000 A 
ATOM     24  C   UNL     1      -6.069  -0.460   0.122  0.00  0.00    +0.003 A 
ENDBRANCH  18  19
ENDBRANCH  17  18
ENDBRANCH   1  17
BRANCH   1  25
ATOM     25  C   UNL     1      -2.884   3.060  -0.634  0.00  0.00    -0.037 C 
BRANCH  25  26
ATOM     26  C   UNL     1      -2.256   4.026  -1.606  0.00  0.00    +0.001 A 
ATOM     27  C   UNL     1      -2.722   4.103  -2.878  0.00  0.00    +0.017 A 
ATOM     28  C   UNL     1      -2.094   5.055  -3.796  0.00  0.00    +0.002 A 
ATOM     29  C   UNL     1      -2.534   5.184  -5.117  0.00  0.00    -0.041 A 
ATOM     30  C   UNL     1      -1.924   6.078  -5.950  0.00  0.00    +0.004 A 
ATOM     31  C   UNL     1      -0.871   6.861  -5.497  0.00  0.00    +0.005 A 
ATOM     32  C   UNL     1      -0.421   6.751  -4.199  0.00  0.00    -0.026 A 
ATOM     33  C   UNL     1      -1.027   5.847  -3.333  0.00  0.00    +0.052 A 
ATOM     34  N   UNL     1      -0.597   5.717  -2.029  0.00  0.00    -0.322 N 
ATOM     35  H   UNL     1       0.139   6.264  -1.711  0.00  0.00    +0.169 HD
ATOM     36  C   UNL     1      -1.183   4.843  -1.192  0.00  0.00    +0.251 A 
ATOM     37  O   UNL     1      -0.777   4.754  -0.046  0.00  0.00    -0.268 OA
ATOM     38  C   UNL     1       0.723   7.607  -3.720  0.00  0.00    +0.046 C 
ATOM     39  C   UNL     1      -3.677   4.339  -5.620  0.00  0.00    +0.044 C 
ENDBRANCH  25  26
ENDBRANCH   1  25
TORSDOF 10
