REMARK  Name = ZINC16613106
REMARK  12 active torsions:
REMARK  status: ('A' for Active; 'I' for Inactive)
REMARK    1  A    between atoms: C_1  and  C_2
REMARK    2  A    between atoms: C_2  and  C_3
REMARK    3  A    between atoms: C_2  and  C_4
REMARK    4  A    between atoms: C_8  and  C_36
REMARK    5  A    between atoms: C_9  and  N_10
REMARK    6  A    between atoms: N_21  and  C_30
REMARK    7  A    between atoms: N_23  and  C_24
REMARK    8  A    between atoms: C_30  and  C_31
REMARK    9  A    between atoms: N_33  and  C_34
REMARK   10  A    between atoms: N_33  and  C_35
REMARK   11  A    between atoms: C_36  and  C_37
REMARK   12  A    between atoms: C_36  and  C_38
REMARK                            x       y       z     vdW  Elec       q    Type
REMARK                         _______ _______ _______ _____ _____    ______ ____
ROOT
ATOM      1  N   UNL     1      -2.337   7.548  -1.587  0.00  0.00    -0.269 N 
ATOM      2  C   UNL     1      -1.038   7.458  -1.243  0.00  0.00    +0.306 C 
ATOM      3  O   UNL     1      -0.340   8.453  -1.236  0.00  0.00    -0.252 OA
ATOM      4  N   UNL     1      -0.511   6.263  -0.906  0.00  0.00    -0.285 N 
ATOM      5  C   UNL     1       0.870   6.166  -0.416  0.00  0.00    +0.112 C 
ATOM      6  C   UNL     1       1.627   5.148  -1.276  0.00  0.00    +0.054 C 
ATOM      7  C   UNL     1       0.860   3.829  -1.293  0.00  0.00    +0.115 C 
ATOM      8  C   UNL     1      -0.535   4.026  -1.878  0.00  0.00    +0.054 C 
ATOM      9  C   UNL     1      -1.309   5.035  -1.023  0.00  0.00    +0.112 C 
ATOM     10  C   UNL     1       0.771   3.254   0.099  0.00  0.00    +0.241 C 
ATOM     11  O   UNL     1       0.492   3.871   1.105  0.00  0.00    -0.273 OA
ATOM     12  N   UNL     1       1.054   1.936   0.034  0.00  0.00    -0.275 N 
ATOM     13  C   UNL     1       1.324   1.559  -1.360  0.00  0.00    +0.217 C 
ATOM     14  N   UNL     1       1.602   2.823  -2.082  0.00  0.00    -0.300 N 
ATOM     15  H   UNL     1      -2.910   6.767  -1.531  0.00  0.00    +0.156 HD
ENDROOT
BRANCH   1  21
ATOM     16  C   UNL     1      -3.929   9.350  -1.353  0.00  0.00    -0.023 A 
ATOM     17  C   UNL     1      -4.441  10.558  -1.785  0.00  0.00    +0.006 A 
ATOM     18  C   UNL     1      -3.898  11.184  -2.892  0.00  0.00    +0.001 A 
ATOM     19  C   UNL     1      -2.839  10.606  -3.567  0.00  0.00    +0.006 A 
ATOM     20  C   UNL     1      -2.319   9.401  -3.137  0.00  0.00    -0.023 A 
ATOM     21  C   UNL     1      -2.862   8.770  -2.025  0.00  0.00    +0.042 A 
BRANCH  16  23
ATOM     22  C   UNL     1      -4.511   9.624   1.042  0.00  0.00    +0.012 C 
ATOM     23  C   UNL     1      -4.525   8.665  -0.150  0.00  0.00    +0.015 C 
ATOM     24  C   UNL     1      -5.967   8.257  -0.458  0.00  0.00    +0.012 C 
ENDBRANCH  16  23
BRANCH  20  25
ATOM     25  C   UNL     1      -1.165   8.771  -3.874  0.00  0.00    +0.015 C 
ATOM     26  C   UNL     1      -1.700   7.767  -4.897  0.00  0.00    +0.012 C 
ATOM     27  C   UNL     1      -0.367   9.858  -4.596  0.00  0.00    +0.012 C 
ENDBRANCH  20  25
ENDBRANCH   1  21
BRANCH  14  28
ATOM     28  C   UNL     1       1.127   2.765  -3.394  0.00  0.00    +0.032 A 
ATOM     29  C   UNL     1       1.130   3.905  -4.187  0.00  0.00    +0.023 A 
ATOM     30  C   UNL     1       0.659   3.844  -5.483  0.00  0.00    +0.002 A 
ATOM     31  C   UNL     1       0.179   2.650  -5.991  0.00  0.00    +0.000 A 
ATOM     32  C   UNL     1       0.180   1.512  -5.206  0.00  0.00    +0.002 A 
ATOM     33  C   UNL     1       0.649   1.566  -3.909  0.00  0.00    +0.023 A 
ENDBRANCH  14  28
BRANCH  12  34
ATOM     34  C   UNL     1       1.086   1.021   1.177  0.00  0.00    +0.205 C 
BRANCH  34  35
ATOM     35  C   UNL     1      -0.281   0.421   1.380  0.00  0.00    +0.233 C 
ATOM     36  O   UNL     1      -1.194   0.728   0.642  0.00  0.00    -0.274 OA
ATOM     37  N   UNL     1      -0.491  -0.456   2.382  0.00  0.00    -0.306 N 
ATOM     38  C   UNL     1      -1.821  -1.039   2.579  0.00  0.00    +0.131 C 
ATOM     39  C   UNL     1       0.611  -0.826   3.273  0.00  0.00    +0.131 C 
ENDBRANCH  34  35
ENDBRANCH  12  34
TORSDOF 6
