REMARK  Name = ZINC12880159
REMARK  6 active torsions:
REMARK  status: ('A' for Active; 'I' for Inactive)
REMARK    1  A    between atoms: C_1  and  O_2
REMARK    2  A    between atoms: O_2  and  C_3
REMARK    3  A    between atoms: C_6  and  C_9
REMARK    4  A    between atoms: C_9  and  N_10
REMARK    5  A    between atoms: C_15  and  C_31
REMARK    6  A    between atoms: C_31  and  C_32
REMARK                            x       y       z     vdW  Elec       q    Type
REMARK                         _______ _______ _______ _____ _____    ______ ____
ROOT
ATOM      1  N   UNL     1       5.411   4.270   1.355  0.00  0.00    -0.237 N 
ATOM      2  C   UNL     1       6.156   3.383   2.025  0.00  0.00    +0.224 C 
ATOM      3  O   UNL     1       6.540   2.319   1.589  0.00  0.00    -0.275 OA
ATOM      4  C   UNL     1       6.444   3.915   3.410  0.00  0.00    +0.073 C 
ATOM      5  C   UNL     1       5.712   3.044   4.453  0.00  0.00    -0.053 C 
ATOM      6  C   UNL     1       4.593   5.095   4.480  0.00  0.00    +0.050 C 
ATOM      7  C   UNL     1       5.713   5.286   3.428  0.00  0.00    +0.088 C 
ATOM      8  C   UNL     1       5.111   5.377   2.044  0.00  0.00    +0.225 C 
ATOM      9  O   UNL     1       4.455   6.307   1.625  0.00  0.00    -0.275 OA
ATOM     10  C   UNL     1       4.994   5.663   5.811  0.00  0.00    -0.028 A 
ATOM     11  C   UNL     1       6.035   5.410   6.676  0.00  0.00    +0.004 A 
ATOM     12  C   UNL     1       6.139   6.116   7.861  0.00  0.00    +0.000 A 
ATOM     13  C   UNL     1       5.195   7.077   8.174  0.00  0.00    +0.002 A 
ATOM     14  C   UNL     1       4.151   7.335   7.311  0.00  0.00    +0.023 A 
ATOM     15  C   UNL     1       4.038   6.628   6.116  0.00  0.00    +0.036 A 
ATOM     16  N   UNL     1       3.088   6.705   5.096  0.00  0.00    -0.286 N 
ATOM     17  C   UNL     1       3.343   5.838   4.097  0.00  0.00    +0.211 C 
ATOM     18  O   UNL     1       2.691   5.686   3.086  0.00  0.00    -0.277 OA
ATOM     19  H   UNL     1       2.332   7.313   5.105  0.00  0.00    +0.155 HD
ATOM     20  N   UNL     1       4.387   3.659   4.560  0.00  0.00    +0.394 N 
ATOM     21  H   UNL     1       3.952   3.412   5.457  0.00  0.00    -0.083 HD
ATOM     22  H   UNL     1       3.786   3.343   3.790  0.00  0.00    -0.083 HD
ENDROOT
BRANCH   1  23
ATOM     23  C   UNL     1       4.966   4.050  -0.024  0.00  0.00    +0.151 C 
BRANCH  23  27
ATOM     24  C   UNL     1       1.185   2.058   0.002  0.00  0.00    +0.120 A 
ATOM     25  C   UNL     1       2.359   1.320  -0.008  0.00  0.00    +0.046 A 
ATOM     26  C   UNL     1       3.580   1.966  -0.022  0.00  0.00    +0.009 A 
ATOM     27  C   UNL     1       3.633   3.348  -0.015  0.00  0.00    -0.029 A 
ATOM     28  C   UNL     1       2.464   4.086   0.000  0.00  0.00    +0.009 A 
ATOM     29  C   UNL     1       1.240   3.444   0.009  0.00  0.00    +0.046 A 
BRANCH  24  31
ATOM     30  C   UNL     1       0.002  -0.004   0.002  0.00  0.00    +0.277 C 
ATOM     31  O   UNL     1      -0.017   1.425   0.010  0.00  0.00    -0.495 OA
ENDBRANCH  24  31
ENDBRANCH  23  27
ENDBRANCH   1  23
BRANCH   5  32
ATOM     32  C   UNL     1       5.620   1.596   3.967  0.00  0.00    +0.020 C 
BRANCH  32  33
ATOM     33  C   UNL     1       5.013   0.741   5.049  0.00  0.00    -0.049 A 
ATOM     34  C   UNL     1       5.826   0.127   5.983  0.00  0.00    +0.003 A 
ATOM     35  C   UNL     1       5.269  -0.653   6.979  0.00  0.00    +0.000 A 
ATOM     36  C   UNL     1       3.899  -0.828   7.034  0.00  0.00    +0.000 A 
ATOM     37  C   UNL     1       3.086  -0.219   6.097  0.00  0.00    +0.000 A 
ATOM     38  C   UNL     1       3.643   0.566   5.104  0.00  0.00    +0.003 A 
ENDBRANCH  32  33
ENDBRANCH   5  32
TORSDOF 5
