REMARK  Name = ZINC32808477
REMARK  7 active torsions:
REMARK  status: ('A' for Active; 'I' for Inactive)
REMARK    1  A    between atoms: C_1  and  C_2
REMARK    2  A    between atoms: C_6  and  C_11
REMARK    3  A    between atoms: C_19  and  O_30
REMARK    4  A    between atoms: C_22  and  O_28
REMARK    5  A    between atoms: C_24  and  O_27
REMARK    6  A    between atoms: O_28  and  C_29
REMARK    7  A    between atoms: O_30  and  C_31
REMARK                            x       y       z     vdW  Elec       q    Type
REMARK                         _______ _______ _______ _____ _____    ______ ____
ROOT
ATOM      1  C   UNL     1       8.062  -2.048  -2.518  0.00  0.00    +0.088 C 
ATOM      2  C   UNL     1       7.496  -1.833  -1.138  0.00  0.00    +0.129 A 
ATOM      3  N   UNL     1       6.324  -1.237  -1.006  0.00  0.00    -0.217 NA
ATOM      4  C   UNL     1       5.778  -1.015   0.179  0.00  0.00    +0.134 A 
ATOM      5  C   UNL     1       6.462  -1.439   1.349  0.00  0.00    +0.056 A 
ATOM      6  C   UNL     1       6.072  -1.318   2.751  0.00  0.00    +0.008 A 
ATOM      7  C   UNL     1       6.905  -1.807   3.702  0.00  0.00    +0.057 A 
ATOM      8  S   UNL     1       8.270  -2.464   2.763  0.00  0.00    -0.076 S 
ATOM      9  C   UNL     1       7.702  -2.073   1.130  0.00  0.00    +0.114 A 
ATOM     10  N   UNL     1       8.177  -2.250  -0.088  0.00  0.00    -0.225 NA
ATOM     11  N   UNL     1       4.551  -0.382   0.276  0.00  0.00    -0.307 N 
ATOM     12  C   UNL     1       3.452  -1.340   0.124  0.00  0.00    +0.146 C 
ATOM     13  C   UNL     1       2.125  -0.627   0.132  0.00  0.00    +0.021 A 
ATOM     14  C   UNL     1       0.974  -1.372   0.366  0.00  0.00    +0.125 A 
ATOM     15  C   UNL     1      -0.268  -0.758   0.379  0.00  0.00    +0.049 A 
ATOM     16  C   UNL     1      -0.365   0.602   0.156  0.00  0.00    +0.049 A 
ATOM     17  C   UNL     1       0.780   1.345  -0.078  0.00  0.00    +0.126 A 
ATOM     18  C   UNL     1       2.028   0.730  -0.088  0.00  0.00    +0.032 A 
ATOM     19  C   UNL     1       3.247   1.580  -0.340  0.00  0.00    +0.166 C 
ATOM     20  C   UNL     1       4.432   0.693  -0.722  0.00  0.00    +0.143 C 
ENDROOT
BRANCH   6  21
ATOM     21  C   UNL     1       4.796  -0.674   3.126  0.00  0.00    +0.021 A 
ATOM     22  C   UNL     1       3.758  -1.180   3.862  0.00  0.00    +0.016 A 
ATOM     23  C   UNL     1       2.657  -0.382   4.089  0.00  0.00    +0.008 A 
ATOM     24  C   UNL     1       2.629   0.870   3.567  0.00  0.00    +0.046 A 
ATOM     25  S   UNL     1       4.202   0.962   2.728  0.00  0.00    -0.097 S 
ENDBRANCH   6  21
BRANCH  19  26
ATOM     26  O   UNL     1       2.974   2.492  -1.406  0.00  0.00    -0.385 OA
ATOM     27  H   UNL     1       3.749   3.199  -1.736  0.00  0.00    +0.210 HD
ENDBRANCH  19  26
BRANCH  17  28
ATOM     28  O   UNL     1       0.684   2.683  -0.299  0.00  0.00    -0.495 OA
ATOM     29  C   UNL     1      -0.626   3.252  -0.275  0.00  0.00    +0.277 C 
ENDBRANCH  17  28
BRANCH  14  30
ATOM     30  O   UNL     1       1.068  -2.711   0.584  0.00  0.00    -0.495 OA
ATOM     31  C   UNL     1      -0.152  -3.418   0.818  0.00  0.00    +0.277 C 
ENDBRANCH  14  30
TORSDOF 4
