REMARK  Name = ZINC03326705
REMARK  3 active torsions:
REMARK  status: ('A' for Active; 'I' for Inactive)
REMARK    1  A    between atoms: C_11  and  C_13
REMARK    2  A    between atoms: C_13  and  N_14
REMARK    3  A    between atoms: C_16  and  C_22
REMARK                            x       y       z     vdW  Elec       q    Type
REMARK                         _______ _______ _______ _____ _____    ______ ____
ROOT
ATOM      1  C   UNL     1      -3.683  -1.101  -0.151  0.00  0.00    +0.221 C 
ENDROOT
BRANCH   1  12
ATOM      2  C   UNL     1       1.163   3.148   0.081  0.00  0.00    +0.000 A 
ATOM      3  C   UNL     1       1.178   1.765   0.067  0.00  0.00    +0.002 A 
ATOM      4  C   UNL     1      -0.011   1.064   0.052  0.00  0.00    +0.024 A 
ATOM      5  C   UNL     1      -1.222   1.748   0.045  0.00  0.00    +0.039 A 
ATOM      6  C   UNL     1      -1.236   3.133   0.068  0.00  0.00    -0.026 A 
ATOM      7  C   UNL     1      -0.038   3.829   0.082  0.00  0.00    +0.005 A 
ATOM      8  C   UNL     1      -2.528   3.907   0.076  0.00  0.00    +0.038 C 
ATOM      9  C   UNL     1      -3.674   3.040  -0.445  0.00  0.00    +0.024 C 
ATOM     10  C   UNL     1      -3.679   1.711   0.322  0.00  0.00    +0.114 C 
ATOM     11  N   UNL     1      -2.418   1.017   0.027  0.00  0.00    -0.270 N 
ATOM     12  C   UNL     1      -2.412  -0.299  -0.262  0.00  0.00    +0.240 C 
ATOM     13  O   UNL     1      -1.383  -0.838  -0.612  0.00  0.00    -0.273 OA
ENDBRANCH   1  12
BRANCH   1  14
ATOM     14  N   UNL     1      -3.390  -2.516  -0.393  0.00  0.00    -0.305 N 
ATOM     15  C   UNL     1      -3.056  -3.320   0.649  0.00  0.00    +0.102 A 
ATOM     16  C   UNL     1      -2.782  -4.630   0.451  0.00  0.00    +0.073 A 
ATOM     17  C   UNL     1      -2.841  -5.171  -0.841  0.00  0.00    +0.039 A 
ATOM     18  C   UNL     1      -3.176  -4.362  -1.888  0.00  0.00    +0.106 A 
ATOM     19  C   UNL     1      -3.460  -3.006  -1.645  0.00  0.00    +0.270 A 
ATOM     20  O   UNL     1      -3.765  -2.271  -2.571  0.00  0.00    -0.266 OA
ATOM     21 CL   UNL     1      -3.257  -5.001  -3.500  0.00  0.00    -0.078 Cl
BRANCH  16  22
ATOM     22  C   UNL     1      -2.413  -5.508   1.619  0.00  0.00    +0.419 C 
ATOM     23  F   UNL     1      -3.556  -6.163   2.090  0.00  0.00    -0.166 F 
ATOM     24  F   UNL     1      -1.468  -6.456   1.210  0.00  0.00    -0.166 F 
ATOM     25  F   UNL     1      -1.871  -4.721   2.642  0.00  0.00    -0.166 F 
ENDBRANCH  16  22
ENDBRANCH   1  14
TORSDOF 3
