REMARK  Name = ZINC37009526
REMARK  3 active torsions:
REMARK  status: ('A' for Active; 'I' for Inactive)
REMARK    1  A    between atoms: C_4  and  C_7
REMARK    2  A    between atoms: C_7  and  C_9
REMARK    3  A    between atoms: C_12  and  C_14
REMARK                            x       y       z     vdW  Elec       q    Type
REMARK                         _______ _______ _______ _____ _____    ______ ____
ROOT
ATOM      1  C   UNL     1       3.870  -1.483   1.245  0.00  0.00    +0.240 A 
ATOM      2  N   UNL     1       3.260  -2.591   1.553  0.00  0.00    -0.110 NA
ATOM      3  N   UNL     1       3.632  -2.977   2.723  0.00  0.00    -0.107 NA
ATOM      4  C   UNL     1       4.501  -2.119   3.206  0.00  0.00    +0.249 A 
ATOM      5  O   UNL     1       4.672  -1.159   2.275  0.00  0.00    -0.418 OA
ENDROOT
BRANCH   4   6
ATOM      6  C   UNL     1       5.170  -2.195   4.520  0.00  0.00    +0.045 A 
ATOM      7  C   UNL     1       4.914  -3.252   5.396  0.00  0.00    +0.021 A 
ATOM      8  C   UNL     1       5.577  -3.228   6.574  0.00  0.00    +0.046 A 
ATOM      9  S   UNL     1       6.542  -1.737   6.440  0.00  0.00    -0.104 S 
ATOM     10  C   UNL     1       6.059  -1.236   4.911  0.00  0.00    +0.058 A 
ENDBRANCH   4   6
BRANCH   1  11
ATOM     11  C   UNL     1       3.711  -0.707  -0.038  0.00  0.00    +0.198 C 
ATOM     12 CL   UNL     1       3.745  -1.845  -1.436  0.00  0.00    -0.107 Cl
BRANCH  11  16
ATOM     13  C   UNL     1      -0.017   1.378   0.010  0.00  0.00    +0.000 A 
ATOM     14  C   UNL     1       1.171   2.086   0.002  0.00  0.00    +0.000 A 
ATOM     15  C   UNL     1       2.377   1.411  -0.013  0.00  0.00    +0.005 A 
ATOM     16  C   UNL     1       2.396   0.029  -0.020  0.00  0.00    -0.021 A 
ATOM     17  C   UNL     1       1.208  -0.679  -0.012  0.00  0.00    +0.005 A 
ATOM     18  C   UNL     1       0.002  -0.004   0.002  0.00  0.00    +0.000 A 
ENDBRANCH  11  16
ENDBRANCH   1  11
TORSDOF 3
