REMARK  Name = ZINC34757592
REMARK  8 active torsions:
REMARK  status: ('A' for Active; 'I' for Inactive)
REMARK    1  A    between atoms: C_1  and  C_2
REMARK    2  A    between atoms: C_5  and  C_36
REMARK    3  A    between atoms: C_6  and  C_8
REMARK    4  A    between atoms: C_8  and  S_9
REMARK    5  A    between atoms: S_9  and  C_10
REMARK    6  A    between atoms: N_25  and  C_28
REMARK    7  A    between atoms: C_28  and  C_29
REMARK    8  A    between atoms: C_29  and  C_30
REMARK                            x       y       z     vdW  Elec       q    Type
REMARK                         _______ _______ _______ _____ _____    ______ ____
ROOT
ATOM      1  C   UNL     1       1.617  -4.176   4.436  0.00  0.00    +0.191 A 
ATOM      2  N   UNL     1       2.715  -4.534   5.091  0.00  0.00    -0.206 NA
ATOM      3  C   UNL     1       2.671  -5.046   6.310  0.00  0.00    +0.134 A 
ATOM      4  C   UNL     1       1.409  -5.219   6.943  0.00  0.00    +0.051 A 
ATOM      5  C   UNL     1       1.126  -5.763   8.282  0.00  0.00    -0.025 A 
ATOM      6  C   UNL     1      -0.162  -5.824   8.652  0.00  0.00    -0.004 A 
ATOM      7  S   UNL     1      -1.072  -5.170   7.271  0.00  0.00    -0.073 S 
ATOM      8  C   UNL     1       0.290  -4.818   6.193  0.00  0.00    +0.115 A 
ATOM      9  N   UNL     1       0.415  -4.310   4.981  0.00  0.00    -0.215 NA
ATOM     10  C   UNL     1      -0.331  -6.400  10.033  0.00  0.00    +0.043 C 
ATOM     11  C   UNL     1       1.013  -7.101  10.327  0.00  0.00    +0.010 C 
ATOM     12  C   UNL     1       1.983  -6.307   9.429  0.00  0.00    +0.037 C 
ATOM     13  N   UNL     1       3.837  -5.408   6.960  0.00  0.00    -0.318 N 
ATOM     14  C   UNL     1       4.514  -4.476   7.874  0.00  0.00    +0.088 C 
ATOM     15  C   UNL     1       5.994  -4.402   7.484  0.00  0.00    -0.060 C 
ATOM     16  N   UNL     1       6.564  -5.755   7.467  0.00  0.00    +0.382 N 
ATOM     17  C   UNL     1       5.918  -6.556   6.419  0.00  0.00    -0.060 C 
ATOM     18  C   UNL     1       4.432  -6.739   6.761  0.00  0.00    +0.088 C 
ATOM     19  H   UNL     1       6.413  -6.193   8.363  0.00  0.00    -0.082 HD
ENDROOT
BRANCH   1  20
ATOM     20  S   UNL     1       1.759  -3.501   2.815  0.00  0.00    -0.081 S 
BRANCH  20  21
ATOM     21  C   UNL     1       0.044  -3.159   2.330  0.00  0.00    +0.112 C 
BRANCH  21  27
ATOM     22  C   UNL     1       0.162   0.832  -0.687  0.00  0.00    +0.044 C 
ATOM     23  C   UNL     1       0.078  -0.661  -0.501  0.00  0.00    -0.050 A 
ATOM     24  C   UNL     1      -0.019  -1.491  -1.602  0.00  0.00    +0.003 A 
ATOM     25  C   UNL     1      -0.096  -2.860  -1.431  0.00  0.00    +0.004 A 
ATOM     26  C   UNL     1      -0.075  -3.400  -0.158  0.00  0.00    -0.046 A 
ATOM     27  C   UNL     1       0.022  -2.571   0.943  0.00  0.00    -0.034 A 
ATOM     28  C   UNL     1       0.104  -1.201   0.771  0.00  0.00    +0.008 A 
ATOM     29  C   UNL     1      -0.160  -4.893   0.028  0.00  0.00    +0.044 C 
ENDBRANCH  21  27
ENDBRANCH  20  21
ENDBRANCH   1  20
BRANCH  16  30
ATOM     30  C   UNL     1       8.006  -5.674   7.201  0.00  0.00    -0.074 C 
BRANCH  30  31
ATOM     31  C   UNL     1       8.623  -7.070   7.306  0.00  0.00    +0.016 C 
BRANCH  31  32
ATOM     32  C   UNL     1      10.103  -6.987   7.033  0.00  0.00    -0.049 A 
ATOM     33  C   UNL     1      10.576  -7.121   5.741  0.00  0.00    +0.003 A 
ATOM     34  C   UNL     1      11.933  -7.045   5.491  0.00  0.00    +0.000 A 
ATOM     35  C   UNL     1      12.818  -6.834   6.532  0.00  0.00    +0.000 A 
ATOM     36  C   UNL     1      12.344  -6.698   7.824  0.00  0.00    +0.000 A 
ATOM     37  C   UNL     1      10.987  -6.770   8.074  0.00  0.00    +0.003 A 
ENDBRANCH  31  32
ENDBRANCH  30  31
ENDBRANCH  16  30
TORSDOF 6
