REMARK  Name = ZINC12361555
REMARK  6 active torsions:
REMARK  status: ('A' for Active; 'I' for Inactive)
REMARK    1  A    between atoms: C_1  and  C_2
REMARK    2  A    between atoms: C_4  and  S_10
REMARK    3  A    between atoms: C_7  and  O_8
REMARK    4  A    between atoms: O_8  and  C_9
REMARK    5  A    between atoms: S_10  and  N_13
REMARK    6  A    between atoms: C_21  and  C_23
REMARK                            x       y       z     vdW  Elec       q    Type
REMARK                         _______ _______ _______ _____ _____    ______ ____
ROOT
ATOM      1  N   UNL     1      -1.263  -3.645   3.440  0.00  0.00    -0.162 NA
ATOM      2  C   UNL     1      -1.967  -2.683   4.302  0.00  0.00    +0.132 C 
ATOM      3  C   UNL     1      -2.898  -1.821   3.433  0.00  0.00    +0.138 C 
ATOM      4  N   UNL     1      -3.648  -2.690   2.520  0.00  0.00    -0.348 N 
ATOM      5  C   UNL     1      -4.795  -2.381   1.856  0.00  0.00    +0.086 A 
ATOM      6  C   UNL     1      -5.153  -3.449   1.111  0.00  0.00    +0.019 A 
ATOM      7  C   UNL     1      -4.190  -4.457   1.326  0.00  0.00    +0.025 A 
ATOM      8  C   UNL     1      -3.288  -3.968   2.192  0.00  0.00    +0.042 A 
ATOM      9  C   UNL     1      -2.066  -4.667   2.742  0.00  0.00    +0.158 C 
ENDROOT
BRANCH   9  10
ATOM     10  C   UNL     1      -1.265  -5.270   1.617  0.00  0.00    -0.004 A 
ATOM     11  C   UNL     1      -1.045  -4.546   0.460  0.00  0.00    +0.008 A 
ATOM     12  C   UNL     1      -0.310  -5.099  -0.572  0.00  0.00    +0.020 A 
ATOM     13  C   UNL     1       0.204  -6.377  -0.448  0.00  0.00    +0.042 A 
ATOM     14  C   UNL     1      -0.016  -7.102   0.709  0.00  0.00    +0.040 A 
ATOM     15  C   UNL     1      -0.746  -6.546   1.744  0.00  0.00    +0.047 A 
ATOM     16 CL   UNL     1      -1.016  -7.452   3.200  0.00  0.00    -0.083 Cl
ATOM     17 CL   UNL     1       1.127  -7.071  -1.745  0.00  0.00    -0.083 Cl
ENDBRANCH   9  10
BRANCH   1  18
ATOM     18  S   UNL     1       0.382  -3.587   3.263  0.00  0.00    +0.062 S 
ATOM     19  O   UNL     1       0.754  -2.220   3.372  0.00  0.00    -0.153 OA
ATOM     20  O   UNL     1       0.696  -4.373   2.123  0.00  0.00    -0.153 OA
BRANCH  18  24
ATOM     21  C   UNL     1       1.906  -7.937   5.725  0.00  0.00    +0.047 C 
ATOM     22  C   UNL     1       1.765  -6.437   5.734  0.00  0.00    -0.007 A 
ATOM     23  C   UNL     1       1.214  -5.788   4.646  0.00  0.00    +0.035 A 
ATOM     24  C   UNL     1       1.085  -4.412   4.653  0.00  0.00    +0.106 A 
ATOM     25  C   UNL     1       1.505  -3.681   5.749  0.00  0.00    +0.032 A 
ATOM     26  C   UNL     1       2.056  -4.325   6.840  0.00  0.00    +0.048 A 
ATOM     27  C   UNL     1       2.183  -5.707   6.837  0.00  0.00    +0.123 A 
BRANCH  27  28
ATOM     28  O   UNL     1       2.719  -6.343   7.911  0.00  0.00    -0.495 OA
ATOM     29  C   UNL     1       3.128  -5.528   9.011  0.00  0.00    +0.277 C 
ENDBRANCH  27  28
ENDBRANCH  18  24
ENDBRANCH   1  18
TORSDOF 4
