REMARK  Name = ZINC01233779
REMARK  8 active torsions:
REMARK  status: ('A' for Active; 'I' for Inactive)
REMARK    1  A    between atoms: C_1  and  C_2
REMARK    2  A    between atoms: C_5  and  N_9
REMARK    3  A    between atoms: C_6  and  O_8
REMARK    4  A    between atoms: C_10  and  C_11
REMARK    5  A    between atoms: C_14  and  O_19
REMARK    6  A    between atoms: C_16  and  O_17
REMARK    7  A    between atoms: O_17  and  C_18
REMARK    8  A    between atoms: O_19  and  C_20
REMARK                            x       y       z     vdW  Elec       q    Type
REMARK                         _______ _______ _______ _____ _____    ______ ____
ROOT
ATOM      1  N   UNL     1      -6.593  -0.782   0.979  0.00  0.00    -0.251 NA
ATOM      2  C   UNL     1      -5.992  -0.075   1.896  0.00  0.00    +0.123 C 
ENDROOT
BRANCH   1   7
ATOM      3  C   UNL     1     -11.826  -2.708   1.875  0.00  0.00    +0.044 C 
ATOM      4  C   UNL     1     -10.429  -2.197   1.636  0.00  0.00    -0.047 A 
ATOM      5  C   UNL     1     -10.127  -0.872   1.897  0.00  0.00    +0.005 A 
ATOM      6  C   UNL     1      -8.851  -0.394   1.681  0.00  0.00    +0.032 A 
ATOM      7  C   UNL     1      -7.860  -1.250   1.196  0.00  0.00    +0.105 A 
ATOM      8  C   UNL     1      -8.172  -2.589   0.927  0.00  0.00    +0.142 A 
ATOM      9  C   UNL     1      -9.457  -3.054   1.155  0.00  0.00    +0.051 A 
BRANCH   8  10
ATOM     10  O   UNL     1      -7.217  -3.430   0.450  0.00  0.00    -0.505 OA
ATOM     11  H   UNL     1      -6.719  -3.891   1.139  0.00  0.00    +0.292 HD
ENDBRANCH   8  10
ENDBRANCH   1   7
BRANCH   2  12
ATOM     12  C   UNL     1      -4.680   0.523   1.620  0.00  0.00    +0.036 A 
ATOM     13  C   UNL     1      -4.033   1.282   2.603  0.00  0.00    +0.032 A 
ATOM     14  C   UNL     1      -2.803   1.841   2.339  0.00  0.00    +0.060 A 
ATOM     15  C   UNL     1      -2.199   1.655   1.099  0.00  0.00    +0.137 A 
ATOM     16  C   UNL     1      -2.834   0.909   0.116  0.00  0.00    +0.093 A 
ATOM     17  C   UNL     1      -4.069   0.337   0.370  0.00  0.00    +0.132 A 
ATOM     18 BR   UNL     1      -1.930   2.867   3.667  0.00  0.00    -0.046 Br
BRANCH  17  19
ATOM     19  O   UNL     1      -4.689  -0.397  -0.589  0.00  0.00    -0.494 OA
ATOM     20  C   UNL     1      -4.007  -0.544  -1.836  0.00  0.00    +0.277 C 
ENDBRANCH  17  19
BRANCH  15  21
ATOM     21  O   UNL     1      -0.986   2.210   0.847  0.00  0.00    -0.494 OA
ATOM     22  C   UNL     1      -0.423   1.980  -0.446  0.00  0.00    +0.277 C 
ENDBRANCH  15  21
ENDBRANCH   2  12
TORSDOF 5
