REMARK  Name = ZINC60163295
REMARK  4 active torsions:
REMARK  status: ('A' for Active; 'I' for Inactive)
REMARK    1  A    between atoms: C_3  and  C_6
REMARK    2  A    between atoms: C_9  and  C_14
REMARK    3  A    between atoms: C_24  and  O_26
REMARK    4  A    between atoms: O_26  and  C_27
REMARK                            x       y       z     vdW  Elec       q    Type
REMARK                         _______ _______ _______ _____ _____    ______ ____
ROOT
ATOM      1  C   UNL     1       7.784   0.484  -0.071  0.00  0.00    +0.256 C 
ATOM      2  O   UNL     1       6.571   0.531   0.022  0.00  0.00    -0.269 OA
ATOM      3  N   UNL     1       8.405  -0.706  -0.190  0.00  0.00    -0.267 N 
ATOM      4  C   UNL     1       9.872  -0.786  -0.200  0.00  0.00    +0.114 C 
ATOM      5  C   UNL     1      10.281  -1.744  -1.326  0.00  0.00    +0.024 C 
ATOM      6  C   UNL     1       9.739  -3.138  -1.010  0.00  0.00    +0.038 C 
ATOM      7  C   UNL     1       8.267  -3.073  -0.699  0.00  0.00    -0.022 A 
ATOM      8  C   UNL     1       7.661  -1.891  -0.300  0.00  0.00    +0.040 A 
ATOM      9  C   UNL     1       6.302  -1.865  -0.010  0.00  0.00    +0.027 A 
ATOM     10  C   UNL     1       5.549  -3.018  -0.115  0.00  0.00    +0.048 A 
ATOM     11  C   UNL     1       6.152  -4.202  -0.511  0.00  0.00    +0.130 A 
ATOM     12  C   UNL     1       7.509  -4.226  -0.809  0.00  0.00    +0.051 A 
ENDROOT
BRANCH   1  16
ATOM     13  C   UNL     1      10.071   4.037   0.009  0.00  0.00    +0.085 A 
ATOM     14  C   UNL     1       8.964   3.962  -0.828  0.00  0.00    +0.030 A 
ATOM     15  C   UNL     1       8.206   2.804  -0.864  0.00  0.00    +0.020 A 
ATOM     16  C   UNL     1       8.570   1.723  -0.052  0.00  0.00    +0.101 A 
ATOM     17  C   UNL     1       9.705   1.838   0.787  0.00  0.00    +0.261 A 
ATOM     18  O   UNL     1      10.033   0.905   1.499  0.00  0.00    -0.267 OA
ATOM     19  N   UNL     1      10.425   2.976   0.796  0.00  0.00    -0.319 N 
ATOM     20  H   UNL     1      11.204   3.045   1.371  0.00  0.00    +0.169 HD
BRANCH  13  23
ATOM     21  C   UNL     1      11.640   7.314  -0.340  0.00  0.00    +0.042 A 
ATOM     22  C   UNL     1      10.635   6.397  -0.685  0.00  0.00    +0.051 A 
ATOM     23  C   UNL     1      10.870   5.264   0.043  0.00  0.00    +0.151 A 
ATOM     24  O   UNL     1      11.967   5.475   0.800  0.00  0.00    -0.461 OA
ATOM     25  C   UNL     1      12.434   6.710   0.571  0.00  0.00    +0.196 A 
ENDBRANCH  13  23
ENDBRANCH   1  16
BRANCH  11  26
ATOM     26  O   UNL     1       5.414  -5.339  -0.616  0.00  0.00    -0.406 OA
BRANCH  26  27
ATOM     27  C   UNL     1       4.023  -5.240  -0.303  0.00  0.00    +0.575 C 
ATOM     28  F   UNL     1       3.417  -4.316  -1.162  0.00  0.00    -0.133 F 
ATOM     29  F   UNL     1       3.418  -6.491  -0.463  0.00  0.00    -0.133 F 
ATOM     30  F   UNL     1       3.872  -4.814   1.021  0.00  0.00    -0.133 F 
ENDBRANCH  26  27
ENDBRANCH  11  26
TORSDOF 4
