REMARK  Name = ZINC20466825
REMARK  11 active torsions:
REMARK  status: ('A' for Active; 'I' for Inactive)
REMARK    1  A    between atoms: C_1  and  C_2
REMARK    2  A    between atoms: C_4  and  N_32
REMARK    3  A    between atoms: C_8  and  C_31
REMARK    4  A    between atoms: C_11  and  O_30
REMARK    5  A    between atoms: C_13  and  C_17
REMARK    6  A    between atoms: C_17  and  C_19
REMARK    7  A    between atoms: C_17  and  C_20
REMARK    8  A    between atoms: N_22  and  C_23
REMARK    9  A    between atoms: C_23  and  C_24
REMARK   10  A    between atoms: C_33  and  C_35
REMARK   11  A    between atoms: C_35  and  C_36
REMARK                            x       y       z     vdW  Elec       q    Type
REMARK                         _______ _______ _______ _____ _____    ______ ____
ROOT
ATOM      1  C   UNL     1       4.103   1.248  -0.517  0.00  0.00    +0.010 C 
ATOM      2  C   UNL     1       3.571   1.575   0.879  0.00  0.00    +0.012 C 
ATOM      3  C   UNL     1       4.105   0.551   1.882  0.00  0.00    +0.076 C 
ATOM      4  C   UNL     1       3.573   0.878   3.278  0.00  0.00    +0.023 C 
ATOM      5  C   UNL     1       2.044   0.829   3.265  0.00  0.00    +0.009 C 
ATOM      6  C   UNL     1       1.509   1.854   2.263  0.00  0.00    -0.027 C 
ATOM      7  C   UNL     1       2.042   1.527   0.866  0.00  0.00    +0.028 C 
ATOM      8  C   UNL     1       1.507   2.551  -0.136  0.00  0.00    +0.122 C 
ATOM      9  C   UNL     1      -0.022   2.503  -0.149  0.00  0.00    +0.029 C 
ATOM     10  C   UNL     1      -0.554   2.830   1.247  0.00  0.00    +0.007 C 
ATOM     11  C   UNL     1      -0.020   1.806   2.250  0.00  0.00    +0.007 C 
ATOM     12  C   UNL     1       1.972   3.255   2.670  0.00  0.00    +0.011 C 
ENDROOT
BRANCH   3  13
ATOM     13  N   UNL     1       5.569   0.597   1.894  0.00  0.00    -0.312 N 
ATOM     14  C   UNL     1       6.275  -0.486   2.276  0.00  0.00    +0.218 C 
ATOM     15  O   UNL     1       5.698  -1.499   2.609  0.00  0.00    -0.275 OA
ATOM     16  H   UNL     1       6.093   1.516   1.592  0.00  0.00    +0.149 HD
BRANCH  14  17
ATOM     17  C   UNL     1       7.781  -0.438   2.288  0.00  0.00    +0.130 C 
BRANCH  17  18
ATOM     18  C   UNL     1       8.322  -1.766   2.751  0.00  0.00    -0.039 A 
ATOM     19  C   UNL     1       8.554  -1.989   4.095  0.00  0.00    +0.004 A 
ATOM     20  C   UNL     1       9.046  -3.209   4.519  0.00  0.00    +0.000 A 
ATOM     21  C   UNL     1       9.315  -4.204   3.598  0.00  0.00    +0.000 A 
ATOM     22  C   UNL     1       9.088  -3.980   2.253  0.00  0.00    +0.000 A 
ATOM     23  C   UNL     1       8.592  -2.761   1.829  0.00  0.00    +0.004 A 
ENDBRANCH  17  18
ENDBRANCH  14  17
ENDBRANCH   3  13
BRANCH   9  24
ATOM     24  C   UNL     1      -0.556   3.527  -1.152  0.00  0.00    +0.077 C 
ATOM     25  C   UNL     1      -0.220   4.939  -0.667  0.00  0.00    +0.017 C 
BRANCH  24  26
ATOM     26  C   UNL     1      -2.051   3.380  -1.272  0.00  0.00    +0.216 C 
ATOM     27  O   UNL     1      -2.627   2.513  -0.650  0.00  0.00    -0.276 OA
ATOM     28  N   UNL     1      -2.748   4.213  -2.071  0.00  0.00    -0.311 N 
ATOM     29  H   UNL     1      -2.226   4.999  -2.635  0.00  0.00    +0.149 HD
BRANCH  28  30
ATOM     30  C   UNL     1      -4.202   4.069  -2.188  0.00  0.00    +0.139 C 
BRANCH  30  31
ATOM     31  C   UNL     1      -4.735   5.114  -3.135  0.00  0.00    -0.030 A 
ATOM     32  C   UNL     1      -5.133   6.346  -2.651  0.00  0.00    +0.005 A 
ATOM     33  C   UNL     1      -5.617   7.305  -3.521  0.00  0.00    +0.000 A 
ATOM     34  C   UNL     1      -5.713   7.029  -4.872  0.00  0.00    +0.000 A 
ATOM     35  C   UNL     1      -5.320   5.795  -5.354  0.00  0.00    +0.000 A 
ATOM     36  C   UNL     1      -4.831   4.837  -4.486  0.00  0.00    +0.005 A 
ENDBRANCH  30  31
ENDBRANCH  28  30
ENDBRANCH  24  26
ENDBRANCH   9  24
BRANCH   8  37
ATOM     37  O   UNL     1       2.005   2.246  -1.441  0.00  0.00    -0.391 OA
ATOM     38  H   UNL     1       1.726   2.877  -2.297  0.00  0.00    +0.210 HD
ENDBRANCH   8  37
TORSDOF 8
