REMARK  Name = ZINC33068918
REMARK  9 active torsions:
REMARK  status: ('A' for Active; 'I' for Inactive)
REMARK    1  A    between atoms: C_1  and  C_2
REMARK    2  A    between atoms: C_10  and  C_12
REMARK    3  A    between atoms: C_12  and  N_13
REMARK    4  A    between atoms: N_13  and  C_14
REMARK    5  A    between atoms: N_13  and  C_22
REMARK    6  A    between atoms: C_14  and  C_15
REMARK    7  A    between atoms: C_22  and  C_23
REMARK    8  A    between atoms: C_23  and  C_24
REMARK    9  A    between atoms: C_23  and  C_25
REMARK                            x       y       z     vdW  Elec       q    Type
REMARK                         _______ _______ _______ _____ _____    ______ ____
ROOT
ATOM      1  C   UNL     1       0.231  -3.184   4.519  0.00  0.00    +0.138 C 
ENDROOT
BRANCH   1  11
ATOM      2  C   UNL     1       0.580  -0.866  -1.665  0.00  0.00    +0.064 C 
ATOM      3  C   UNL     1       0.887  -2.175  -0.985  0.00  0.00    +0.033 A 
ATOM      4  C   UNL     1       1.356  -3.194  -1.705  0.00  0.00    +0.070 A 
ATOM      5  S   UNL     1       1.546  -4.463  -0.463  0.00  0.00    -0.059 S 
ATOM      6  C   UNL     1       0.977  -3.511   0.930  0.00  0.00    +0.158 A 
ATOM      7  N   UNL     1       0.684  -2.297   0.369  0.00  0.00    -0.261 N 
ATOM      8  C   UNL     1       0.216  -1.332   1.215  0.00  0.00    +0.259 A 
ATOM      9  O   UNL     1      -0.070  -0.226   0.783  0.00  0.00    -0.267 OA
ATOM     10  C   UNL     1       0.064  -1.612   2.574  0.00  0.00    +0.093 A 
ATOM     11  C   UNL     1       0.388  -2.862   3.055  0.00  0.00    +0.037 A 
ATOM     12  N   UNL     1       0.832  -3.782   2.203  0.00  0.00    -0.337 N 
ATOM     13  H   UNL     1       1.063  -4.665   2.532  0.00  0.00    +0.168 HD
ENDBRANCH   1  11
BRANCH   1  14
ATOM     14  N   UNL     1      -1.124  -3.696   4.766  0.00  0.00    -0.292 NA
BRANCH  14  15
ATOM     15  C   UNL     1      -1.401  -3.778   6.206  0.00  0.00    +0.120 C 
BRANCH  15  16
ATOM     16  C   UNL     1      -2.888  -3.890   6.426  0.00  0.00    -0.033 A 
ATOM     17  C   UNL     1      -3.670  -2.751   6.455  0.00  0.00    +0.006 A 
ATOM     18  C   UNL     1      -5.034  -2.853   6.656  0.00  0.00    +0.020 A 
ATOM     19  C   UNL     1      -5.616  -4.096   6.829  0.00  0.00    +0.041 A 
ATOM     20  C   UNL     1      -4.832  -5.237   6.799  0.00  0.00    +0.020 A 
ATOM     21  C   UNL     1      -3.470  -5.133   6.592  0.00  0.00    +0.006 A 
ATOM     22 CL   UNL     1      -7.328  -4.226   7.082  0.00  0.00    -0.084 Cl
ENDBRANCH  15  16
ENDBRANCH  14  15
BRANCH  14  23
ATOM     23  C   UNL     1      -1.321  -4.998   4.116  0.00  0.00    +0.088 C 
BRANCH  23  24
ATOM     24  C   UNL     1      -1.751  -4.784   2.663  0.00  0.00    -0.003 C 
ATOM     25  C   UNL     1      -1.820  -6.134   1.947  0.00  0.00    +0.008 C 
ATOM     26  C   UNL     1      -3.129  -4.120   2.632  0.00  0.00    +0.008 C 
ENDBRANCH  23  24
ENDBRANCH  14  23
ENDBRANCH   1  14
TORSDOF 6
