REMARK  Name = ZINC63350061
REMARK  14 active torsions:
REMARK  status: ('A' for Active; 'I' for Inactive)
REMARK    1  A    between atoms: C_1  and  C_2
REMARK    2  A    between atoms: C_2  and  O_3
REMARK    3  A    between atoms: O_3  and  C_4
REMARK    4  A    between atoms: C_4  and  C_6
REMARK    5  A    between atoms: C_11  and  C_12
REMARK    6  A    between atoms: C_12  and  O_13
REMARK    7  A    between atoms: O_13  and  C_14
REMARK    8  A    between atoms: C_14  and  C_15
REMARK    9  A    between atoms: C_17  and  C_23
REMARK   10  A    between atoms: C_20  and  O_21
REMARK   11  A    between atoms: O_21  and  C_22
REMARK   12  A    between atoms: C_36  and  C_39
REMARK   13  A    between atoms: C_39  and  O_41
REMARK   14  A    between atoms: O_41  and  C_42
REMARK                            x       y       z     vdW  Elec       q    Type
REMARK                         _______ _______ _______ _____ _____    ______ ____
ROOT
ATOM      1  C   UNL     1      -1.743  -8.419  -0.027  0.00  0.00    +0.020 A 
ATOM      2  C   UNL     1      -3.111  -8.611  -0.020  0.00  0.00    +0.014 A 
ATOM      3  C   UNL     1      -3.631  -9.892  -0.022  0.00  0.00    -0.028 A 
ATOM      4  C   UNL     1      -2.783 -10.984  -0.030  0.00  0.00    +0.009 A 
ATOM      5  C   UNL     1      -1.414 -10.797  -0.037  0.00  0.00    +0.046 A 
ATOM      6  C   UNL     1      -0.890  -9.513  -0.041  0.00  0.00    +0.125 A 
ENDROOT
BRANCH   3   7
ATOM      7  C   UNL     1      -5.123 -10.099  -0.014  0.00  0.00    +0.111 C 
ATOM      8  C   UNL     1      -5.590 -10.436   1.405  0.00  0.00    +0.128 C 
ATOM      9  C   UNL     1      -7.067 -10.795   1.293  0.00  0.00    -0.035 C 
ATOM     10  C   UNL     1      -7.708 -10.017   2.154  0.00  0.00    -0.001 A 
ATOM     11  C   UNL     1      -9.122  -9.957   2.559  0.00  0.00    +0.010 A 
ATOM     12  C   UNL     1      -9.443  -9.007   3.476  0.00  0.00    +0.001 A 
ATOM     13  C   UNL     1      -8.511  -8.120   4.025  0.00  0.00    +0.002 A 
ATOM     14  C   UNL     1      -7.190  -8.108   3.715  0.00  0.00    +0.026 A 
ATOM     15  C   UNL     1      -6.730  -9.065   2.765  0.00  0.00    +0.043 A 
ATOM     16  N   UNL     1      -5.513  -9.290   2.309  0.00  0.00    -0.376 N 
ATOM     17  C   UNL     1      -7.565 -11.793   0.276  0.00  0.00    +0.063 C 
ATOM     18  C   UNL     1      -6.918 -11.399  -1.064  0.00  0.00    +0.168 C 
ATOM     19  N   UNL     1      -5.473 -11.223  -0.896  0.00  0.00    -0.295 NA
ATOM     20  H   UNL     1      -5.012 -11.139  -1.789  0.00  0.00    +0.123 HD
ATOM     21  H   UNL     1      -4.710  -8.790   2.525  0.00  0.00    +0.160 HD
BRANCH  18  22
ATOM     22  C   UNL     1      -7.172 -12.484  -2.079  0.00  0.00    +0.324 C 
ATOM     23  O   UNL     1      -6.309 -13.293  -2.327  0.00  0.00    -0.249 OA
BRANCH  22  24
ATOM     24  O   UNL     1      -8.356 -12.553  -2.707  0.00  0.00    -0.467 OA
ATOM     25  C   UNL     1      -8.527 -13.607  -3.656  0.00  0.00    +0.280 C 
ENDBRANCH  22  24
ENDBRANCH  18  22
ENDBRANCH   3   7
BRANCH   6  26
ATOM     26  O   UNL     1       0.456  -9.326  -0.053  0.00  0.00    -0.495 OA
ATOM     27  C   UNL     1       1.273 -10.498  -0.067  0.00  0.00    +0.277 C 
ENDBRANCH   6  26
BRANCH   1  28
ATOM     28  C   UNL     1      -1.178  -7.022  -0.025  0.00  0.00    +0.199 C 
BRANCH  28  29
ATOM     29  O   UNL     1      -2.248  -6.075  -0.009  0.00  0.00    -0.370 OA
BRANCH  29  30
ATOM     30  C   UNL     1      -1.818  -4.712  -0.006  0.00  0.00    +0.196 C 
BRANCH  30  36
ATOM     31  C   UNL     1      -2.854  -2.420   0.016  0.00  0.00    +0.064 A 
ATOM     32  C   UNL     1      -3.975  -1.587   0.026  0.00  0.00    +0.015 A 
ATOM     33  C   UNL     1      -5.240  -2.138   0.035  0.00  0.00    +0.001 A 
ATOM     34  C   UNL     1      -5.399  -3.513   0.035  0.00  0.00    +0.000 A 
ATOM     35  C   UNL     1      -4.292  -4.343   0.026  0.00  0.00    +0.007 A 
ATOM     36  C   UNL     1      -3.022  -3.806   0.011  0.00  0.00    -0.008 A 
BRANCH  31  37
ATOM     37  C   UNL     1      -1.497  -1.836   0.006  0.00  0.00    +0.340 C 
ATOM     38  O   UNL     1      -0.524  -2.563  -0.007  0.00  0.00    -0.245 OA
BRANCH  37  39
ATOM     39  O   UNL     1      -1.339  -0.499   0.012  0.00  0.00    -0.461 OA
BRANCH  39  41
ATOM     40  C   UNL     1      -0.019   1.526   0.010  0.00  0.00    +0.048 C 
ATOM     41  C   UNL     1       0.002  -0.004   0.002  0.00  0.00    +0.229 C 
ENDBRANCH  39  41
ENDBRANCH  37  39
ENDBRANCH  31  37
ENDBRANCH  30  36
ENDBRANCH  29  30
ENDBRANCH  28  29
ENDBRANCH   1  28
TORSDOF 11
