REMARK  Name = ZINC40783544
REMARK  4 active torsions:
REMARK  status: ('A' for Active; 'I' for Inactive)
REMARK    1  A    between atoms: C_1  and  C_2
REMARK    2  A    between atoms: C_13  and  N_25
REMARK    3  A    between atoms: C_14  and  O_18
REMARK    4  A    between atoms: O_18  and  C_19
REMARK                            x       y       z     vdW  Elec       q    Type
REMARK                         _______ _______ _______ _____ _____    ______ ____
ROOT
ATOM      1  C   UNL     1      -0.018   1.503   0.010  0.00  0.00    +0.046 C 
ATOM      2  C   UNL     1       0.002  -0.004   0.002  0.00  0.00    -0.024 A 
ATOM      3  C   UNL     1       0.006  -0.675  -1.193  0.00  0.00    +0.005 A 
ATOM      4  C   UNL     1       0.025  -2.061  -1.246  0.00  0.00    +0.001 A 
ATOM      5  C   UNL     1       0.040  -2.784  -0.066  0.00  0.00    +0.017 A 
ATOM      6  C   UNL     1       0.037  -2.120   1.134  0.00  0.00    +0.041 A 
ATOM      7  C   UNL     1       0.023  -0.710   1.227  0.00  0.00    +0.083 A 
ATOM      8  N   UNL     1       0.028  -0.205   2.480  0.00  0.00    -0.224 NA
ATOM      9  C   UNL     1       0.049  -0.970   3.548  0.00  0.00    +0.165 A 
ATOM     10  S   UNL     1       0.052  -2.611   2.842  0.00  0.00    -0.052 S 
ATOM     11  N   UNL     1       0.056  -0.599   4.879  0.00  0.00    -0.277 N 
ATOM     12  C   UNL     1       0.079  -1.572   5.872  0.00  0.00    +0.152 A 
ATOM     13  C   UNL     1       0.081  -1.210   7.222  0.00  0.00    +0.128 A 
ATOM     14  C   UNL     1       0.104  -2.226   8.176  0.00  0.00    +0.241 A 
ATOM     15  N   UNL     1       0.123  -3.491   7.771  0.00  0.00    -0.200 NA
ATOM     16  C   UNL     1       0.120  -3.792   6.488  0.00  0.00    +0.227 A 
ATOM     17  N   UNL     1       0.093  -2.864   5.553  0.00  0.00    -0.218 NA
ATOM     18  H   UNL     1       0.046   0.341   5.121  0.00  0.00    +0.156 HD
ENDROOT
BRANCH  13  19
ATOM     19  N   UNL     1       0.062   0.140   7.605  0.00  0.00    -0.351 N 
ATOM     20  H   UNL     1       0.047   0.836   6.930  0.00  0.00    +0.143 HD
ATOM     21  H   UNL     1       0.064   0.377   8.546  0.00  0.00    +0.143 HD
ENDBRANCH  13  19
BRANCH  14  22
ATOM     22  O   UNL     1       0.108  -1.927   9.500  0.00  0.00    -0.472 OA
BRANCH  22  23
ATOM     23  C   UNL     1       0.132  -3.026  10.413  0.00  0.00    +0.175 C 
ATOM     24  C   UNL     1      -1.302  -3.441  10.748  0.00  0.00    +0.044 C 
ATOM     25  C   UNL     1      -1.277  -4.618  11.726  0.00  0.00    +0.004 C 
ATOM     26  C   UNL     1      -0.554  -4.200  13.008  0.00  0.00    +0.000 C 
ATOM     27  C   UNL     1       0.880  -3.784  12.673  0.00  0.00    +0.004 C 
ATOM     28  C   UNL     1       0.854  -2.608  11.695  0.00  0.00    +0.044 C 
ENDBRANCH  22  23
ENDBRANCH  14  22
TORSDOF 3
