REMARK  Name = ZINC36310261
REMARK  15 active torsions:
REMARK  status: ('A' for Active; 'I' for Inactive)
REMARK    1  A    between atoms: C_1  and  C_2
REMARK    2  A    between atoms: C_2  and  C_3
REMARK    3  A    between atoms: C_3  and  N_4
REMARK    4  A    between atoms: N_4  and  C_5
REMARK    5  A    between atoms: N_4  and  C_28
REMARK    6  A    between atoms: C_5  and  C_6
REMARK    7  A    between atoms: C_16  and  C_18
REMARK    8  A    between atoms: C_18  and  O_19
REMARK    9  A    between atoms: O_19  and  C_20
REMARK   10  A    between atoms: C_24  and  O_26
REMARK   11  A    between atoms: O_26  and  C_27
REMARK   12  A    between atoms: C_28  and  C_29
REMARK   13  A    between atoms: C_29  and  C_30
REMARK   14  A    between atoms: C_29  and  C_31
REMARK   15  A    between atoms: C_29  and  O_33
REMARK                            x       y       z     vdW  Elec       q    Type
REMARK                         _______ _______ _______ _____ _____    ______ ____
ROOT
ATOM      1  C   UNL     1      -0.626  -1.733   3.177  0.00  0.00    +0.200 C 
ATOM      2  O   UNL     1      -1.563  -1.295   2.544  0.00  0.00    -0.278 OA
ATOM      3  N   UNL     1      -0.705  -1.827   4.519  0.00  0.00    -0.292 N 
ATOM      4  C   UNL     1       0.427  -2.350   5.298  0.00  0.00    +0.113 C 
ATOM      5  C   UNL     1      -0.011  -3.663   5.964  0.00  0.00    +0.061 C 
ATOM      6  C   UNL     1      -1.387  -3.483   6.519  0.00  0.00    -0.004 A 
ATOM      7  C   UNL     1      -2.286  -2.505   6.225  0.00  0.00    -0.014 A 
ATOM      8  C   UNL     1      -3.515  -2.566   6.879  0.00  0.00    +0.013 A 
ATOM      9  C   UNL     1      -3.763  -3.562   7.761  0.00  0.00    +0.046 A 
ATOM     10  S   UNL     1      -2.235  -4.487   7.710  0.00  0.00    -0.101 S 
ATOM     11  C   UNL     1      -1.922  -1.402   5.226  0.00  0.00    +0.144 C 
ENDROOT
BRANCH   1  12
ATOM     12  C   UNL     1       0.626  -2.172   2.463  0.00  0.00    +0.019 C 
BRANCH  12  13
ATOM     13  N   UNL     1       0.462  -1.970   1.018  0.00  0.00    +0.387 N 
ATOM     14  H   UNL     1      -0.361  -2.460   0.701  0.00  0.00    -0.081 HD
BRANCH  13  15
ATOM     15  C   UNL     1       0.316  -0.535   0.737  0.00  0.00    -0.078 C 
BRANCH  15  17
ATOM     16  C   UNL     1      -0.279   1.144  -1.015  0.00  0.00    +0.002 C 
ATOM     17  C   UNL     1       0.008  -0.335  -0.748  0.00  0.00    -0.022 C 
ENDBRANCH  15  17
ENDBRANCH  13  15
BRANCH  13  18
ATOM     18  C   UNL     1       1.643  -2.489   0.314  0.00  0.00    -0.039 C 
BRANCH  18  19
ATOM     19  C   UNL     1       1.677  -4.014   0.432  0.00  0.00    +0.067 C 
ATOM     20  C   UNL     1       0.335  -4.591  -0.025  0.00  0.00    +0.044 C 
BRANCH  19  21
ATOM     21  C   UNL     1       2.780  -4.561  -0.437  0.00  0.00    -0.003 C 
ATOM     22  C   UNL     1       3.755  -5.253   0.100  0.00  0.00    +0.006 C 
ENDBRANCH  19  21
BRANCH  19  23
ATOM     23  O   UNL     1       1.915  -4.382   1.792  0.00  0.00    -0.387 OA
ATOM     24  H   UNL     1       2.750  -4.049   2.149  0.00  0.00    +0.210 HD
ENDBRANCH  19  23
ENDBRANCH  18  19
ENDBRANCH  13  18
ENDBRANCH  12  13
ENDBRANCH   1  12
BRANCH  11  25
ATOM     25  C   UNL     1      -1.658  -0.091   5.968  0.00  0.00    +0.256 C 
BRANCH  25  26
ATOM     26  O   UNL     1      -0.687  -0.310   6.993  0.00  0.00    -0.490 OA
BRANCH  26  27
ATOM     27  C   UNL     1      -0.338   0.762   7.752  0.00  0.00    +0.124 A 
ATOM     28  C   UNL     1      -0.923   1.998   7.518  0.00  0.00    +0.046 A 
ATOM     29  C   UNL     1      -0.568   3.089   8.289  0.00  0.00    +0.007 A 
ATOM     30  C   UNL     1       0.370   2.951   9.295  0.00  0.00    +0.046 A 
ATOM     31  C   UNL     1       0.957   1.716   9.533  0.00  0.00    +0.124 A 
ATOM     32  C   UNL     1       0.598   0.619   8.764  0.00  0.00    +0.091 A 
BRANCH  31  33
ATOM     33  O   UNL     1       1.879   1.581  10.522  0.00  0.00    -0.495 OA
ATOM     34  C   UNL     1       2.196   2.752  11.277  0.00  0.00    +0.277 C 
ENDBRANCH  31  33
ENDBRANCH  26  27
ENDBRANCH  25  26
ENDBRANCH  11  25
TORSDOF 12
