REMARK  Name = ZINC33047963
REMARK  11 active torsions:
REMARK  status: ('A' for Active; 'I' for Inactive)
REMARK    1  A    between atoms: C_1  and  O_2
REMARK    2  A    between atoms: O_2  and  C_3
REMARK    3  A    between atoms: C_5  and  O_32
REMARK    4  A    between atoms: C_6  and  O_30
REMARK    5  A    between atoms: C_10  and  C_13
REMARK    6  A    between atoms: N_15  and  C_16
REMARK    7  A    between atoms: C_16  and  C_17
REMARK    8  A    between atoms: C_17  and  N_18
REMARK    9  A    between atoms: C_22  and  C_25
REMARK   10  A    between atoms: O_30  and  C_31
REMARK   11  A    between atoms: O_32  and  C_33
REMARK                            x       y       z     vdW  Elec       q    Type
REMARK                         _______ _______ _______ _____ _____    ______ ____
ROOT
ATOM      1  C   UNL     1       1.147   1.655   0.000  0.00  0.00    +0.260 C 
ATOM      2  O   UNL     1       1.130   2.872   0.007  0.00  0.00    -0.269 OA
ATOM      3  N   UNL     1      -0.011   0.966   0.007  0.00  0.00    -0.309 N 
ATOM      4  H   UNL     1       0.004  -0.134   0.006  0.00  0.00    +0.149 HD
ENDROOT
BRANCH   1  12
ATOM      5  C   UNL     1       6.030   0.488  -0.052  0.00  0.00    +0.133 A 
ATOM      6  C   UNL     1       6.713  -0.710  -0.066  0.00  0.00    +0.095 A 
ATOM      7  C   UNL     1       6.018  -1.917  -0.066  0.00  0.00    +0.167 A 
ATOM      8  C   UNL     1       4.632  -1.932  -0.053  0.00  0.00    +0.186 A 
ATOM      9  C   UNL     1       3.924  -0.733  -0.040  0.00  0.00    +0.096 A 
ATOM     10  C   UNL     1       4.624   0.489  -0.039  0.00  0.00    +0.046 A 
ATOM     11  C   UNL     1       3.657   1.520  -0.024  0.00  0.00    +0.044 A 
ATOM     12  C   UNL     1       2.428   0.939  -0.016  0.00  0.00    +0.103 A 
ATOM     13  N   UNL     1       2.578  -0.437  -0.019  0.00  0.00    -0.348 N 
ATOM     14  H   UNL     1       1.836  -1.249  -0.009  0.00  0.00    +0.166 HD
BRANCH   5  16
ATOM     15  C   UNL     1       8.140   1.583  -0.065  0.00  0.00    +0.277 C 
ATOM     16  O   UNL     1       6.713   1.662  -0.052  0.00  0.00    -0.494 OA
ENDBRANCH   5  16
BRANCH   8  17
ATOM     17  O   UNL     1       3.964  -3.119  -0.053  0.00  0.00    -0.490 OA
ATOM     18  C   UNL     1       3.634  -3.677  -1.327  0.00  0.00    +0.277 C 
ENDBRANCH   8  17
BRANCH   7  19
ATOM     19  O   UNL     1       6.705  -3.090  -0.079  0.00  0.00    -0.491 OA
ATOM     20  C   UNL     1       8.132  -3.006  -0.092  0.00  0.00    +0.277 C 
ENDBRANCH   7  19
ENDBRANCH   1  12
BRANCH   3  21
ATOM     21  C   UNL     1      -1.290   1.681   0.017  0.00  0.00    +0.123 C 
BRANCH  21  22
ATOM     22  C   UNL     1      -2.439   0.671   0.017  0.00  0.00    +0.121 C 
BRANCH  22  23
ATOM     23  N   UNL     1      -3.717   1.386   0.027  0.00  0.00    -0.326 N 
ATOM     24  C   UNL     1      -4.912   0.675   0.029  0.00  0.00    +0.137 A 
ATOM     25  C   UNL     1      -6.124   1.360   0.044  0.00  0.00    +0.081 A 
ATOM     26  C   UNL     1      -7.305   0.639   0.040  0.00  0.00    +0.037 A 
ATOM     27  C   UNL     1      -7.234  -0.748   0.032  0.00  0.00    +0.074 A 
ATOM     28  C   UNL     1      -5.998  -1.362   0.023  0.00  0.00    +0.125 A 
ATOM     29  N   UNL     1      -4.888  -0.649   0.022  0.00  0.00    -0.238 NA
ATOM     30 CL   UNL     1      -6.153   3.096   0.061  0.00  0.00    -0.080 Cl
ATOM     31  H   UNL     1      -3.732   2.486   0.033  0.00  0.00    +0.148 HD
BRANCH  27  32
ATOM     32  C   UNL     1      -8.495  -1.574   0.033  0.00  0.00    +0.419 C 
ATOM     33  F   UNL     1      -8.161  -2.933   0.024  0.00  0.00    -0.166 F 
ATOM     34  F   UNL     1      -9.241  -1.285   1.181  0.00  0.00    -0.166 F 
ATOM     35  F   UNL     1      -9.251  -1.272  -1.104  0.00  0.00    -0.166 F 
ENDBRANCH  27  32
ENDBRANCH  22  23
ENDBRANCH  21  22
ENDBRANCH   3  21
TORSDOF 8
