REMARK  Name = ZINC15230099
REMARK  16 active torsions:
REMARK  status: ('A' for Active; 'I' for Inactive)
REMARK    1  A    between atoms: C_1  and  C_2
REMARK    2  A    between atoms: C_4  and  C_34
REMARK    3  A    between atoms: C_5  and  C_9
REMARK    4  A    between atoms: C_6  and  C_8
REMARK    5  A    between atoms: C_9  and  C_33
REMARK    6  A    between atoms: C_11  and  C_13
REMARK    7  A    between atoms: C_13  and  C_24
REMARK    8  A    between atoms: N_14  and  O_15
REMARK    9  A    between atoms: O_15  and  C_16
REMARK   10  A    between atoms: C_16  and  C_17
REMARK   11  A    between atoms: C_17  and  C_19
REMARK   12  A    between atoms: C_17  and  O_23
REMARK   13  A    between atoms: C_19  and  N_71
REMARK   14  A    between atoms: C_20  and  C_21
REMARK   15  A    between atoms: C_20  and  C_22
REMARK   16  A    between atoms: C_20  and  N_71
REMARK                            x       y       z     vdW  Elec       q    Type
REMARK                         _______ _______ _______ _____ _____    ______ ____
ROOT
ATOM      1  C   UNL     1       5.176  -2.526   1.095  0.00  0.00    +0.125 C 
ATOM      2  N   UNL     1       5.091  -2.928  -0.135  0.00  0.00    -0.086 NA
ENDROOT
BRANCH   1   3
ATOM      3  C   UNL     1       5.460  -3.490   2.165  0.00  0.00    +0.154 A 
ATOM      4  C   UNL     1       5.652  -4.823   1.985  0.00  0.00    +0.059 A 
ATOM      5  C   UNL     1       5.903  -5.379   3.315  0.00  0.00    +0.021 A 
ATOM      6  C   UNL     1       6.168  -6.662   3.800  0.00  0.00    +0.011 A 
ATOM      7  C   UNL     1       6.361  -6.853   5.139  0.00  0.00    +0.001 A 
ATOM      8  C   UNL     1       6.295  -5.782   6.019  0.00  0.00    +0.004 A 
ATOM      9  C   UNL     1       6.035  -4.508   5.560  0.00  0.00    +0.047 A 
ATOM     10  C   UNL     1       5.836  -4.290   4.202  0.00  0.00    +0.136 A 
ATOM     11  O   UNL     1       5.576  -3.186   3.473  0.00  0.00    -0.453 OA
ENDBRANCH   1   3
BRANCH   1  14
ATOM     12  C   UNL     1       6.888  -0.177   1.180  0.00  0.00    -0.005 C 
ATOM     13  C   UNL     1       5.578  -0.114   0.377  0.00  0.00    +0.021 C 
ATOM     14  C   UNL     1       4.982  -1.069   1.426  0.00  0.00    +0.046 C 
ATOM     15  C   UNL     1       6.027  -0.516   2.409  0.00  0.00    +0.021 C 
ATOM     16  C   UNL     1       7.818  -1.314   0.751  0.00  0.00    +0.016 C 
BRANCH  12  21
ATOM     17  C   UNL     1       9.598   4.910   1.587  0.00  0.00    +0.044 C 
ATOM     18  C   UNL     1       8.895   3.582   1.480  0.00  0.00    -0.050 A 
ATOM     19  C   UNL     1       8.376   3.170   0.267  0.00  0.00    +0.007 A 
ATOM     20  C   UNL     1       7.726   1.954   0.170  0.00  0.00    -0.046 A 
ATOM     21  C   UNL     1       7.596   1.149   1.286  0.00  0.00    -0.036 A 
ATOM     22  C   UNL     1       8.115   1.560   2.499  0.00  0.00    -0.046 A 
ATOM     23  C   UNL     1       8.765   2.776   2.596  0.00  0.00    +0.007 A 
ATOM     24  C   UNL     1       7.974   0.683   3.716  0.00  0.00    +0.044 C 
ATOM     25  C   UNL     1       7.160   1.505  -1.153  0.00  0.00    +0.044 C 
ENDBRANCH  12  21
ENDBRANCH   1  14
BRANCH   2  26
ATOM     26  O   UNL     1       4.642  -2.039  -1.142  0.00  0.00    -0.391 OA
BRANCH  26  27
ATOM     27  C   UNL     1       4.490  -2.645  -2.427  0.00  0.00    +0.292 C 
BRANCH  27  28
ATOM     28  C   UNL     1       4.124  -1.573  -3.456  0.00  0.00    +0.138 C 
BRANCH  28  29
ATOM     29  O   UNL     1       2.832  -1.043  -3.152  0.00  0.00    -0.390 OA
ATOM     30  H   UNL     1       2.124  -1.701  -3.162  0.00  0.00    +0.210 HD
ENDBRANCH  28  29
BRANCH  28  31
ATOM     31  C   UNL     1       4.105  -2.194  -4.854  0.00  0.00    -0.047 C 
BRANCH  31  32
ATOM     32  N   UNL     1       3.870  -1.133  -5.851  0.00  0.00    +0.382 N 
ATOM     33  H   UNL     1       4.623  -0.438  -5.789  0.00  0.00    -0.085 HD
ATOM     34  H   UNL     1       2.969  -0.680  -5.658  0.00  0.00    -0.085 HD
BRANCH  32  35
ATOM     35  C   UNL     1       3.846  -1.704  -7.211  0.00  0.00    -0.078 C 
ATOM     36  C   UNL     1       2.441  -2.221  -7.523  0.00  0.00    -0.014 C 
ATOM     37  C   UNL     1       4.226  -0.617  -8.219  0.00  0.00    -0.014 C 
ENDBRANCH  32  35
ENDBRANCH  31  32
ENDBRANCH  28  31
ENDBRANCH  27  28
ENDBRANCH  26  27
ENDBRANCH   2  26
TORSDOF 10
