REMARK  Name = ZINC05578949
REMARK  6 active torsions:
REMARK  status: ('A' for Active; 'I' for Inactive)
REMARK    1  A    between atoms: C_1  and  C_2
REMARK    2  A    between atoms: C_6  and  C_11
REMARK    3  A    between atoms: C_7  and  N_8
REMARK    4  A    between atoms: N_13  and  N_14
REMARK    5  A    between atoms: C_15  and  C_17
REMARK    6  A    between atoms: C_17  and  C_18
REMARK                            x       y       z     vdW  Elec       q    Type
REMARK                         _______ _______ _______ _____ _____    ______ ____
ROOT
ATOM      1  N   UNL     1      -6.329   1.169   1.513  0.00  0.00    -0.234 N 
ATOM      2  C   UNL     1      -5.045   1.513   1.289  0.00  0.00    +0.230 C 
ATOM      3  O   UNL     1      -4.457   2.214   2.085  0.00  0.00    -0.274 OA
ATOM      4  H   UNL     1      -6.799   0.608   0.875  0.00  0.00    +0.173 HD
ENDROOT
BRANCH   1   7
ATOM      5  C   UNL     1      -8.268   1.276   2.889  0.00  0.00    +0.262 C 
ATOM      6  O   UNL     1      -8.857   0.574   2.091  0.00  0.00    -0.269 OA
ATOM      7  N   UNL     1      -6.984   1.621   2.665  0.00  0.00    -0.230 N 
ATOM      8  H   UNL     1      -6.515   2.181   3.302  0.00  0.00    +0.173 HD
BRANCH   5  14
ATOM      9  C   UNL     1     -12.365   1.465   5.732  0.00  0.00    +0.046 C 
ATOM     10  C   UNL     1     -10.930   1.847   5.477  0.00  0.00    -0.020 A 
ATOM     11  C   UNL     1     -10.257   2.647   6.383  0.00  0.00    +0.005 A 
ATOM     12  C   UNL     1      -8.939   3.002   6.157  0.00  0.00    +0.001 A 
ATOM     13  C   UNL     1      -8.287   2.560   5.024  0.00  0.00    +0.015 A 
ATOM     14  C   UNL     1      -8.960   1.753   4.105  0.00  0.00    +0.069 A 
ATOM     15  C   UNL     1     -10.291   1.403   4.337  0.00  0.00    +0.141 A 
BRANCH  15  16
ATOM     16  N   UNL     1     -11.015   0.553   3.365  0.00  0.00    +0.057 N 
ATOM     17  O   UNL     1     -10.996  -0.659   3.484  0.00  0.00    -0.126 OA
ATOM     18  O   UNL     1     -11.630   1.065   2.447  0.00  0.00    -0.126 OA
ENDBRANCH  15  16
ENDBRANCH   5  14
ENDBRANCH   1   7
BRANCH   2  19
ATOM     19  C   UNL     1      -4.340   1.027   0.049  0.00  0.00    +0.104 C 
BRANCH  19  20
ATOM     20  C   UNL     1      -2.904   1.556   0.038  0.00  0.00    -0.020 C 
ATOM     21  C   UNL     1      -2.188   1.063  -1.221  0.00  0.00    +0.011 C 
ATOM     22  C   UNL     1      -0.753   1.593  -1.232  0.00  0.00    -0.010 C 
ATOM     23  C   UNL     1      -0.013   1.086   0.008  0.00  0.00    +0.007 C 
ATOM     24  C   UNL     1      -0.729   1.579   1.267  0.00  0.00    -0.010 C 
ATOM     25  C   UNL     1      -2.164   1.050   1.278  0.00  0.00    +0.011 C 
ATOM     26  C   UNL     1      -0.750   3.109   1.275  0.00  0.00    +0.007 C 
ATOM     27  C   UNL     1      -1.490   3.616   0.036  0.00  0.00    -0.010 C 
ATOM     28  C   UNL     1      -0.773   3.123  -1.223  0.00  0.00    +0.007 C 
ATOM     29  C   UNL     1      -2.925   3.086   0.047  0.00  0.00    +0.011 C 
ENDBRANCH  19  20
ENDBRANCH   2  19
TORSDOF 5
