REMARK  Name = ZINC38904719
REMARK  7 active torsions:
REMARK  status: ('A' for Active; 'I' for Inactive)
REMARK    1  A    between atoms: C_1  and  C_2
REMARK    2  A    between atoms: C_2  and  C_36
REMARK    3  A    between atoms: C_4  and  N_13
REMARK    4  A    between atoms: C_14  and  C_16
REMARK    5  A    between atoms: N_21  and  C_23
REMARK    6  A    between atoms: C_23  and  C_24
REMARK    7  A    between atoms: C_26  and  C_29
REMARK                            x       y       z     vdW  Elec       q    Type
REMARK                         _______ _______ _______ _____ _____    ______ ____
ROOT
ATOM      1  C   UNL     1      -4.413  -4.400   0.051  0.00  0.00    +0.058 C 
ATOM      2  C   UNL     1      -5.504  -3.451  -0.452  0.00  0.00    +0.009 C 
ATOM      3  C   UNL     1      -6.875  -4.081  -0.191  0.00  0.00    -0.018 C 
ATOM      4  C   UNL     1      -6.939  -5.450  -0.872  0.00  0.00    -0.078 C 
ATOM      5  N   UNL     1      -5.888  -6.319  -0.329  0.00  0.00    +0.386 N 
ATOM      6  C   UNL     1      -4.567  -5.758  -0.637  0.00  0.00    -0.065 C 
ATOM      7  H   UNL     1      -5.996  -6.392   0.672  0.00  0.00    -0.081 HD
ENDROOT
BRANCH   1   9
ATOM      8  N   UNL     1      -2.699  -2.625   0.231  0.00  0.00    -0.308 N 
ATOM      9  C   UNL     1      -3.058  -3.824  -0.270  0.00  0.00    +0.215 C 
ATOM     10  O   UNL     1      -2.289  -4.440  -0.978  0.00  0.00    -0.276 OA
ATOM     11  H   UNL     1      -3.313  -2.133   0.797  0.00  0.00    +0.149 HD
BRANCH   8  15
ATOM     12  C   UNL     1      -0.019   1.526   0.010  0.00  0.00    +0.055 C 
ATOM     13  C   UNL     1       0.002  -0.004   0.002  0.00  0.00    +0.107 C 
ATOM     14  C   UNL     1      -1.435  -0.540   0.040  0.00  0.00    +0.074 C 
ATOM     15  C   UNL     1      -1.382  -2.065  -0.081  0.00  0.00    +0.110 C 
ATOM     16  C   UNL     1      -0.362  -2.616   0.883  0.00  0.00    +0.015 A 
ATOM     17  C   UNL     1      -0.413  -3.961   1.210  0.00  0.00    +0.009 A 
ATOM     18  C   UNL     1       0.507  -4.500   2.088  0.00  0.00    +0.001 A 
ATOM     19  C   UNL     1       1.486  -3.696   2.643  0.00  0.00    +0.004 A 
ATOM     20  C   UNL     1       1.540  -2.355   2.323  0.00  0.00    +0.046 A 
ATOM     21  C   UNL     1       0.613  -1.808   1.441  0.00  0.00    +0.126 A 
ATOM     22  O   UNL     1       0.692  -0.482   1.158  0.00  0.00    -0.486 OA
ATOM     23  C   UNL     1       0.706  -0.503  -1.262  0.00  0.00    +0.055 C 
ENDBRANCH   8  15
ENDBRANCH   1   9
BRANCH   5  24
ATOM     24  C   UNL     1      -6.002  -7.656  -0.928  0.00  0.00    +0.022 C 
BRANCH  24  25
ATOM     25  C   UNL     1      -7.302  -8.288  -0.503  0.00  0.00    +0.211 A 
ATOM     26  N   UNL     1      -8.437  -8.192  -1.134  0.00  0.00    -0.193 NA
ATOM     27  C   UNL     1      -9.389  -8.879  -0.477  0.00  0.00    +0.202 A 
ATOM     28  N   UNL     1      -8.854  -9.421   0.589  0.00  0.00    -0.056 NA
ATOM     29  O   UNL     1      -7.484  -9.047   0.585  0.00  0.00    -0.340 OA
BRANCH  27  30
ATOM     30  C   UNL     1     -10.809  -9.002  -0.891  0.00  0.00    +0.023 A 
ATOM     31  C   UNL     1     -11.255  -8.379  -2.055  0.00  0.00    +0.012 A 
ATOM     32  C   UNL     1     -12.576  -8.496  -2.435  0.00  0.00    +0.002 A 
ATOM     33  C   UNL     1     -13.459  -9.231  -1.663  0.00  0.00    +0.015 A 
ATOM     34  C   UNL     1     -13.022  -9.851  -0.506  0.00  0.00    +0.019 A 
ATOM     35  C   UNL     1     -11.700  -9.745  -0.120  0.00  0.00    +0.027 A 
ATOM     36 BR   UNL     1     -14.235 -10.853   0.543  0.00  0.00    -0.050 Br
ENDBRANCH  27  30
ENDBRANCH  24  25
ENDBRANCH   5  24
TORSDOF 5
