REMARK  Name = ZINC60330943
REMARK  15 active torsions:
REMARK  status: ('A' for Active; 'I' for Inactive)
REMARK    1  A    between atoms: C_1  and  C_2
REMARK    2  A    between atoms: C_6  and  C_32
REMARK    3  A    between atoms: C_7  and  N_8
REMARK    4  A    between atoms: C_9  and  C_20
REMARK    5  A    between atoms: C_12  and  S_13
REMARK    6  A    between atoms: S_13  and  C_14
REMARK    7  A    between atoms: C_14  and  C_15
REMARK    8  A    between atoms: C_15  and  C_16
REMARK    9  A    between atoms: C_16  and  C_17
REMARK   10  A    between atoms: C_17  and  C_18
REMARK   11  A    between atoms: C_18  and  O_19
REMARK   12  A    between atoms: C_24  and  S_26
REMARK   13  A    between atoms: S_26  and  N_29
REMARK   14  A    between atoms: N_29  and  C_30
REMARK   15  A    between atoms: N_29  and  C_31
REMARK                            x       y       z     vdW  Elec       q    Type
REMARK                         _______ _______ _______ _____ _____    ______ ____
ROOT
ATOM      1  N   UNL     1       0.026  -0.013   2.419  0.00  0.00    -0.270 N 
ATOM      2  C   UNL     1       1.124   0.418   3.130  0.00  0.00    +0.169 A 
ATOM      3  N   UNL     1       0.674   1.018   4.207  0.00  0.00    -0.128 NA
ATOM      4  N   UNL     1      -0.610   0.994   4.220  0.00  0.00    -0.122 NA
ATOM      5  C   UNL     1      -1.062   0.381   3.149  0.00  0.00    +0.196 A 
ENDROOT
BRANCH   1  12
ATOM      6  C   UNL     1      -0.018   1.503   0.010  0.00  0.00    +0.046 C 
ATOM      7  C   UNL     1       0.002  -0.004   0.002  0.00  0.00    -0.026 A 
ATOM      8  C   UNL     1       0.006  -0.689  -1.198  0.00  0.00    +0.005 A 
ATOM      9  C   UNL     1       0.024  -2.071  -1.206  0.00  0.00    +0.001 A 
ATOM     10  C   UNL     1       0.039  -2.773  -0.014  0.00  0.00    +0.005 A 
ATOM     11  C   UNL     1       0.035  -2.094   1.188  0.00  0.00    -0.026 A 
ATOM     12  C   UNL     1       0.023  -0.705   1.200  0.00  0.00    +0.056 A 
ATOM     13  C   UNL     1       0.051  -2.859   2.487  0.00  0.00    +0.046 C 
ENDBRANCH   1  12
BRANCH   2  14
ATOM     14  C   UNL     1       2.542   0.237   2.752  0.00  0.00    +0.021 A 
ATOM     15  C   UNL     1       2.890  -0.675   1.754  0.00  0.00    +0.012 A 
ATOM     16  C   UNL     1       4.215  -0.838   1.406  0.00  0.00    +0.003 A 
ATOM     17  C   UNL     1       5.197  -0.101   2.043  0.00  0.00    +0.028 A 
ATOM     18  C   UNL     1       4.859   0.805   3.033  0.00  0.00    +0.106 A 
ATOM     19  C   UNL     1       3.537   0.982   3.387  0.00  0.00    +0.040 A 
BRANCH  18  20
ATOM     20  S   UNL     1       6.117   1.738   3.838  0.00  0.00    +0.060 S 
ATOM     21  O   UNL     1       5.594   2.118   5.104  0.00  0.00    -0.153 OA
ATOM     22  O   UNL     1       7.322   0.997   3.703  0.00  0.00    -0.153 OA
BRANCH  20  23
ATOM     23  N   UNL     1       6.321   3.135   2.972  0.00  0.00    -0.183 NA
ATOM     24  C   UNL     1       5.531   4.324   3.303  0.00  0.00    +0.131 C 
ATOM     25  C   UNL     1       7.292   3.182   1.876  0.00  0.00    +0.131 C 
ENDBRANCH  20  23
ENDBRANCH  18  20
ENDBRANCH   2  14
BRANCH   5  26
ATOM     26  S   UNL     1      -2.753   0.114   2.732  0.00  0.00    -0.086 S 
BRANCH  26  27
ATOM     27  C   UNL     1      -3.668   0.875   4.101  0.00  0.00    +0.077 C 
BRANCH  27  28
ATOM     28  C   UNL     1      -5.171   0.712   3.863  0.00  0.00    +0.011 C 
BRANCH  28  29
ATOM     29  C   UNL     1      -5.942   1.354   5.018  0.00  0.00    +0.003 C 
BRANCH  29  30
ATOM     30  C   UNL     1      -7.445   1.192   4.780  0.00  0.00    +0.028 C 
BRANCH  30  31
ATOM     31  C   UNL     1      -8.217   1.833   5.935  0.00  0.00    +0.156 C 
BRANCH  31  32
ATOM     32  O   UNL     1      -9.620   1.681   5.713  0.00  0.00    -0.395 OA
ATOM     33  H   UNL     1     -10.172   2.066   6.408  0.00  0.00    +0.209 HD
ENDBRANCH  31  32
ENDBRANCH  30  31
ENDBRANCH  29  30
ENDBRANCH  28  29
ENDBRANCH  27  28
ENDBRANCH  26  27
ENDBRANCH   5  26
TORSDOF 11
