REMARK  Name = ZINC20876542
REMARK  11 active torsions:
REMARK  status: ('A' for Active; 'I' for Inactive)
REMARK    1  A    between atoms: C_1  and  N_2
REMARK    2  A    between atoms: C_3  and  S_7
REMARK    3  A    between atoms: S_7  and  C_8
REMARK    4  A    between atoms: C_8  and  C_9
REMARK    5  A    between atoms: C_9  and  C_10
REMARK    6  A    between atoms: C_10  and  N_11
REMARK    7  A    between atoms: N_11  and  C_12
REMARK    8  A    between atoms: C_12  and  C_13
REMARK    9  A    between atoms: C_16  and  O_20
REMARK   10  A    between atoms: O_20  and  C_21
REMARK   11  A    between atoms: C_21  and  C_22
REMARK                            x       y       z     vdW  Elec       q    Type
REMARK                         _______ _______ _______ _____ _____    ______ ____
ROOT
ATOM      1  C   UNL     1      -5.310   4.331   1.939  0.00  0.00    -0.063 A 
ATOM      2  C   UNL     1      -4.855   4.081   0.657  0.00  0.00    +0.005 A 
ATOM      3  C   UNL     1      -3.660   3.414   0.464  0.00  0.00    +0.047 A 
ATOM      4  C   UNL     1      -2.917   2.995   1.558  0.00  0.00    +0.135 A 
ATOM      5  C   UNL     1      -3.378   3.243   2.843  0.00  0.00    +0.060 A 
ATOM      6  C   UNL     1      -4.571   3.915   3.030  0.00  0.00    +0.020 A 
ATOM      7 BR   UNL     1      -2.371   2.667   4.337  0.00  0.00    -0.047 Br
ENDROOT
BRANCH   1   8
ATOM      8  C   UNL     1      -6.614   5.058   2.146  0.00  0.00    -0.047 C 
BRANCH   8   9
ATOM      9  N   UNL     1      -7.712   4.085   2.209  0.00  0.00    +0.382 N 
ATOM     10  H   UNL     1      -7.525   3.395   3.045  0.00  0.00    -0.085 HD
ATOM     11  H   UNL     1      -7.737   3.519   1.265  0.00  0.00    -0.085 HD
BRANCH   9  12
ATOM     12  C   UNL     1      -9.002   4.759   2.410  0.00  0.00    -0.081 C 
BRANCH  12  13
ATOM     13  C   UNL     1     -10.119   3.716   2.471  0.00  0.00    -0.008 C 
BRANCH  13  14
ATOM     14  C   UNL     1     -11.462   4.418   2.680  0.00  0.00    +0.075 C 
BRANCH  14  15
ATOM     15  S   UNL     1     -12.784   3.183   2.752  0.00  0.00    -0.085 S 
BRANCH  15  18
ATOM     16  C   UNL     1     -15.993   2.484   3.074  0.00  0.00    +0.177 C 
ATOM     17  N   UNL     1     -15.466   3.851   3.114  0.00  0.00    -0.223 N 
ATOM     18  C   UNL     1     -14.175   4.238   2.992  0.00  0.00    +0.209 A 
ATOM     19  N   UNL     1     -14.155   5.550   3.082  0.00  0.00    -0.102 NA
ATOM     20  N   UNL     1     -15.342   6.008   3.256  0.00  0.00    -0.022 NA
ATOM     21  N   UNL     1     -16.194   5.041   3.290  0.00  0.00    -0.043 NA
ENDBRANCH  15  18
ENDBRANCH  14  15
ENDBRANCH  13  14
ENDBRANCH  12  13
ENDBRANCH   9  12
ENDBRANCH   8   9
ENDBRANCH   1   8
BRANCH   4  22
ATOM     22  O   UNL     1      -1.741   2.339   1.370  0.00  0.00    -0.486 OA
BRANCH  22  23
ATOM     23  C   UNL     1      -1.332   2.114   0.020  0.00  0.00    +0.264 C 
BRANCH  23  24
ATOM     24  C   UNL     1      -0.017   1.378   0.010  0.00  0.00    -0.010 A 
ATOM     25  C   UNL     1       1.171   2.086   0.002  0.00  0.00    +0.008 A 
ATOM     26  C   UNL     1       2.377   1.412  -0.013  0.00  0.00    +0.020 A 
ATOM     27  C   UNL     1       2.397   0.029  -0.021  0.00  0.00    +0.041 A 
ATOM     28  C   UNL     1       1.208  -0.679  -0.013  0.00  0.00    +0.020 A 
ATOM     29  C   UNL     1       0.002  -0.004   0.002  0.00  0.00    +0.008 A 
ATOM     30 CL   UNL     1       3.912  -0.818  -0.039  0.00  0.00    -0.084 Cl
ENDBRANCH  23  24
ENDBRANCH  22  23
ENDBRANCH   4  22
TORSDOF 10
