REMARK  Name = ZINC40659990
REMARK  5 active torsions:
REMARK  status: ('A' for Active; 'I' for Inactive)
REMARK    1  A    between atoms: C_1  and  C_2
REMARK    2  A    between atoms: C_11  and  N_12
REMARK    3  A    between atoms: C_14  and  N_31
REMARK    4  A    between atoms: C_15  and  O_19
REMARK    5  A    between atoms: O_19  and  C_20
REMARK                            x       y       z     vdW  Elec       q    Type
REMARK                         _______ _______ _______ _____ _____    ______ ____
ROOT
ATOM      1  N   UNL     1       0.068  -4.885  -1.143  0.00  0.00    -0.297 N 
ATOM      2  C   UNL     1       0.193  -6.266  -1.087  0.00  0.00    +0.160 A 
ATOM      3  C   UNL     1       0.307  -7.012  -2.257  0.00  0.00    +0.227 A 
ATOM      4  C   UNL     1       0.430  -8.392  -2.148  0.00  0.00    +0.256 A 
ATOM      5  N   UNL     1       0.435  -8.947  -0.939  0.00  0.00    -0.199 NA
ATOM      6  C   UNL     1       0.326  -8.207   0.146  0.00  0.00    +0.227 A 
ATOM      7  N   UNL     1       0.212  -6.896   0.085  0.00  0.00    -0.218 NA
ATOM      8  H   UNL     1      -0.028  -4.441  -1.999  0.00  0.00    +0.154 HD
ENDROOT
BRANCH   1  19
ATOM      9  C   UNL     1      -2.356   0.939   0.389  0.00  0.00    +0.063 C 
ATOM     10  C   UNL     1      -1.710  -0.418   0.280  0.00  0.00    +0.013 A 
ATOM     11  C   UNL     1      -1.767  -1.101  -0.932  0.00  0.00    +0.021 A 
ATOM     12  C   UNL     1      -1.186  -2.333  -1.048  0.00  0.00    +0.013 A 
ATOM     13  C   UNL     1      -0.542  -2.872   0.078  0.00  0.00    +0.020 A 
ATOM     14  C   UNL     1      -0.520  -2.125   1.282  0.00  0.00    +0.048 A 
ATOM     15  N   UNL     1      -1.104  -0.922   1.328  0.00  0.00    -0.358 N 
ATOM     16  C   UNL     1       0.123  -2.661   2.410  0.00  0.00    +0.026 A 
ATOM     17  C   UNL     1       0.716  -3.885   2.340  0.00  0.00    +0.004 A 
ATOM     18  C   UNL     1       0.701  -4.626   1.164  0.00  0.00    +0.024 A 
ATOM     19  C   UNL     1       0.080  -4.137   0.033  0.00  0.00    +0.042 A 
ATOM     20  H   UNL     1      -1.082  -0.415   2.154  0.00  0.00    +0.166 HD
ENDBRANCH   1  19
BRANCH   3  21
ATOM     21  N   UNL     1       0.296  -6.354  -3.583  0.00  0.00    +0.065 N 
ATOM     22  O   UNL     1       1.333  -5.988  -4.085  0.00  0.00    -0.126 OA
ATOM     23  O   UNL     1      -0.750  -6.181  -4.163  0.00  0.00    -0.126 OA
ENDBRANCH   3  21
BRANCH   4  24
ATOM     24  O   UNL     1       0.543  -9.162  -3.258  0.00  0.00    -0.434 OA
BRANCH  24  25
ATOM     25  C   UNL     1       0.556 -10.511  -3.100  0.00  0.00    +0.156 A 
ATOM     26  C   UNL     1       1.748 -11.199  -3.119  0.00  0.00    +0.049 A 
ATOM     27  C   UNL     1       1.777 -12.581  -2.958  0.00  0.00    +0.019 A 
ATOM     28  C   UNL     1       0.627 -13.290  -2.777  0.00  0.00    +0.027 A 
ATOM     29  C   UNL     1      -0.609 -12.622  -2.752  0.00  0.00    +0.018 A 
ATOM     30  C   UNL     1      -0.651 -11.215  -2.909  0.00  0.00    +0.114 A 
ATOM     31  N   UNL     1      -1.824 -10.577  -2.881  0.00  0.00    -0.251 NA
ATOM     32  C   UNL     1      -2.949 -11.226  -2.704  0.00  0.00    +0.111 A 
ATOM     33  C   UNL     1      -2.979 -12.608  -2.537  0.00  0.00    +0.020 A 
ATOM     34  C   UNL     1      -1.816 -13.324  -2.568  0.00  0.00    +0.013 A 
ATOM     35 BR   UNL     1       0.694 -15.167  -2.562  0.00  0.00    -0.050 Br
ENDBRANCH  24  25
ENDBRANCH   4  24
TORSDOF 4
