REMARK  Name = ZINC64890155
REMARK  6 active torsions:
REMARK  status: ('A' for Active; 'I' for Inactive)
REMARK    1  A    between atoms: C_1  and  C_2
REMARK    2  A    between atoms: C_2  and  C_3
REMARK    3  A    between atoms: C_10  and  S_15
REMARK    4  A    between atoms: S_15  and  N_18
REMARK    5  A    between atoms: C_24  and  C_26
REMARK    6  A    between atoms: C_31  and  C_32
REMARK                            x       y       z     vdW  Elec       q    Type
REMARK                         _______ _______ _______ _____ _____    ______ ____
ROOT
ATOM      1  S   UNL     1       5.556  -3.059  -2.471  0.00  0.00    +0.061 S 
ATOM      2  O   UNL     1       6.803  -2.377  -2.472  0.00  0.00    -0.153 OA
ATOM      3  O   UNL     1       5.437  -4.427  -2.106  0.00  0.00    -0.153 OA
ENDROOT
BRANCH   1  10
ATOM      4  C   UNL     1       0.646  -0.442   1.206  0.00  0.00    +0.259 C 
ATOM      5  C   UNL     1       0.552  -1.946   1.273  0.00  0.00    +0.258 C 
ATOM      6  O   UNL     1      -0.349  -2.472   1.891  0.00  0.00    -0.271 OA
ATOM      7  N   UNL     1       1.474  -2.703   0.641  0.00  0.00    -0.279 N 
ATOM      8  C   UNL     1       2.575  -2.079   0.041  0.00  0.00    +0.078 A 
ATOM      9  C   UNL     1       3.414  -2.790  -0.803  0.00  0.00    +0.055 A 
ATOM     10  C   UNL     1       4.489  -2.156  -1.399  0.00  0.00    +0.107 A 
ATOM     11  C   UNL     1       4.729  -0.817  -1.155  0.00  0.00    +0.032 A 
ATOM     12  C   UNL     1       3.899  -0.103  -0.310  0.00  0.00    +0.049 A 
ATOM     13  C   UNL     1       2.824  -0.732   0.294  0.00  0.00    +0.143 A 
ATOM     14  O   UNL     1       2.019  -0.049   1.151  0.00  0.00    -0.478 OA
ATOM     15  H   UNL     1       1.375  -3.667   0.605  0.00  0.00    +0.155 HD
BRANCH   4  17
ATOM     16  C   UNL     1      -0.091   1.589  -0.048  0.00  0.00    +0.008 C 
ATOM     17  C   UNL     1      -0.077   0.059  -0.045  0.00  0.00    +0.051 C 
ENDBRANCH   4  17
ENDBRANCH   1  10
BRANCH   1  18
ATOM     18  N   UNL     1       4.941  -2.923  -4.003  0.00  0.00    -0.174 NA
ATOM     19  C   UNL     1       3.965  -3.899  -4.507  0.00  0.00    +0.128 C 
ATOM     20  C   UNL     1       2.716  -3.144  -4.979  0.00  0.00    +0.125 C 
ATOM     21  N   UNL     1       3.137  -2.045  -5.858  0.00  0.00    -0.295 N 
ATOM     22  C   UNL     1       4.113  -1.068  -5.355  0.00  0.00    +0.125 C 
ATOM     23  C   UNL     1       5.358  -1.820  -4.881  0.00  0.00    +0.128 C 
ATOM     24  C   UNL     1       2.636  -1.933  -7.105  0.00  0.00    +0.247 C 
ATOM     25  O   UNL     1       1.910  -2.802  -7.548  0.00  0.00    -0.270 OA
BRANCH  24  26
ATOM     26  C   UNL     1       2.970  -0.755  -7.933  0.00  0.00    +0.040 A 
ATOM     27  C   UNL     1       2.742   0.532  -7.445  0.00  0.00    +0.013 A 
ATOM     28  C   UNL     1       3.056   1.627  -8.223  0.00  0.00    +0.001 A 
ATOM     29  C   UNL     1       3.596   1.452  -9.485  0.00  0.00    +0.000 A 
ATOM     30  C   UNL     1       3.824   0.178  -9.975  0.00  0.00    +0.004 A 
ATOM     31  C   UNL     1       3.520  -0.925  -9.204  0.00  0.00    -0.038 A 
ATOM     32  C   UNL     1       3.775  -2.312  -9.737  0.00  0.00    +0.044 C 
ENDBRANCH  24  26
ENDBRANCH   1  18
TORSDOF 4
