REMARK  Name = ZINC54644422
REMARK  11 active torsions:
REMARK  status: ('A' for Active; 'I' for Inactive)
REMARK    1  A    between atoms: C_1  and  C_2
REMARK    2  A    between atoms: C_3  and  C_31
REMARK    3  A    between atoms: C_4  and  C_21
REMARK    4  A    between atoms: C_9  and  S_11
REMARK    5  A    between atoms: S_11  and  C_12
REMARK    6  A    between atoms: C_12  and  C_13
REMARK    7  A    between atoms: C_25  and  O_27
REMARK    8  A    between atoms: O_27  and  C_28
REMARK    9  A    between atoms: C_28  and  C_29
REMARK   10  A    between atoms: C_28  and  C_30
REMARK   11  A    between atoms: C_31  and  C_33
REMARK                            x       y       z     vdW  Elec       q    Type
REMARK                         _______ _______ _______ _____ _____    ______ ____
ROOT
ATOM      1  C   UNL     1       0.804   0.867  -0.137  0.00  0.00    +0.061 C 
ATOM      2  C   UNL     1       0.576  -0.621  -0.058  0.00  0.00    +0.016 C 
ATOM      3  C   UNL     1      -0.688  -1.087  -0.071  0.00  0.00    +0.040 C 
ATOM      4  C   UNL     1      -1.021  -2.554  -0.009  0.00  0.00    +0.176 C 
ATOM      5  N   UNL     1       0.175  -3.309   0.355  0.00  0.00    -0.220 N 
ATOM      6  C   UNL     1       1.424  -2.780   0.360  0.00  0.00    +0.219 A 
ATOM      7  N   UNL     1       2.259  -3.715   0.723  0.00  0.00    -0.187 NA
ATOM      8  C   UNL     1       1.586  -4.850   0.961  0.00  0.00    +0.211 A 
ATOM      9  N   UNL     1       0.304  -4.640   0.748  0.00  0.00    -0.141 NA
ATOM     10  N   UNL     1       1.659  -1.454   0.020  0.00  0.00    -0.287 N 
ATOM     11  H   UNL     1       2.557  -1.129  -0.154  0.00  0.00    +0.155 HD
ENDROOT
BRANCH   4  12
ATOM     12  C   UNL     1      -1.515  -3.015  -1.356  0.00  0.00    -0.015 A 
ATOM     13  C   UNL     1      -0.697  -2.909  -2.466  0.00  0.00    +0.006 A 
ATOM     14  C   UNL     1      -1.147  -3.331  -3.703  0.00  0.00    +0.004 A 
ATOM     15  C   UNL     1      -2.417  -3.858  -3.834  0.00  0.00    +0.045 A 
ATOM     16  C   UNL     1      -3.240  -3.966  -2.722  0.00  0.00    +0.121 A 
ATOM     17  C   UNL     1      -2.784  -3.547  -1.481  0.00  0.00    +0.051 A 
BRANCH  16  18
ATOM     18  O   UNL     1      -4.490  -4.484  -2.849  0.00  0.00    -0.489 OA
BRANCH  18  19
ATOM     19  C   UNL     1      -4.935  -4.790  -4.172  0.00  0.00    +0.167 C 
ATOM     20  C   UNL     1      -4.443  -6.184  -4.567  0.00  0.00    +0.051 C 
ATOM     21  C   UNL     1      -6.464  -4.758  -4.216  0.00  0.00    +0.051 C 
ENDBRANCH  18  19
ENDBRANCH  16  18
ENDBRANCH   4  12
BRANCH   3  22
ATOM     22  C   UNL     1      -1.742  -0.165  -0.146  0.00  0.00    +0.160 C 
ATOM     23  O   UNL     1      -1.504   1.026  -0.197  0.00  0.00    -0.293 OA
ATOM     24  C   UNL     1      -3.169  -0.650  -0.163  0.00  0.00    +0.091 C 
ENDBRANCH   3  22
BRANCH   8  25
ATOM     25  S   UNL     1       2.301  -6.375   1.476  0.00  0.00    -0.080 S 
BRANCH  25  26
ATOM     26  C   UNL     1       4.075  -6.013   1.588  0.00  0.00    +0.115 C 
BRANCH  26  27
ATOM     27  C   UNL     1       4.814  -7.251   2.025  0.00  0.00    -0.002 A 
ATOM     28  C   UNL     1       5.011  -7.500   3.370  0.00  0.00    +0.007 A 
ATOM     29  C   UNL     1       5.689  -8.636   3.771  0.00  0.00    +0.000 A 
ATOM     30  C   UNL     1       6.171  -9.524   2.828  0.00  0.00    +0.003 A 
ATOM     31  C   UNL     1       5.976  -9.277   1.482  0.00  0.00    +0.038 A 
ATOM     32  C   UNL     1       5.292  -8.142   1.079  0.00  0.00    +0.127 A 
ATOM     33  F   UNL     1       5.096  -7.902  -0.236  0.00  0.00    -0.205 F 
ENDBRANCH  26  27
ENDBRANCH  25  26
ENDBRANCH   8  25
TORSDOF 7
