REMARK  Name = ZINC09046541
REMARK  9 active torsions:
REMARK  status: ('A' for Active; 'I' for Inactive)
REMARK    1  A    between atoms: C_1  and  C_2
REMARK    2  A    between atoms: C_13  and  O_15
REMARK    3  A    between atoms: N_21  and  O_22
REMARK    4  A    between atoms: O_22  and  C_23
REMARK    5  A    between atoms: C_23  and  C_24
REMARK    6  A    between atoms: N_26  and  CA_27
REMARK    7  A    between atoms: CA_27  and  C_29
REMARK    8  A    between atoms: CA_27  and  C_35
REMARK    9  A    between atoms: C_39  and  C_40
REMARK                            x       y       z     vdW  Elec       q    Type
REMARK                         _______ _______ _______ _____ _____    ______ ____
ROOT
ATOM      1  C   UNL     1       2.272   3.593   0.994  0.00  0.00    +0.014 C 
ATOM      2  C   UNL     1       1.195   3.089   0.007  0.00  0.00    -0.003 C 
ATOM      3  C   UNL     1      -0.129   3.606   0.515  0.00  0.00    +0.010 C 
ATOM      4  C   UNL     1      -1.232   3.610  -0.538  0.00  0.00    +0.005 C 
ATOM      5  C   UNL     1      -0.750   4.418  -1.746  0.00  0.00    +0.002 C 
ATOM      6  C   UNL     1       0.431   3.679  -2.369  0.00  0.00    -0.003 C 
ATOM      7  C   UNL     1       1.593   3.580  -1.385  0.00  0.00    +0.001 C 
ATOM      8  C   UNL     1       2.563   2.485  -1.903  0.00  0.00    +0.007 C 
ATOM      9  C   UNL     1       2.062   1.171  -1.270  0.00  0.00    +0.032 C 
ATOM     10  C   UNL     1       1.284   1.560  -0.002  0.00  0.00    +0.121 C 
ATOM     11  C   UNL     1       0.002   2.299  -2.855  0.00  0.00    +0.008 C 
ATOM     12  C   UNL     1      -1.068   2.438  -3.942  0.00  0.00    +0.031 C 
ATOM     13  C   UNL     1      -2.204   3.291  -3.413  0.00  0.00    -0.062 C 
ATOM     14  C   UNL     1      -3.441   2.837  -3.573  0.00  0.00    +0.026 C 
ATOM     15  C   UNL     1      -4.602   3.667  -3.214  0.00  0.00    +0.080 C 
ATOM     16  N   UNL     1      -5.799   3.169  -3.155  0.00  0.00    -0.089 NA
ATOM     17  C   UNL     1      -4.346   5.134  -2.941  0.00  0.00    +0.059 C 
ATOM     18  C   UNL     1      -3.086   5.244  -2.083  0.00  0.00    +0.017 C 
ATOM     19  C   UNL     1      -1.885   4.599  -2.755  0.00  0.00    -0.007 C 
ATOM     20  C   UNL     1      -1.404   5.569  -3.841  0.00  0.00    +0.016 C 
ENDROOT
BRANCH  10  21
ATOM     21  O   UNL     1      -0.011   0.963   0.007  0.00  0.00    -0.391 OA
ATOM     22  H   UNL     1       0.002  -0.004   0.002  0.00  0.00    +0.210 HD
ENDBRANCH  10  21
BRANCH  16  23
ATOM     23  O   UNL     1      -6.010   1.798  -3.439  0.00  0.00    -0.384 OA
BRANCH  23  24
ATOM     24  C   UNL     1      -7.375   1.386  -3.336  0.00  0.00    +0.358 C 
BRANCH  24  25
ATOM     25  C   UNL     1      -7.482  -0.082  -3.658  0.00  0.00    +0.254 C 
ATOM     26  O   UNL     1      -6.488  -0.714  -3.947  0.00  0.00    -0.272 OA
ATOM     27  N   UNL     1      -8.683  -0.693  -3.624  0.00  0.00    -0.296 N 
ATOM     28  H   UNL     1      -9.478  -0.188  -3.393  0.00  0.00    +0.150 HD
BRANCH  27  29
ATOM     29  CA  UNL     1      -8.788  -2.120  -3.937  0.00  0.00    +0.217 C 
BRANCH  29  30
ATOM     30  C   UNL     1     -10.012  -2.692  -3.269  0.00  0.00    -0.016 A 
ATOM     31  C   UNL     1     -11.184  -1.961  -3.230  0.00  0.00    +0.006 A 
ATOM     32  C   UNL     1     -12.308  -2.487  -2.622  0.00  0.00    +0.000 A 
ATOM     33  C   UNL     1     -12.256  -3.742  -2.043  0.00  0.00    +0.000 A 
ATOM     34  C   UNL     1     -11.083  -4.472  -2.078  0.00  0.00    +0.000 A 
ATOM     35  C   UNL     1      -9.960  -3.947  -2.691  0.00  0.00    +0.006 A 
ENDBRANCH  29  30
BRANCH  29  36
ATOM     36  C   UNL     1      -8.899  -2.301  -5.429  0.00  0.00    +0.380 C 
ATOM     37  O   UNL     1      -8.892  -1.336  -6.157  0.00  0.00    -0.244 OA
ATOM     38  OXT UNL     1      -9.007  -3.533  -5.950  0.00  0.00    -0.244 OA
ENDBRANCH  29  36
ENDBRANCH  27  29
ENDBRANCH  24  25
ENDBRANCH  23  24
ENDBRANCH  16  23
TORSDOF 7
