REMARK  Name = ZINC40716745
REMARK  7 active torsions:
REMARK  status: ('A' for Active; 'I' for Inactive)
REMARK    1  A    between atoms: C_1  and  C_2
REMARK    2  A    between atoms: N_6  and  C_8
REMARK    3  A    between atoms: C_8  and  C_9
REMARK    4  A    between atoms: C_9  and  C_10
REMARK    5  A    between atoms: C_10  and  C_11
REMARK    6  A    between atoms: N_13  and  C_14
REMARK    7  A    between atoms: C_15  and  N_22
REMARK                            x       y       z     vdW  Elec       q    Type
REMARK                         _______ _______ _______ _____ _____    ______ ____
ROOT
ATOM      1  C   UNL     1       4.361  -5.938   2.796  0.00  0.00    +0.217 C 
ATOM      2  O   UNL     1       3.592  -6.819   3.116  0.00  0.00    -0.275 OA
ATOM      3  N   UNL     1       5.443  -6.227   2.046  0.00  0.00    -0.283 N 
ATOM      4  H   UNL     1       6.019  -5.513   1.730  0.00  0.00    +0.155 HD
ENDROOT
BRANCH   3   5
ATOM      5  C   UNL     1       5.737  -7.560   1.724  0.00  0.00    +0.073 A 
ATOM      6  C   UNL     1       6.518  -8.331   2.585  0.00  0.00    +0.049 A 
ATOM      7  C   UNL     1       6.805  -9.649   2.261  0.00  0.00    +0.044 A 
ATOM      8  C   UNL     1       6.317 -10.195   1.087  0.00  0.00    +0.044 A 
ATOM      9  C   UNL     1       5.542  -9.431   0.234  0.00  0.00    +0.042 A 
ATOM     10  C   UNL     1       5.247  -8.117   0.552  0.00  0.00    +0.065 A 
ATOM     11 CL   UNL     1       4.268  -7.163  -0.519  0.00  0.00    -0.082 Cl
ATOM     12 CL   UNL     1       6.678 -11.845   0.685  0.00  0.00    -0.083 Cl
BRANCH   6  13
ATOM     13  N   UNL     1       7.011  -7.777   3.771  0.00  0.00    -0.356 N 
ATOM     14  H   UNL     1       6.810  -6.855   3.995  0.00  0.00    +0.142 HD
ATOM     15  H   UNL     1       7.554  -8.315   4.368  0.00  0.00    +0.142 HD
ENDBRANCH   6  13
ENDBRANCH   3   5
BRANCH   1  16
ATOM     16  C   UNL     1       4.108  -4.519   3.237  0.00  0.00    +0.094 C 
BRANCH  16  17
ATOM     17  C   UNL     1       2.825  -4.465   4.069  0.00  0.00    -0.009 C 
BRANCH  17  18
ATOM     18  C   UNL     1       2.567  -3.025   4.516  0.00  0.00    -0.078 C 
BRANCH  18  23
ATOM     19  C   UNL     1      -0.956  -0.142   6.060  0.00  0.00    +0.005 C 
ATOM     20  C   UNL     1      -0.414  -1.572   6.113  0.00  0.00    -0.032 C 
ATOM     21  C   UNL     1      -1.003  -2.423   4.964  0.00  0.00    -0.017 C 
ATOM     22  C   UNL     1       0.166  -3.295   4.470  0.00  0.00    -0.079 C 
ATOM     23  N   UNL     1       1.336  -2.973   5.315  0.00  0.00    +0.380 N 
ATOM     24  C   UNL     1       1.107  -1.593   5.819  0.00  0.00    -0.076 C 
ATOM     25  H   UNL     1       1.394  -3.618   6.089  0.00  0.00    -0.082 HD
ENDBRANCH  18  23
ENDBRANCH  17  18
ENDBRANCH  16  17
ENDBRANCH   1  16
TORSDOF 6
