REMARK  Name = ZINC49916670
REMARK  8 active torsions:
REMARK  status: ('A' for Active; 'I' for Inactive)
REMARK    1  A    between atoms: C_1  and  C_2
REMARK    2  A    between atoms: C_2  and  C_3
REMARK    3  A    between atoms: C_3  and  C_5
REMARK    4  A    between atoms: C_3  and  C_6
REMARK    5  A    between atoms: C_9  and  C_12
REMARK    6  A    between atoms: C_14  and  C_24
REMARK    7  A    between atoms: N_15  and  C_21
REMARK    8  A    between atoms: C_18  and  C_19
REMARK                            x       y       z     vdW  Elec       q    Type
REMARK                         _______ _______ _______ _____ _____    ______ ____
ROOT
ATOM      1  C   UNL     1       0.415  -6.253   1.459  0.00  0.00    +0.006 A 
ATOM      2  C   UNL     1      -0.835  -6.898   1.524  0.00  0.00    +0.031 A 
ATOM      3  C   UNL     1      -0.896  -8.249   1.570  0.00  0.00    +0.020 A 
ATOM      4  N   UNL     1       0.228  -9.009   1.556  0.00  0.00    -0.309 N 
ATOM      5  C   UNL     1       1.451  -8.449   1.495  0.00  0.00    +0.270 A 
ATOM      6  O   UNL     1       2.445  -9.154   1.483  0.00  0.00    -0.266 OA
ATOM      7  C   UNL     1       1.580  -7.038   1.439  0.00  0.00    +0.124 A 
ATOM      8  C   UNL     1      -2.242  -8.924   1.638  0.00  0.00    +0.063 C 
ENDROOT
BRANCH   1  12
ATOM      9  C   UNL     1       0.657  -2.014   1.311  0.00  0.00    -0.045 A 
ATOM     10  C   UNL     1       1.081  -2.766   0.230  0.00  0.00    +0.004 A 
ATOM     11  C   UNL     1       1.005  -4.143   0.272  0.00  0.00    +0.009 A 
ATOM     12  C   UNL     1       0.500  -4.777   1.408  0.00  0.00    -0.016 A 
ATOM     13  C   UNL     1       0.073  -4.012   2.495  0.00  0.00    +0.009 A 
ATOM     14  C   UNL     1       0.160  -2.636   2.442  0.00  0.00    +0.004 A 
BRANCH   9  15
ATOM     15  C   UNL     1       0.742  -0.510   1.258  0.00  0.00    +0.016 C 
ATOM     16  C   UNL     1       2.199  -0.089   1.054  0.00  0.00    +0.012 C 
BRANCH  15  18
ATOM     17  C   UNL     1      -0.120   1.538   0.116  0.00  0.00    +0.004 C 
ATOM     18  C   UNL     1      -0.106   0.008   0.095  0.00  0.00    +0.004 C 
ENDBRANCH  15  18
ENDBRANCH   9  15
ENDBRANCH   1  12
BRANCH   4  19
ATOM     19  C   UNL     1       0.109 -10.468   1.608  0.00  0.00    +0.091 C 
ATOM     20  C   UNL     1       1.015 -11.216   2.589  0.00  0.00    +0.027 C 
ATOM     21  C   UNL     1      -0.482 -11.083   2.878  0.00  0.00    +0.027 C 
ENDBRANCH   4  19
BRANCH   7  22
ATOM     22  C   UNL     1       2.872  -6.426   1.368  0.00  0.00    +0.105 C 
ATOM     23  N   UNL     1       3.897  -5.940   1.311  0.00  0.00    -0.191 NA
ENDBRANCH   7  22
TORSDOF 5
