REMARK  Name = ZINC04884131
REMARK  8 active torsions:
REMARK  status: ('A' for Active; 'I' for Inactive)
REMARK    1  A    between atoms: C_1  and  N_2
REMARK    2  A    between atoms: C_7  and  C_26
REMARK    3  A    between atoms: C_9  and  C_14
REMARK    4  A    between atoms: C_9  and  C_22
REMARK    5  A    between atoms: C_14  and  C_15
REMARK    6  A    between atoms: C_18  and  O_21
REMARK    7  A    between atoms: C_22  and  O_24
REMARK    8  A    between atoms: O_24  and  C_25
REMARK                            x       y       z     vdW  Elec       q    Type
REMARK                         _______ _______ _______ _____ _____    ______ ____
ROOT
ATOM      1  C   UNL     1       1.086  -2.685   4.083  0.00  0.00    +0.141 C 
ATOM      2  N   UNL     1       0.459  -2.124   2.884  0.00  0.00    -0.245 N 
ATOM      3  C   UNL     1       0.825  -0.931   2.325  0.00  0.00    +0.224 C 
ATOM      4  O   UNL     1       1.841  -0.306   2.540  0.00  0.00    -0.275 OA
ATOM      5  C   UNL     1      -0.284  -0.555   1.395  0.00  0.00    +0.077 C 
ATOM      6  C   UNL     1       0.002  -0.004   0.002  0.00  0.00    -0.027 C 
ATOM      7  C   UNL     1      -1.604  -1.807  -0.152  0.00  0.00    +0.048 C 
ATOM      8  C   UNL     1      -0.656  -2.022   0.950  0.00  0.00    +0.086 C 
ATOM      9  C   UNL     1      -0.561  -2.739   2.201  0.00  0.00    +0.225 C 
ATOM     10  O   UNL     1      -1.234  -3.679   2.567  0.00  0.00    -0.275 OA
ATOM     11  N   UNL     1      -1.126  -0.552  -0.805  0.00  0.00    +0.396 N 
ATOM     12  H   UNL     1      -0.803  -0.757  -1.758  0.00  0.00    -0.083 HD
ATOM     13  H   UNL     1      -1.890   0.133  -0.843  0.00  0.00    -0.083 HD
ENDROOT
BRANCH   6  14
ATOM     14  C   UNL     1      -0.018   1.503   0.010  0.00  0.00    -0.060 A 
ATOM     15  C   UNL     1      -1.225   2.177   0.020  0.00  0.00    +0.005 A 
ATOM     16  C   UNL     1      -1.245   3.559   0.033  0.00  0.00    +0.038 A 
ATOM     17  C   UNL     1      -0.056   4.268   0.025  0.00  0.00    +0.123 A 
ATOM     18  C   UNL     1       1.152   3.591   0.010  0.00  0.00    +0.038 A 
ATOM     19  C   UNL     1       1.170   2.210   0.003  0.00  0.00    +0.005 A 
ATOM     20  F   UNL     1      -0.074   5.619   0.032  0.00  0.00    -0.205 F 
ENDBRANCH   6  14
BRANCH   7  21
ATOM     21  C   UNL     1      -1.553  -2.960  -1.122  0.00  0.00    +0.297 C 
ATOM     22  O   UNL     1      -1.183  -4.048  -0.748  0.00  0.00    -0.252 OA
BRANCH  21  23
ATOM     23  O   UNL     1      -1.919  -2.778  -2.401  0.00  0.00    -0.469 OA
ATOM     24  C   UNL     1      -1.844  -3.933  -3.278  0.00  0.00    +0.280 C 
ENDBRANCH  21  23
ENDBRANCH   7  21
BRANCH   7  25
ATOM     25  C   UNL     1      -3.023  -1.631   0.391  0.00  0.00    +0.034 C 
BRANCH  25  26
ATOM     26  C   UNL     1      -3.977  -1.412  -0.756  0.00  0.00    -0.048 A 
ATOM     27  C   UNL     1      -4.241  -0.130  -1.199  0.00  0.00    +0.007 A 
ATOM     28  C   UNL     1      -5.110   0.073  -2.253  0.00  0.00    +0.045 A 
ATOM     29  C   UNL     1      -5.726  -1.011  -2.861  0.00  0.00    +0.117 A 
ATOM     30  C   UNL     1      -5.464  -2.297  -2.410  0.00  0.00    +0.045 A 
ATOM     31  C   UNL     1      -4.590  -2.495  -1.359  0.00  0.00    +0.007 A 
BRANCH  29  32
ATOM     32  O   UNL     1      -6.586  -0.814  -3.895  0.00  0.00    -0.507 OA
ATOM     33  H   UNL     1      -7.506  -0.695  -3.623  0.00  0.00    +0.292 HD
ENDBRANCH  29  32
ENDBRANCH  25  26
ENDBRANCH   7  25
TORSDOF 6
