REMARK  Name = ZINC63514083
REMARK  8 active torsions:
REMARK  status: ('A' for Active; 'I' for Inactive)
REMARK    1  A    between atoms: C_1  and  C_2
REMARK    2  A    between atoms: C_4  and  C_12
REMARK    3  A    between atoms: C_12  and  C_13
REMARK    4  A    between atoms: C_13  and  N_14
REMARK    5  A    between atoms: N_14  and  S_15
REMARK    6  A    between atoms: S_15  and  C_18
REMARK    7  A    between atoms: C_22  and  S_24
REMARK    8  A    between atoms: S_24  and  C_27
REMARK                            x       y       z     vdW  Elec       q    Type
REMARK                         _______ _______ _______ _____ _____    ______ ____
ROOT
ATOM      1  S   UNL     1       2.093  -1.034  -6.181  0.00  0.00    +0.058 S 
ATOM      2  O   UNL     1       1.440  -0.739  -7.409  0.00  0.00    -0.153 OA
ATOM      3  O   UNL     1       3.308  -0.407  -5.795  0.00  0.00    -0.153 OA
ENDROOT
BRANCH   1   4
ATOM      4  C   UNL     1       2.400  -2.769  -6.179  0.00  0.00    +0.107 A 
ATOM      5  C   UNL     1       3.414  -3.291  -5.398  0.00  0.00    +0.028 A 
ATOM      6  C   UNL     1       3.654  -4.652  -5.396  0.00  0.00    +0.004 A 
ATOM      7  C   UNL     1       2.880  -5.492  -6.175  0.00  0.00    +0.027 A 
ATOM      8  C   UNL     1       1.865  -4.970  -6.956  0.00  0.00    +0.095 A 
ATOM      9  C   UNL     1       1.622  -3.609  -6.954  0.00  0.00    +0.056 A 
BRANCH   8  10
ATOM     10  S   UNL     1       0.879  -6.040  -7.949  0.00  0.00    +0.025 S 
ATOM     11  O   UNL     1       0.351  -5.246  -9.002  0.00  0.00    -0.164 OA
ATOM     12  O   UNL     1       1.658  -7.204  -8.189  0.00  0.00    -0.164 OA
BRANCH  10  13
ATOM     13  C   UNL     1      -0.493  -6.547  -6.965  0.00  0.00    +0.094 A 
ATOM     14  C   UNL     1      -0.401  -7.684  -6.184  0.00  0.00    +0.029 A 
ATOM     15  C   UNL     1      -1.476  -8.082  -5.413  0.00  0.00    +0.022 A 
ATOM     16  C   UNL     1      -2.645  -7.342  -5.422  0.00  0.00    +0.041 A 
ATOM     17  C   UNL     1      -2.736  -6.204  -6.203  0.00  0.00    +0.022 A 
ATOM     18  C   UNL     1      -1.659  -5.804  -6.970  0.00  0.00    +0.029 A 
ATOM     19 CL   UNL     1      -3.996  -7.841  -4.453  0.00  0.00    -0.084 Cl
ENDBRANCH  10  13
ENDBRANCH   8  10
ENDBRANCH   1   4
BRANCH   1  20
ATOM     20  N   UNL     1       0.998  -0.729  -4.977  0.00  0.00    -0.190 NA
ATOM     21  H   UNL     1       0.115  -0.395  -5.198  0.00  0.00    +0.148 HD
BRANCH  20  22
ATOM     22  C   UNL     1       1.364  -0.963  -3.578  0.00  0.00    +0.110 C 
BRANCH  22  23
ATOM     23  C   UNL     1       0.353  -0.268  -2.664  0.00  0.00    +0.050 C 
BRANCH  23  26
ATOM     24  C   UNL     1      -0.019   1.526   0.010  0.00  0.00    +0.035 C 
ATOM     25  C   UNL     1       0.002  -0.004   0.002  0.00  0.00    +0.103 C 
ATOM     26  C   UNL     1       0.729  -0.509  -1.224  0.00  0.00    -0.037 C 
ATOM     27  C   UNL     1       1.785  -1.220  -0.768  0.00  0.00    -0.001 A 
ATOM     28  C   UNL     1       2.858  -1.954  -1.449  0.00  0.00    +0.010 A 
ATOM     29  C   UNL     1       3.797  -2.583  -0.705  0.00  0.00    +0.001 A 
ATOM     30  C   UNL     1       3.770  -2.551   0.696  0.00  0.00    +0.002 A 
ATOM     31  C   UNL     1       2.817  -1.897   1.393  0.00  0.00    +0.026 A 
ATOM     32  C   UNL     1       1.780  -1.201   0.712  0.00  0.00    +0.043 A 
ATOM     33  N   UNL     1       0.758  -0.506   1.155  0.00  0.00    -0.378 N 
ATOM     34  H   UNL     1       0.540  -0.349   2.087  0.00  0.00    +0.160 HD
ENDBRANCH  23  26
ENDBRANCH  22  23
ENDBRANCH  20  22
ENDBRANCH   1  20
TORSDOF 7
