REMARK  Name = ZINC39941960
REMARK  8 active torsions:
REMARK  status: ('A' for Active; 'I' for Inactive)
REMARK    1  A    between atoms: C_1  and  C_2
REMARK    2  A    between atoms: C_2  and  C_4
REMARK    3  A    between atoms: C_4  and  O_32
REMARK    4  A    between atoms: C_9  and  C_31
REMARK    5  A    between atoms: C_20  and  C_30
REMARK    6  A    between atoms: C_23  and  O_26
REMARK    7  A    between atoms: O_26  and  C_27
REMARK    8  A    between atoms: C_27  and  C_29
REMARK                            x       y       z     vdW  Elec       q    Type
REMARK                         _______ _______ _______ _____ _____    ______ ____
ROOT
ATOM      1  C   UNL     1      -1.312  -0.796  -0.031  0.00  0.00    +0.129 C 
ATOM      2  C   UNL     1      -1.798  -1.132  -1.464  0.00  0.00    +0.043 C 
ATOM      3  C   UNL     1      -2.054  -2.667  -1.490  0.00  0.00    +0.008 C 
ATOM      4  C   UNL     1      -2.231  -2.978   0.005  0.00  0.00    +0.002 C 
ATOM      5  C   UNL     1      -1.060  -2.176   0.615  0.00  0.00    +0.007 C 
ATOM      6  C   UNL     1      -1.126  -2.203   2.119  0.00  0.00    +0.010 C 
ATOM      7  C   UNL     1      -1.409  -3.617   2.649  0.00  0.00    +0.005 C 
ATOM      8  C   UNL     1      -1.280  -4.683   1.577  0.00  0.00    -0.001 C 
ATOM      9  C   UNL     1      -2.233  -4.418   0.413  0.00  0.00    -0.004 C 
ATOM     10  C   UNL     1      -1.914  -5.383  -0.726  0.00  0.00    +0.004 C 
ATOM     11  C   UNL     1      -2.119  -6.817  -0.221  0.00  0.00    +0.004 C 
ATOM     12  C   UNL     1      -2.566  -6.796   1.238  0.00  0.00    -0.001 C 
ATOM     13  C   UNL     1      -1.548  -6.090   2.127  0.00  0.00    -0.026 C 
ATOM     14  C   UNL     1      -2.090  -6.015   3.553  0.00  0.00    +0.011 C 
ATOM     15  C   UNL     1      -2.381  -7.418   4.085  0.00  0.00    +0.045 C 
ATOM     16  C   UNL     1      -3.364  -8.149   3.173  0.00  0.00    +0.177 C 
ATOM     17  C   UNL     1      -2.817  -8.216   1.746  0.00  0.00    +0.048 C 
ATOM     18  C   UNL     1      -0.217  -6.849   2.128  0.00  0.00    +0.012 C 
ATOM     19  C   UNL     1       0.309  -2.637   0.112  0.00  0.00    +0.015 C 
ENDROOT
BRANCH   1  21
ATOM     20  C   UNL     1       0.392   0.814   1.111  0.00  0.00    +0.089 C 
ATOM     21  C   UNL     1      -0.030  -0.013  -0.077  0.00  0.00    +0.162 C 
ATOM     22  O   UNL     1       0.663  -0.045  -1.066  0.00  0.00    -0.295 OA
ENDBRANCH   1  21
BRANCH   1  23
ATOM     23  O   UNL     1      -2.319  -0.092   0.688  0.00  0.00    -0.381 OA
ATOM     24  H   UNL     1      -2.535   0.774   0.316  0.00  0.00    +0.211 HD
ENDBRANCH   1  23
BRANCH  16  25
ATOM     25  O   UNL     1      -3.567  -9.478   3.663  0.00  0.00    -0.462 OA
BRANCH  25  26
ATOM     26  C   UNL     1      -4.564  -9.657   4.543  0.00  0.00    +0.304 C 
ATOM     27  O   UNL     1      -5.243  -8.718   4.887  0.00  0.00    -0.251 OA
ATOM     28  C   UNL     1      -4.838 -11.029   5.103  0.00  0.00    +0.136 C 
ENDBRANCH  25  26
ENDBRANCH  16  25
TORSDOF 4
