REMARK  Name = ZINC09492603
REMARK  7 active torsions:
REMARK  status: ('A' for Active; 'I' for Inactive)
REMARK    1  A    between atoms: C_1  and  C_2
REMARK    2  A    between atoms: C_3  and  C_25
REMARK    3  A    between atoms: C_4  and  C_20
REMARK    4  A    between atoms: C_6  and  C_18
REMARK    5  A    between atoms: C_7  and  S_9
REMARK    6  A    between atoms: S_9  and  C_10
REMARK    7  A    between atoms: C_10  and  C_11
REMARK                            x       y       z     vdW  Elec       q    Type
REMARK                         _______ _______ _______ _____ _____    ______ ____
ROOT
ATOM      1  C   UNL     1       6.966   4.913   1.581  0.00  0.00    +0.061 C 
ATOM      2  C   UNL     1       6.919   4.496   0.134  0.00  0.00    +0.015 C 
ATOM      3  C   UNL     1       7.732   5.092  -0.753  0.00  0.00    +0.046 C 
ATOM      4  C   UNL     1       7.734   4.709  -2.205  0.00  0.00    +0.134 C 
ATOM      5  C   UNL     1       6.500   3.926  -2.553  0.00  0.00    +0.072 C 
ATOM      6  C   UNL     1       5.723   3.367  -1.586  0.00  0.00    +0.080 C 
ATOM      7  N   UNL     1       6.046   3.519  -0.256  0.00  0.00    -0.312 N 
ATOM      8  H   UNL     1       5.597   2.851   0.494  0.00  0.00    +0.152 HD
ENDROOT
BRANCH   4   9
ATOM      9  C   UNL     1       8.951   3.870  -2.494  0.00  0.00    +0.118 A 
ATOM     10  C   UNL     1       9.937   4.183  -3.354  0.00  0.00    +0.045 A 
ATOM     11  C   UNL     1      10.870   3.122  -3.312  0.00  0.00    +0.041 A 
ATOM     12  C   UNL     1      10.399   2.224  -2.429  0.00  0.00    +0.195 A 
ATOM     13  O   UNL     1       9.240   2.684  -1.933  0.00  0.00    -0.467 OA
ENDBRANCH   4   9
BRANCH   3  14
ATOM     14  C   UNL     1       8.611   6.109  -0.307  0.00  0.00    +0.240 C 
ATOM     15  O   UNL     1       8.551   6.504   0.843  0.00  0.00    -0.271 OA
ATOM     16  N   UNL     1       9.514   6.638  -1.155  0.00  0.00    -0.326 N 
ATOM     17  H   UNL     1      10.197   7.428  -0.809  0.00  0.00    +0.145 HD
ATOM     18  H   UNL     1       9.569   6.281  -2.194  0.00  0.00    +0.145 HD
ENDBRANCH   3  14
BRANCH   5  19
ATOM     19  C   UNL     1       6.134   3.765  -3.928  0.00  0.00    +0.098 C 
ATOM     20  N   UNL     1       5.843   3.638  -5.019  0.00  0.00    -0.191 NA
ENDBRANCH   5  19
BRANCH   6  21
ATOM     21  S   UNL     1       4.290   2.447  -2.038  0.00  0.00    -0.104 S 
BRANCH  21  22
ATOM     22  C   UNL     1       3.691   1.971  -0.398  0.00  0.00    +0.110 C 
BRANCH  22  23
ATOM     23  C   UNL     1       2.434   1.152  -0.540  0.00  0.00    -0.037 A 
ATOM     24  C   UNL     1       1.201   1.775  -0.556  0.00  0.00    +0.005 A 
ATOM     25  C   UNL     1       0.048   1.024  -0.685  0.00  0.00    +0.015 A 
ATOM     26  C   UNL     1       0.129  -0.352  -0.800  0.00  0.00    +0.018 A 
ATOM     27  C   UNL     1       1.363  -0.976  -0.785  0.00  0.00    +0.015 A 
ATOM     28  C   UNL     1       2.515  -0.224  -0.656  0.00  0.00    +0.005 A 
ATOM     29 BR   UNL     1      -1.449  -1.380  -0.977  0.00  0.00    -0.050 Br
ENDBRANCH  22  23
ENDBRANCH  21  22
ENDBRANCH   6  21
TORSDOF 6
