REMARK  Name = ZINC44019375
REMARK  3 active torsions:
REMARK  status: ('A' for Active; 'I' for Inactive)
REMARK    1  A    between atoms: C_1  and  C_2
REMARK    2  A    between atoms: C_25  and  C_26
REMARK    3  A    between atoms: C_26  and  O_27
REMARK                            x       y       z     vdW  Elec       q    Type
REMARK                         _______ _______ _______ _____ _____    ______ ____
ROOT
ATOM      1  C   UNL     1      -0.019   1.526   0.010  0.00  0.00    +0.017 C 
ATOM      2  C   UNL     1       0.002  -0.004   0.002  0.00  0.00    +0.025 C 
ATOM      3  C   UNL     1       0.608  -0.558  -1.290  0.00  0.00    +0.012 C 
ATOM      4  C   UNL     1       2.113  -0.315  -1.326  0.00  0.00    +0.005 C 
ATOM      5  C   UNL     1       2.765  -1.075  -0.164  0.00  0.00    +0.005 C 
ATOM      6  C   UNL     1       2.230  -0.503   1.149  0.00  0.00    -0.003 C 
ATOM      7  C   UNL     1       0.735  -0.576   1.228  0.00  0.00    +0.004 C 
ATOM      8  C   UNL     1       0.225  -2.026   1.311  0.00  0.00    +0.010 C 
ATOM      9  C   UNL     1      -1.274  -1.902   0.947  0.00  0.00    +0.066 C 
ATOM     10  C   UNL     1      -1.418  -0.605   0.139  0.00  0.00    +0.176 C 
ATOM     11  O   UNL     1      -1.952  -0.883  -1.161  0.00  0.00    -0.346 OA
ATOM     12  C   UNL     1      -3.367  -0.597  -1.045  0.00  0.00    +0.191 C 
ATOM     13  C   UNL     1      -3.368   0.613  -0.077  0.00  0.00    +0.191 C 
ATOM     14  O   UNL     1      -2.273   0.317   0.816  0.00  0.00    -0.346 OA
ATOM     15  C   UNL     1       2.861  -1.233   2.337  0.00  0.00    +0.008 C 
ATOM     16  C   UNL     1       4.375  -1.002   2.345  0.00  0.00    +0.031 C 
ATOM     17  C   UNL     1       4.920  -1.445   0.996  0.00  0.00    -0.060 C 
ATOM     18  C   UNL     1       5.902  -2.299   0.971  0.00  0.00    +0.037 C 
ATOM     19  C   UNL     1       6.478  -2.808  -0.321  0.00  0.00    +0.190 C 
ATOM     20  C   UNL     1       5.375  -2.809  -1.385  0.00  0.00    +0.070 C 
ATOM     21  C   UNL     1       4.849  -1.382  -1.531  0.00  0.00    +0.019 C 
ATOM     22  C   UNL     1       4.281  -0.876  -0.237  0.00  0.00    +0.018 C 
ATOM     23  O   UNL     1       6.972  -4.144  -0.141  0.00  0.00    -0.343 OA
ATOM     24  C   UNL     1       8.145  -4.221  -0.986  0.00  0.00    +0.191 C 
ATOM     25  C   UNL     1       8.732  -2.795  -0.841  0.00  0.00    +0.191 C 
ATOM     26  O   UNL     1       7.556  -1.966  -0.743  0.00  0.00    -0.343 OA
ENDROOT
BRANCH  22  27
ATOM     27  C   UNL     1       4.546   0.631  -0.223  0.00  0.00    +0.167 C 
BRANCH  27  28
ATOM     28  O   UNL     1       5.954   0.868  -0.290  0.00  0.00    -0.394 OA
ATOM     29  H   UNL     1       6.196   1.804  -0.285  0.00  0.00    +0.209 HD
ENDBRANCH  27  28
ENDBRANCH  22  27
TORSDOF 2
