REMARK  Name = ZINC16852578
REMARK  5 active torsions:
REMARK  status: ('A' for Active; 'I' for Inactive)
REMARK    1  A    between atoms: C_1  and  O_2
REMARK    2  A    between atoms: O_2  and  C_3
REMARK    3  A    between atoms: C_6  and  C_9
REMARK    4  A    between atoms: C_9  and  C_10
REMARK    5  A    between atoms: C_11  and  O_24
REMARK                            x       y       z     vdW  Elec       q    Type
REMARK                         _______ _______ _______ _____ _____    ______ ____
ROOT
ATOM      1  C   UNL     1       0.558   4.391   0.020  0.00  0.00    +0.083 A 
ATOM      2  C   UNL     1      -0.759   3.958   0.031  0.00  0.00    +0.223 A 
ATOM      3  N   UNL     1      -1.003   2.644   0.030  0.00  0.00    -0.188 NA
ATOM      4  C   UNL     1      -0.022   1.776   0.012  0.00  0.00    +0.184 A 
ATOM      5  N   UNL     1       1.299   2.120   0.001  0.00  0.00    -0.254 N 
ATOM      6  C   UNL     1       1.588   3.457   0.005  0.00  0.00    +0.266 A 
ATOM      7  O   UNL     1       2.751   3.830  -0.003  0.00  0.00    -0.267 OA
ATOM      8  C   UNL     1       2.249   1.091  -0.014  0.00  0.00    +0.066 A 
ATOM      9  C   UNL     1       3.646   1.247  -0.026  0.00  0.00    +0.027 A 
ATOM     10  C   UNL     1       4.475   0.151  -0.039  0.00  0.00    +0.002 A 
ATOM     11  C   UNL     1       3.965  -1.137  -0.041  0.00  0.00    +0.001 A 
ATOM     12  C   UNL     1       2.593  -1.318  -0.029  0.00  0.00    +0.017 A 
ATOM     13  C   UNL     1       1.765  -0.220  -0.016  0.00  0.00    +0.040 A 
ATOM     14  S   UNL     1       0.002  -0.004   0.002  0.00  0.00    -0.049 S 
ENDROOT
BRANCH   2  15
ATOM     15  O   UNL     1      -1.779   4.849   0.045  0.00  0.00    -0.492 OA
ATOM     16  H   UNL     1      -2.656   4.443   0.051  0.00  0.00    +0.294 HD
ENDBRANCH   2  15
BRANCH   1  17
ATOM     17  C   UNL     1       0.871   5.865   0.025  0.00  0.00    +0.081 C 
BRANCH  17  21
ATOM     18  C   UNL     1       1.550   7.165   4.039  0.00  0.00    +0.120 A 
ATOM     19  C   UNL     1       2.609   6.705   3.269  0.00  0.00    +0.046 A 
ATOM     20  C   UNL     1       2.386   6.286   1.971  0.00  0.00    +0.007 A 
ATOM     21  C   UNL     1       1.111   6.324   1.440  0.00  0.00    -0.042 A 
ATOM     22  C   UNL     1       0.055   6.787   2.204  0.00  0.00    +0.007 A 
ATOM     23  C   UNL     1       0.271   7.202   3.503  0.00  0.00    +0.046 A 
BRANCH  18  25
ATOM     24  C   UNL     1       0.630   8.039   6.049  0.00  0.00    +0.277 C 
ATOM     25  O   UNL     1       1.766   7.578   5.315  0.00  0.00    -0.495 OA
ENDBRANCH  18  25
ENDBRANCH  17  21
ENDBRANCH   1  17
TORSDOF 4
