REMARK  Name = ZINC09233591
REMARK  5 active torsions:
REMARK  status: ('A' for Active; 'I' for Inactive)
REMARK    1  A    between atoms: C_5  and  C_7
REMARK    2  A    between atoms: C_7  and  N_8
REMARK    3  A    between atoms: C_12  and  C_13
REMARK    4  A    between atoms: C_16  and  C_18
REMARK    5  A    between atoms: C_23  and  C_24
REMARK                            x       y       z     vdW  Elec       q    Type
REMARK                         _______ _______ _______ _____ _____    ______ ____
ROOT
ATOM      1  N   UNL     1       3.351   1.034  -1.288  0.00  0.00    -0.224 N 
ATOM      2  C   UNL     1       4.100   2.103  -1.506  0.00  0.00    +0.261 C 
ATOM      3  O   UNL     1       4.223   2.978  -0.668  0.00  0.00    -0.269 OA
ATOM      4  C   UNL     1       4.776   2.182  -2.812  0.00  0.00    +0.083 C 
ATOM      5  C   UNL     1       5.599   3.151  -3.308  0.00  0.00    +0.066 C 
ATOM      6  S   UNL     1       4.224   0.660  -3.569  0.00  0.00    -0.026 S 
ATOM      7  C   UNL     1       3.221   0.065  -2.217  0.00  0.00    +0.286 C 
ATOM      8  O   UNL     1       2.576  -0.964  -2.150  0.00  0.00    -0.262 OA
ENDROOT
BRANCH   5   9
ATOM      9  C   UNL     1       6.018   4.214  -2.478  0.00  0.00    +0.130 A 
ATOM     10  C   UNL     1       6.736   5.325  -2.883  0.00  0.00    +0.050 A 
ATOM     11  C   UNL     1       6.930   6.117  -1.749  0.00  0.00    +0.050 A 
ATOM     12  C   UNL     1       6.335   5.461  -0.694  0.00  0.00    +0.137 A 
ATOM     13  O   UNL     1       5.792   4.318  -1.152  0.00  0.00    -0.455 OA
BRANCH  12  14
ATOM     14  C   UNL     1       6.300   5.932   0.701  0.00  0.00    +0.035 A 
ATOM     15  C   UNL     1       7.488   6.194   1.385  0.00  0.00    +0.013 A 
ATOM     16  C   UNL     1       7.449   6.635   2.692  0.00  0.00    +0.001 A 
ATOM     17  C   UNL     1       6.235   6.820   3.335  0.00  0.00    +0.001 A 
ATOM     18  C   UNL     1       5.049   6.567   2.678  0.00  0.00    +0.019 A 
ATOM     19  C   UNL     1       5.065   6.126   1.354  0.00  0.00    +0.062 A 
BRANCH  19  20
ATOM     20  C   UNL     1       3.836   5.868   0.665  0.00  0.00    +0.100 C 
ATOM     21  N   UNL     1       2.862   5.663   0.118  0.00  0.00    -0.191 NA
ENDBRANCH  19  20
ENDBRANCH  12  14
ENDBRANCH   5   9
BRANCH   1  22
ATOM     22  C   UNL     1       2.653   0.898  -0.008  0.00  0.00    +0.153 C 
BRANCH  22  27
ATOM     23  C   UNL     1       5.189   0.590   2.772  0.00  0.00    +0.000 A 
ATOM     24  C   UNL     1       5.306  -0.782   2.889  0.00  0.00    +0.001 A 
ATOM     25  C   UNL     1       4.568  -1.611   2.065  0.00  0.00    +0.015 A 
ATOM     26  C   UNL     1       3.709  -1.068   1.127  0.00  0.00    +0.023 A 
ATOM     27  C   UNL     1       3.588   0.305   1.014  0.00  0.00    -0.016 A 
ATOM     28  C   UNL     1       4.327   1.134   1.838  0.00  0.00    +0.006 A 
ATOM     29 BR   UNL     1       2.700  -2.202  -0.000  0.00  0.00    -0.050 Br
ENDBRANCH  22  27
ENDBRANCH   1  22
TORSDOF 5
