REMARK  Name = ZINC04231914
REMARK  7 active torsions:
REMARK  status: ('A' for Active; 'I' for Inactive)
REMARK    1  A    between atoms: C_1  and  C_2
REMARK    2  A    between atoms: C_5  and  S_8
REMARK    3  A    between atoms: S_8  and  N_11
REMARK    4  A    between atoms: N_11  and  C_12
REMARK    5  A    between atoms: C_15  and  C_18
REMARK    6  A    between atoms: N_20  and  N_21
REMARK    7  A    between atoms: C_22  and  C_23
REMARK                            x       y       z     vdW  Elec       q    Type
REMARK                         _______ _______ _______ _____ _____    ______ ____
ROOT
ATOM      1  C   UNL     1      -0.507  10.713   0.043  0.00  0.00    +0.048 A 
ATOM      2  C   UNL     1      -1.739  10.068  -0.022  0.00  0.00    +0.025 A 
ATOM      3  C   UNL     1      -1.797   8.693  -0.053  0.00  0.00    +0.015 A 
ATOM      4  C   UNL     1      -0.617   7.945  -0.018  0.00  0.00    +0.038 A 
ATOM      5  C   UNL     1       0.619   8.595   0.053  0.00  0.00    +0.015 A 
ATOM      6  C   UNL     1       0.670   9.970   0.078  0.00  0.00    +0.025 A 
ENDROOT
BRANCH   4   7
ATOM      7  C   UNL     1      -0.675   6.471  -0.051  0.00  0.00    +0.263 C 
ATOM      8  O   UNL     1      -1.751   5.906  -0.107  0.00  0.00    -0.268 OA
ATOM      9  N   UNL     1       0.464   5.751  -0.017  0.00  0.00    -0.203 N 
ATOM     10  H   UNL     1       1.321   6.201   0.028  0.00  0.00    +0.178 HD
BRANCH   9  11
ATOM     11  N   UNL     1       0.408   4.351  -0.048  0.00  0.00    -0.187 NA
ATOM     12  C   UNL     1       1.505   3.657  -0.016  0.00  0.00    +0.145 C 
BRANCH  12  13
ATOM     13  C   UNL     1       1.446   2.185  -0.048  0.00  0.00    +0.077 A 
ATOM     14  C   UNL     1       2.589   1.442  -0.014  0.00  0.00    +0.209 A 
ATOM     15  O   UNL     1       2.578   0.109  -0.042  0.00  0.00    -0.462 OA
ATOM     16  C   UNL     1       1.448  -0.623  -0.105  0.00  0.00    +0.138 A 
ATOM     17  C   UNL     1       1.506  -2.012  -0.130  0.00  0.00    +0.048 A 
ATOM     18  C   UNL     1       0.344  -2.751  -0.194  0.00  0.00    +0.023 A 
ATOM     19  C   UNL     1      -0.894  -2.123  -0.234  0.00  0.00    +0.042 A 
ATOM     20  C   UNL     1      -0.975  -0.747  -0.209  0.00  0.00    +0.035 A 
ATOM     21  C   UNL     1       0.195   0.010  -0.145  0.00  0.00    +0.066 A 
ATOM     22  C   UNL     1       0.151   1.485  -0.117  0.00  0.00    +0.201 A 
ATOM     23  O   UNL     1      -0.904   2.094  -0.154  0.00  0.00    -0.286 OA
ATOM     24 CL   UNL     1      -2.344  -3.074  -0.315  0.00  0.00    -0.084 Cl
ENDBRANCH  12  13
ENDBRANCH   9  11
ENDBRANCH   4   7
BRANCH   1  25
ATOM     25  N   UNL     1      -0.452  12.102   0.074  0.00  0.00    -0.216 N 
ATOM     26  H   UNL     1      -0.987  12.623  -0.545  0.00  0.00    +0.174 HD
BRANCH  25  27
ATOM     27  S   UNL     1       0.528  12.868   1.168  0.00  0.00    +0.072 S 
ATOM     28  O   UNL     1       1.822  12.300   1.022  0.00  0.00    -0.150 OA
ATOM     29  O   UNL     1       0.286  14.261   1.024  0.00  0.00    -0.150 OA
BRANCH  27  34
ATOM     30  C   UNL     1      -1.411  11.341   6.674  0.00  0.00    +0.044 C 
ATOM     31  C   UNL     1      -0.927  11.723   5.299  0.00  0.00    -0.050 A 
ATOM     32  C   UNL     1       0.107  11.019   4.711  0.00  0.00    +0.005 A 
ATOM     33  C   UNL     1       0.552  11.369   3.449  0.00  0.00    +0.029 A 
ATOM     34  C   UNL     1      -0.038  12.422   2.776  0.00  0.00    +0.109 A 
ATOM     35  C   UNL     1      -1.069  13.129   3.366  0.00  0.00    +0.029 A 
ATOM     36  C   UNL     1      -1.517  12.776   4.626  0.00  0.00    +0.005 A 
ENDBRANCH  27  34
ENDBRANCH  25  27
ENDBRANCH   1  25
TORSDOF 6
