REMARK  Name = ZINC57415962
REMARK  8 active torsions:
REMARK  status: ('A' for Active; 'I' for Inactive)
REMARK    1  A    between atoms: C_1  and  C_2
REMARK    2  A    between atoms: C_2  and  N_3
REMARK    3  A    between atoms: N_3  and  C_4
REMARK    4  A    between atoms: N_3  and  C_6
REMARK    5  A    between atoms: C_4  and  C_5
REMARK    6  A    between atoms: C_6  and  C_7
REMARK    7  A    between atoms: C_7  and  N_8
REMARK    8  A    between atoms: C_24  and  C_26
REMARK                            x       y       z     vdW  Elec       q    Type
REMARK                         _______ _______ _______ _____ _____    ______ ____
ROOT
ATOM      1  N   UNL     1      -0.601  -3.969   2.121  0.00  0.00    -0.301 N 
ATOM      2  C   UNL     1      -0.120  -4.394   3.305  0.00  0.00    +0.303 C 
ATOM      3  O   UNL     1       0.275  -3.589   4.126  0.00  0.00    -0.253 OA
ATOM      4  N   UNL     1      -0.076  -5.713   3.580  0.00  0.00    -0.277 N 
ATOM      5  C   UNL     1      -0.446  -6.708   2.562  0.00  0.00    +0.115 C 
ATOM      6  C   UNL     1       0.789  -7.550   2.217  0.00  0.00    +0.056 C 
ATOM      7  C   UNL     1       1.484  -7.947   3.495  0.00  0.00    -0.016 A 
ATOM      8  C   UNL     1       2.455  -9.003   3.697  0.00  0.00    +0.003 A 
ATOM      9  C   UNL     1       3.029  -9.941   2.833  0.00  0.00    +0.010 A 
ATOM     10  C   UNL     1       3.937 -10.814   3.380  0.00  0.00    +0.001 A 
ATOM     11  C   UNL     1       4.277 -10.777   4.722  0.00  0.00    +0.002 A 
ATOM     12  C   UNL     1       3.725  -9.860   5.599  0.00  0.00    +0.026 A 
ATOM     13  C   UNL     1       2.800  -8.961   5.072  0.00  0.00    +0.047 A 
ATOM     14  N   UNL     1       2.082  -7.949   5.640  0.00  0.00    -0.356 N 
ATOM     15  H   UNL     1       2.121  -7.692   6.575  0.00  0.00    +0.166 HD
ATOM     16  C   UNL     1       1.297  -7.349   4.691  0.00  0.00    +0.041 A 
ATOM     17  C   UNL     1       0.350  -6.195   4.905  0.00  0.00    +0.121 C 
ATOM     18  C   UNL     1       1.063  -5.072   5.662  0.00  0.00    +0.035 C 
ATOM     19  H   UNL     1      -0.982  -4.604   1.495  0.00  0.00    +0.150 HD
ENDROOT
BRANCH   1  20
ATOM     20  C   UNL     1      -0.548  -2.545   1.778  0.00  0.00    +0.087 C 
BRANCH  20  21
ATOM     21  C   UNL     1      -1.155  -2.333   0.389  0.00  0.00    -0.060 C 
BRANCH  21  22
ATOM     22  N   UNL     1      -1.102  -0.905   0.045  0.00  0.00    +0.380 N 
ATOM     23  H   UNL     1      -1.555  -0.368   0.768  0.00  0.00    -0.082 HD
BRANCH  22  25
ATOM     24  C   UNL     1       0.359   1.030  -0.298  0.00  0.00    -0.017 C 
ATOM     25  C   UNL     1       0.300  -0.482  -0.074  0.00  0.00    -0.082 C 
ENDBRANCH  22  25
BRANCH  22  26
ATOM     26  C   UNL     1      -1.790  -0.684  -1.234  0.00  0.00    -0.082 C 
ATOM     27  C   UNL     1      -3.280  -0.994  -1.071  0.00  0.00    -0.017 C 
ENDBRANCH  22  26
ENDBRANCH  21  22
ENDBRANCH  20  21
ENDBRANCH   1  20
TORSDOF 5
