REMARK  Name = ZINC09218157
REMARK  13 active torsions:
REMARK  status: ('A' for Active; 'I' for Inactive)
REMARK    1  A    between atoms: C_1  and  C_2
REMARK    2  A    between atoms: C_5  and  C_8
REMARK    3  A    between atoms: N_15  and  C_18
REMARK    4  A    between atoms: C_18  and  C_19
REMARK    5  A    between atoms: C_19  and  C_20
REMARK    6  A    between atoms: N_22  and  C_23
REMARK    7  A    between atoms: C_23  and  C_24
REMARK    8  A    between atoms: C_24  and  C_26
REMARK    9  A    between atoms: C_24  and  N_65
REMARK   10  A    between atoms: C_31  and  O_32
REMARK   11  A    between atoms: O_32  and  C_33
REMARK   12  A    between atoms: C_34  and  N_65
REMARK   13  A    between atoms: C_35  and  N_65
REMARK                            x       y       z     vdW  Elec       q    Type
REMARK                         _______ _______ _______ _____ _____    ______ ____
ROOT
ATOM      1  C   UNL     1      -0.868  -1.287  -2.446  0.00  0.00    +0.117 C 
ENDROOT
BRANCH   1   2
ATOM      2  C   UNL     1      -2.114  -2.066  -2.115  0.00  0.00    +0.215 C 
ATOM      3  O   UNL     1      -2.253  -2.546  -1.010  0.00  0.00    -0.276 OA
ATOM      4  N   UNL     1      -3.075  -2.228  -3.046  0.00  0.00    -0.316 N 
ATOM      5  H   UNL     1      -2.964  -1.844  -3.930  0.00  0.00    +0.149 HD
BRANCH   4   6
ATOM      6  C   UNL     1      -4.287  -2.985  -2.724  0.00  0.00    +0.093 C 
BRANCH   6   7
ATOM      7  C   UNL     1      -5.207  -3.019  -3.946  0.00  0.00    -0.017 C 
BRANCH   7   8
ATOM      8  C   UNL     1      -6.505  -3.691  -3.578  0.00  0.00    -0.018 A 
ATOM      9  C   UNL     1      -6.938  -3.689  -2.266  0.00  0.00    +0.005 A 
ATOM     10  C   UNL     1      -8.128  -4.305  -1.929  0.00  0.00    +0.000 A 
ATOM     11  C   UNL     1      -8.890  -4.924  -2.903  0.00  0.00    +0.004 A 
ATOM     12  C   UNL     1      -8.462  -4.928  -4.216  0.00  0.00    +0.046 A 
ATOM     13  C   UNL     1      -7.270  -4.306  -4.559  0.00  0.00    +0.122 A 
BRANCH  13  14
ATOM     14  O   UNL     1      -6.849  -4.304  -5.851  0.00  0.00    -0.495 OA
ATOM     15  C   UNL     1      -7.688  -4.957  -6.807  0.00  0.00    +0.277 C 
ENDBRANCH  13  14
ENDBRANCH   7   8
BRANCH   7  18
ATOM     16  C   UNL     1      -6.151  -1.642  -5.699  0.00  0.00    -0.096 C 
ATOM     17  C   UNL     1      -6.259  -0.909  -3.394  0.00  0.00    -0.096 C 
ATOM     18  N   UNL     1      -5.451  -1.633  -4.397  0.00  0.00    +0.382 N 
ATOM     19  H   UNL     1      -4.549  -1.155  -4.507  0.00  0.00    -0.082 HD
ENDBRANCH   7  18
ENDBRANCH   6   7
ENDBRANCH   4   6
ENDBRANCH   1   2
BRANCH   1  20
ATOM     20  C   UNL     1       0.053  -1.253  -1.224  0.00  0.00    +0.135 C 
BRANCH  20  28
ATOM     21  C   UNL     1       2.751   2.989  -1.502  0.00  0.00    +0.004 A 
ATOM     22  C   UNL     1       3.965   3.462  -1.874  0.00  0.00    +0.056 A 
ATOM     23  S   UNL     1       4.818   2.004  -2.444  0.00  0.00    -0.076 S 
ATOM     24  C   UNL     1       3.538   0.806  -2.172  0.00  0.00    +0.116 A 
ATOM     25  C   UNL     1       2.479   1.564  -1.646  0.00  0.00    +0.080 A 
ATOM     26  C   UNL     1       1.291   0.832  -1.328  0.00  0.00    +0.263 A 
ATOM     27  O   UNL     1       0.316   1.403  -0.870  0.00  0.00    -0.267 OA
ATOM     28  N   UNL     1       1.265  -0.496  -1.547  0.00  0.00    -0.298 N 
ATOM     29  C   UNL     1       2.339  -1.147  -2.061  0.00  0.00    +0.203 A 
ATOM     30  N   UNL     1       3.437  -0.507  -2.361  0.00  0.00    -0.230 NA
BRANCH  21  35
ATOM     31  C   UNL     1      -1.259   6.542   0.608  0.00  0.00    +0.044 C 
ATOM     32  C   UNL     1      -0.210   5.612   0.056  0.00  0.00    -0.050 A 
ATOM     33  C   UNL     1       1.072   5.635   0.575  0.00  0.00    +0.004 A 
ATOM     34  C   UNL     1       2.038   4.786   0.073  0.00  0.00    +0.009 A 
ATOM     35  C   UNL     1       1.718   3.904  -0.959  0.00  0.00    -0.017 A 
ATOM     36  C   UNL     1       0.426   3.890  -1.482  0.00  0.00    +0.009 A 
ATOM     37  C   UNL     1      -0.532   4.739  -0.968  0.00  0.00    +0.004 A 
ENDBRANCH  21  35
ENDBRANCH  20  28
ENDBRANCH   1  20
TORSDOF 9
