REMARK  Name = ZINC02584331
REMARK  4 active torsions:
REMARK  status: ('A' for Active; 'I' for Inactive)
REMARK    1  A    between atoms: C_1  and  C_2
REMARK    2  A    between atoms: C_2  and  C_4
REMARK    3  A    between atoms: C_2  and  O_11
REMARK    4  A    between atoms: C_4  and  C_5
REMARK                            x       y       z     vdW  Elec       q    Type
REMARK                         _______ _______ _______ _____ _____    ______ ____
ROOT
ATOM      1  C   UNL     1       1.423   1.615  -0.003  0.00  0.00    +0.366 C 
ATOM      2  F   UNL     1       1.407   3.009   0.120  0.00  0.00    -0.193 F 
ATOM      3  F   UNL     1       2.132   1.061   1.068  0.00  0.00    -0.193 F 
ENDROOT
BRANCH   1   4
ATOM      4  C   UNL     1       2.100   1.227  -1.319  0.00  0.00    +0.457 C 
ATOM      5  F   UNL     1       1.390   1.781  -2.390  0.00  0.00    -0.165 F 
ATOM      6  F   UNL     1       3.412   1.711  -1.329  0.00  0.00    -0.165 F 
ATOM      7  F   UNL     1       2.116  -0.167  -1.441  0.00  0.00    -0.165 F 
ENDBRANCH   1   4
BRANCH   1   9
ATOM      8  C   UNL     1      -0.729   1.579   1.267  0.00  0.00    +0.044 C 
ATOM      9  C   UNL     1      -0.013   1.086   0.008  0.00  0.00    +0.190 C 
BRANCH   9  10
ATOM     10  O   UNL     1      -0.704   1.559  -1.150  0.00  0.00    -0.386 OA
ATOM     11  H   UNL     1      -0.756   2.523  -1.210  0.00  0.00    +0.210 HD
ENDBRANCH   9  10
ENDBRANCH   1   9
TORSDOF 3
