REMARK  Name = ZINC40985979
REMARK  12 active torsions:
REMARK  status: ('A' for Active; 'I' for Inactive)
REMARK    1  A    between atoms: C_1  and  N_2
REMARK    2  A    between atoms: N_2  and  C_3
REMARK    3  A    between atoms: N_2  and  C_4
REMARK    4  A    between atoms: C_4  and  C_6
REMARK    5  A    between atoms: C_4  and  C_26
REMARK    6  A    between atoms: C_6  and  N_7
REMARK    7  A    between atoms: C_8  and  C_10
REMARK    8  A    between atoms: C_13  and  S_17
REMARK    9  A    between atoms: S_17  and  C_18
REMARK   10  A    between atoms: C_18  and  C_19
REMARK   11  A    between atoms: C_31  and  O_32
REMARK   12  A    between atoms: O_32  and  C_33
REMARK                            x       y       z     vdW  Elec       q    Type
REMARK                         _______ _______ _______ _____ _____    ______ ____
ROOT
ATOM      1  N   UNL     1      -1.702   1.302  -1.405  0.00  0.00    -0.312 N 
ATOM      2  C   UNL     1      -2.076   1.923  -2.541  0.00  0.00    +0.248 C 
ATOM      3  O   UNL     1      -2.647   1.300  -3.416  0.00  0.00    -0.270 OA
ATOM      4  H   UNL     1      -1.246   1.799  -0.708  0.00  0.00    +0.149 HD
ENDROOT
BRANCH   2   5
ATOM      5  C   UNL     1      -1.793   3.359  -2.723  0.00  0.00    +0.092 A 
ATOM      6  C   UNL     1      -1.131   4.093  -1.730  0.00  0.00    +0.129 A 
ATOM      7  N   UNL     1      -0.896   5.375  -1.932  0.00  0.00    -0.229 NA
ATOM      8  C   UNL     1      -1.278   5.971  -3.056  0.00  0.00    +0.190 A 
ATOM      9  N   UNL     1      -1.906   5.312  -4.021  0.00  0.00    -0.209 NA
ATOM     10  C   UNL     1      -2.174   4.024  -3.899  0.00  0.00    +0.146 A 
ATOM     11 CL   UNL     1      -2.992   3.170  -5.170  0.00  0.00    -0.061 Cl
BRANCH   8  12
ATOM     12  S   UNL     1      -0.939   7.686  -3.272  0.00  0.00    -0.081 S 
BRANCH  12  13
ATOM     13  C   UNL     1      -1.620   8.065  -4.910  0.00  0.00    +0.112 C 
BRANCH  13  14
ATOM     14  C   UNL     1      -1.394   9.522  -5.223  0.00  0.00    -0.037 A 
ATOM     15  C   UNL     1      -2.341  10.461  -4.861  0.00  0.00    +0.006 A 
ATOM     16  C   UNL     1      -2.135  11.797  -5.149  0.00  0.00    +0.020 A 
ATOM     17  C   UNL     1      -0.980  12.194  -5.799  0.00  0.00    +0.041 A 
ATOM     18  C   UNL     1      -0.032  11.254  -6.161  0.00  0.00    +0.020 A 
ATOM     19  C   UNL     1      -0.237   9.918  -5.868  0.00  0.00    +0.006 A 
ATOM     20 CL   UNL     1      -0.720  13.872  -6.160  0.00  0.00    -0.084 Cl
ENDBRANCH  13  14
ENDBRANCH  12  13
ENDBRANCH   8  12
ENDBRANCH   2   5
BRANCH   1  21
ATOM     21  C   UNL     1      -1.983  -0.125  -1.224  0.00  0.00    +0.094 C 
BRANCH  21  22
ATOM     22  C   UNL     1      -1.353  -0.606   0.085  0.00  0.00    -0.017 C 
BRANCH  22  23
ATOM     23  C   UNL     1       0.147  -0.502  -0.012  0.00  0.00    -0.018 A 
ATOM     24  C   UNL     1       0.805   0.566   0.569  0.00  0.00    +0.005 A 
ATOM     25  C   UNL     1       2.181   0.662   0.481  0.00  0.00    +0.000 A 
ATOM     26  C   UNL     1       2.903  -0.309  -0.189  0.00  0.00    +0.004 A 
ATOM     27  C   UNL     1       2.251  -1.378  -0.771  0.00  0.00    +0.046 A 
ATOM     28  C   UNL     1       0.870  -1.480  -0.679  0.00  0.00    +0.122 A 
BRANCH  28  29
ATOM     29  O   UNL     1       0.226  -2.534  -1.246  0.00  0.00    -0.495 OA
ATOM     30  C   UNL     1       1.034  -3.503  -1.917  0.00  0.00    +0.277 C 
ENDBRANCH  28  29
ENDBRANCH  22  23
BRANCH  22  32
ATOM     31  C   UNL     1      -3.300   0.231   1.207  0.00  0.00    -0.096 C 
ATOM     32  N   UNL     1      -1.831   0.228   1.195  0.00  0.00    +0.382 N 
ATOM     33  C   UNL     1      -1.332  -0.314   2.465  0.00  0.00    -0.096 C 
ATOM     34  H   UNL     1      -1.494   1.172   1.076  0.00  0.00    -0.082 HD
ENDBRANCH  22  32
ENDBRANCH  21  22
ENDBRANCH   1  21
TORSDOF 9
