REMARK  Name = ZINC64044481
REMARK  6 active torsions:
REMARK  status: ('A' for Active; 'I' for Inactive)
REMARK    1  A    between atoms: C_1  and  O_2
REMARK    2  A    between atoms: O_2  and  C_3
REMARK    3  A    between atoms: C_7  and  C_15
REMARK    4  A    between atoms: C_12  and  O_13
REMARK    5  A    between atoms: O_13  and  C_14
REMARK    6  A    between atoms: N_17  and  C_18
REMARK                            x       y       z     vdW  Elec       q    Type
REMARK                         _______ _______ _______ _____ _____    ______ ____
ROOT
ATOM      1  C   UNL     1       0.606  -0.607  -1.056  0.00  0.00    +0.162 A 
ATOM      2  C   UNL     1       1.156   0.152  -2.033  0.00  0.00    +0.059 A 
ATOM      3  C   UNL     1       1.807  -0.506  -3.172  0.00  0.00    +0.000 A 
ATOM      4  C   UNL     1       2.427  -0.015  -4.269  0.00  0.00    +0.016 C 
ATOM      5  C   UNL     1       2.887  -1.215  -5.066  0.00  0.00    +0.190 C 
ATOM      6  N   UNL     1       2.460  -2.392  -4.303  0.00  0.00    -0.370 N 
ATOM      7  C   UNL     1       1.841  -1.986  -3.217  0.00  0.00    +0.047 A 
ATOM      8  C   UNL     1       1.243  -2.712  -2.157  0.00  0.00    +0.075 A 
ATOM      9  C   UNL     1       0.657  -2.062  -1.120  0.00  0.00    +0.163 A 
ATOM     10  H   UNL     1       2.610  -3.316  -4.557  0.00  0.00    +0.161 HD
ENDROOT
BRANCH   5  11
ATOM     11  C   UNL     1       2.239  -1.213  -6.426  0.00  0.00    +0.240 C 
ATOM     12  O   UNL     1       1.276  -1.919  -6.641  0.00  0.00    -0.273 OA
ATOM     13  N   UNL     1       2.730  -0.428  -7.406  0.00  0.00    -0.308 N 
ATOM     14  H   UNL     1       3.500   0.137  -7.234  0.00  0.00    +0.149 HD
BRANCH  13  15
ATOM     15  C   UNL     1       2.100  -0.426  -8.728  0.00  0.00    +0.035 C 
ATOM     16  C   UNL     1       0.641   0.014  -8.598  0.00  0.00    +0.029 C 
ATOM     17  C   UNL     1      -0.017   0.015  -9.980  0.00  0.00    -0.008 C 
ATOM     18  C   UNL     1       0.729   0.986 -10.898  0.00  0.00    +0.007 C 
ATOM     19  C   UNL     1       2.188   0.546 -11.028  0.00  0.00    -0.008 C 
ATOM     20  C   UNL     1       2.845   0.544  -9.647  0.00  0.00    +0.029 C 
ATOM     21  C   UNL     1       2.245  -0.863 -11.622  0.00  0.00    +0.007 C 
ATOM     22  C   UNL     1       1.500  -1.834 -10.703  0.00  0.00    -0.008 C 
ATOM     23  C   UNL     1       0.040  -1.394 -10.573  0.00  0.00    +0.007 C 
ATOM     24  C   UNL     1       2.157  -1.835  -9.322  0.00  0.00    +0.029 C 
ENDBRANCH  13  15
ENDBRANCH   5  11
BRANCH   1  26
ATOM     25  C   UNL     1      -0.017   1.425   0.010  0.00  0.00    +0.277 C 
ATOM     26  O   UNL     1       0.002  -0.004   0.002  0.00  0.00    -0.491 OA
ENDBRANCH   1  26
BRANCH   9  27
ATOM     27  O   UNL     1       0.099  -2.787  -0.119  0.00  0.00    -0.491 OA
ATOM     28  C   UNL     1       0.175  -4.210  -0.227  0.00  0.00    +0.277 C 
ENDBRANCH   9  27
TORSDOF 4
