REMARK  Name = ZINC39335105
REMARK  7 active torsions:
REMARK  status: ('A' for Active; 'I' for Inactive)
REMARK    1  A    between atoms: C_1  and  C_2
REMARK    2  A    between atoms: N_8  and  C_9
REMARK    3  A    between atoms: C_9  and  C_11
REMARK    4  A    between atoms: C_11  and  S_12
REMARK    5  A    between atoms: S_12  and  C_13
REMARK    6  A    between atoms: C_13  and  C_14
REMARK    7  A    between atoms: C_19  and  C_24
REMARK                            x       y       z     vdW  Elec       q    Type
REMARK                         _______ _______ _______ _____ _____    ______ ____
ROOT
ATOM      1  C   UNL     1      -4.645  -5.440   7.374  0.00  0.00    +0.133 C 
ATOM      2  N   UNL     1      -5.646  -5.315   6.532  0.00  0.00    -0.160 NA
ATOM      3  C   UNL     1      -6.860  -5.804   6.800  0.00  0.00    +0.272 C 
ATOM      4  O   UNL     1      -7.775  -5.677   6.002  0.00  0.00    -0.268 OA
ATOM      5  C   UNL     1      -7.070  -6.510   8.094  0.00  0.00    +0.076 C 
ATOM      6  C   UNL     1      -8.245  -7.085   8.557  0.00  0.00    -0.009 C 
ATOM      7  C   UNL     1      -8.184  -7.743   9.918  0.00  0.00    +0.113 C 
ATOM      8  S   UNL     1      -6.428  -7.457  10.377  0.00  0.00    -0.100 S 
ATOM      9  C   UNL     1      -5.916  -6.581   8.919  0.00  0.00    +0.112 C 
ATOM     10  N   UNL     1      -4.769  -6.060   8.535  0.00  0.00    -0.227 NA
ENDROOT
BRANCH   6  11
ATOM     11  C   UNL     1      -9.425  -7.056   7.805  0.00  0.00    +0.017 A 
ATOM     12  C   UNL     1     -10.140  -8.122   7.244  0.00  0.00    +0.016 A 
ATOM     13  C   UNL     1     -11.269  -7.776   6.555  0.00  0.00    +0.008 A 
ATOM     14  C   UNL     1     -11.614  -6.461   6.462  0.00  0.00    +0.046 A 
ATOM     15  S   UNL     1     -10.414  -5.655   7.318  0.00  0.00    -0.097 S 
ENDBRANCH   6  11
BRANCH   1  16
ATOM     16  C   UNL     1      -3.305  -4.861   7.000  0.00  0.00    +0.143 C 
BRANCH  16  17
ATOM     17  S   UNL     1      -3.420  -4.075   5.369  0.00  0.00    -0.144 S 
BRANCH  17  18
ATOM     18  C   UNL     1      -1.748  -3.437   5.071  0.00  0.00    +0.167 C 
BRANCH  18  19
ATOM     19  C   UNL     1      -1.704  -2.750   3.730  0.00  0.00    +0.248 C 
ATOM     20  O   UNL     1      -2.705  -2.696   3.042  0.00  0.00    -0.273 OA
BRANCH  19  27
ATOM     21  C   UNL     1      -0.042   1.546   0.030  0.00  0.00    +0.021 C 
ATOM     22  C   UNL     1      -0.004   0.017   0.015  0.00  0.00    +0.068 C 
ATOM     23  C   UNL     1      -1.426  -0.576   0.104  0.00  0.00    +0.117 C 
ATOM     24  N   UNL     1      -1.587  -1.370   1.304  0.00  0.00    -0.325 N 
ATOM     25  C   UNL     1      -0.556  -1.507   2.168  0.00  0.00    +0.147 C 
ATOM     26  S   UNL     1       0.743  -0.642   1.556  0.00  0.00    -0.088 S 
ATOM     27  N   UNL     1      -0.570  -2.203   3.300  0.00  0.00    -0.159 NA
ATOM     28  H   UNL     1      -2.436  -1.803   1.489  0.00  0.00    +0.148 HD
ENDBRANCH  19  27
ENDBRANCH  18  19
ENDBRANCH  17  18
ENDBRANCH  16  17
ENDBRANCH   1  16
TORSDOF 6
