REMARK  Name = ZINC11939666
REMARK  8 active torsions:
REMARK  status: ('A' for Active; 'I' for Inactive)
REMARK    1  A    between atoms: C_1  and  C_2
REMARK    2  A    between atoms: C_14  and  C_16
REMARK    3  A    between atoms: C_16  and  O_17
REMARK    4  A    between atoms: O_17  and  C_18
REMARK    5  A    between atoms: C_18  and  C_20
REMARK    6  A    between atoms: C_20  and  C_21
REMARK    7  A    between atoms: C_21  and  C_23
REMARK    8  A    between atoms: C_21  and  N_29
REMARK                            x       y       z     vdW  Elec       q    Type
REMARK                         _______ _______ _______ _____ _____    ______ ____
ROOT
ATOM      1  C   UNL     1       5.476   3.310   1.248  0.00  0.00    +0.310 C 
ATOM      2  O   UNL     1       6.078   3.271   0.201  0.00  0.00    -0.251 OA
ENDROOT
BRANCH   1   3
ATOM      3  O   UNL     1       6.049   3.860   2.331  0.00  0.00    -0.455 OA
BRANCH   3   4
ATOM      4  C   UNL     1       7.392   4.387   2.170  0.00  0.00    +0.328 C 
BRANCH   4  17
ATOM      5  C   UNL     1       9.679   9.910   4.390  0.00  0.00    +0.019 C 
ATOM      6  C   UNL     1       9.925   8.457   3.982  0.00  0.00    +0.050 C 
ATOM      7  C   UNL     1       9.220   7.532   4.961  0.00  0.00    +0.033 C 
ATOM      8  C   UNL     1       9.577   6.073   4.842  0.00  0.00    +0.115 C 
ATOM      9  N   UNL     1       9.095   5.509   3.571  0.00  0.00    -0.268 N 
ATOM     10  C   UNL     1       9.944   5.551   2.461  0.00  0.00    +0.050 A 
ATOM     11  C   UNL     1      10.579   4.396   2.031  0.00  0.00    +0.024 A 
ATOM     12  C   UNL     1      11.457   4.447   0.966  0.00  0.00    +0.002 A 
ATOM     13  C   UNL     1      11.715   5.641   0.316  0.00  0.00    +0.001 A 
ATOM     14  C   UNL     1      11.069   6.799   0.720  0.00  0.00    +0.016 A 
ATOM     15  C   UNL     1      10.182   6.740   1.774  0.00  0.00    +0.030 A 
ATOM     16  S   UNL     1       9.293   8.188   2.300  0.00  0.00    -0.120 S 
ATOM     17  C   UNL     1       7.867   4.960   3.481  0.00  0.00    +0.258 C 
ATOM     18  O   UNL     1       7.144   4.927   4.455  0.00  0.00    -0.272 OA
ENDBRANCH   4  17
ENDBRANCH   3   4
ENDBRANCH   1   3
BRANCH   1  19
ATOM     19  C   UNL     1       4.084   2.742   1.339  0.00  0.00    +0.147 C 
BRANCH  19  20
ATOM     20  C   UNL     1       3.672   2.182  -0.024  0.00  0.00    +0.115 C 
BRANCH  20  21
ATOM     21  N   UNL     1       3.582   3.276  -0.995  0.00  0.00    -0.292 N 
ATOM     22  C   UNL     1       3.759   3.027  -2.308  0.00  0.00    +0.298 C 
ATOM     23  O   UNL     1       3.903   1.885  -2.696  0.00  0.00    -0.253 OA
ATOM     24  N   UNL     1       3.777   4.047  -3.190  0.00  0.00    -0.313 N 
ATOM     25  H   UNL     1       3.395   4.178  -0.693  0.00  0.00    +0.151 HD
ATOM     26  H   UNL     1       3.662   4.958  -2.880  0.00  0.00    +0.146 HD
ATOM     27  H   UNL     1       3.905   3.868  -4.135  0.00  0.00    +0.146 HD
ENDBRANCH  20  21
BRANCH  20  28
ATOM     28  C   UNL     1       2.331   1.505   0.095  0.00  0.00    -0.027 A 
ATOM     29  C   UNL     1       1.182   2.264   0.220  0.00  0.00    +0.005 A 
ATOM     30  C   UNL     1      -0.048   1.643   0.329  0.00  0.00    +0.000 A 
ATOM     31  C   UNL     1      -0.130   0.263   0.315  0.00  0.00    +0.000 A 
ATOM     32  C   UNL     1       1.019  -0.496   0.192  0.00  0.00    +0.000 A 
ATOM     33  C   UNL     1       2.250   0.125   0.082  0.00  0.00    +0.005 A 
ENDBRANCH  20  28
ENDBRANCH  19  20
ENDBRANCH   1  19
TORSDOF 7
