REMARK  Name = ZINC54201712
REMARK  6 active torsions:
REMARK  status: ('A' for Active; 'I' for Inactive)
REMARK    1  A    between atoms: C_4  and  C_7
REMARK    2  A    between atoms: C_10  and  C_13
REMARK    3  A    between atoms: C_18  and  O_19
REMARK    4  A    between atoms: C_24  and  C_27
REMARK    5  A    between atoms: C_27  and  C_28
REMARK    6  A    between atoms: N_30  and  C_31
REMARK                            x       y       z     vdW  Elec       q    Type
REMARK                         _______ _______ _______ _____ _____    ______ ____
ROOT
ATOM      1  C   UNL     1       3.701  -0.712  -0.061  0.00  0.00    +0.069 C 
ATOM      2  N   UNL     1       4.859  -0.148  -0.060  0.00  0.00    -0.182 NA
ATOM      3  N   UNL     1       5.928  -1.042  -0.069  0.00  0.00    -0.195 N 
ATOM      4  C   UNL     1       5.399  -2.415  -0.076  0.00  0.00    +0.139 C 
ATOM      5  C   UNL     1       3.871  -2.214  -0.065  0.00  0.00    +0.087 C 
ATOM      6  C   UNL     1       7.249  -0.700  -0.070  0.00  0.00    +0.170 C 
ATOM      7  N   UNL     1       8.304  -1.504  -0.084  0.00  0.00    -0.157 NA
ATOM      8  C   UNL     1       9.544  -1.096  -0.085  0.00  0.00    +0.252 C 
ATOM      9  O   UNL     1      10.482  -1.869  -0.098  0.00  0.00    -0.272 OA
ATOM     10  C   UNL     1       9.733   0.416  -0.067  0.00  0.00    +0.150 C 
ATOM     11  S   UNL     1       7.966   0.938  -0.061  0.00  0.00    -0.078 S 
ENDROOT
BRANCH   1  15
ATOM     12  C   UNL     1      -0.019   1.332  -0.038  0.00  0.00    +0.000 A 
ATOM     13  C   UNL     1       1.163   2.052  -0.042  0.00  0.00    +0.001 A 
ATOM     14  C   UNL     1       2.375   1.395  -0.050  0.00  0.00    +0.010 A 
ATOM     15  C   UNL     1       2.408  -0.002  -0.053  0.00  0.00    -0.002 A 
ATOM     16  C   UNL     1       1.212  -0.722  -0.048  0.00  0.00    +0.010 A 
ATOM     17  C   UNL     1       0.006  -0.051  -0.041  0.00  0.00    +0.001 A 
ENDBRANCH   1  15
BRANCH   4  18
ATOM     18  C   UNL     1       5.837  -3.145  -1.320  0.00  0.00    +0.017 A 
ATOM     19  C   UNL     1       6.291  -2.435  -2.415  0.00  0.00    +0.009 A 
ATOM     20  C   UNL     1       6.692  -3.104  -3.556  0.00  0.00    +0.001 A 
ATOM     21  C   UNL     1       6.641  -4.485  -3.604  0.00  0.00    +0.004 A 
ATOM     22  C   UNL     1       6.189  -5.200  -2.512  0.00  0.00    +0.046 A 
ATOM     23  C   UNL     1       5.791  -4.531  -1.364  0.00  0.00    +0.122 A 
BRANCH  23  24
ATOM     24  O   UNL     1       5.351  -5.232  -0.286  0.00  0.00    -0.506 OA
ATOM     25  H   UNL     1       4.398  -5.397  -0.286  0.00  0.00    +0.292 HD
ENDBRANCH  23  24
ENDBRANCH   4  18
BRANCH  10  26
ATOM     26  C   UNL     1      10.451   0.904  -1.327  0.00  0.00    +0.120 C 
BRANCH  26  27
ATOM     27  C   UNL     1      10.724   2.381  -1.209  0.00  0.00    +0.219 C 
ATOM     28  O   UNL     1      10.378   2.985  -0.216  0.00  0.00    -0.275 OA
ATOM     29  N   UNL     1      11.353   3.032  -2.208  0.00  0.00    -0.285 N 
ATOM     30  H   UNL     1      11.689   2.538  -2.973  0.00  0.00    +0.155 HD
BRANCH  29  31
ATOM     31  C   UNL     1      11.520   4.420  -2.143  0.00  0.00    +0.033 A 
ATOM     32  C   UNL     1      11.455   5.184  -3.300  0.00  0.00    +0.023 A 
ATOM     33  C   UNL     1      11.621   6.553  -3.232  0.00  0.00    +0.002 A 
ATOM     34  C   UNL     1      11.851   7.164  -2.013  0.00  0.00    +0.000 A 
ATOM     35  C   UNL     1      11.917   6.405  -0.859  0.00  0.00    +0.002 A 
ATOM     36  C   UNL     1      11.746   5.036  -0.919  0.00  0.00    +0.023 A 
ENDBRANCH  29  31
ENDBRANCH  26  27
ENDBRANCH  10  26
TORSDOF 6
