REMARK  Name = ZINC43875331
REMARK  13 active torsions:
REMARK  status: ('A' for Active; 'I' for Inactive)
REMARK    1  A    between atoms: C_1  and  C_2
REMARK    2  A    between atoms: C_2  and  C_3
REMARK    3  A    between atoms: C_2  and  C_4
REMARK    4  A    between atoms: C_6  and  C_28
REMARK    5  A    between atoms: C_7  and  S_13
REMARK    6  A    between atoms: C_8  and  C_10
REMARK    7  A    between atoms: C_10  and  C_11
REMARK    8  A    between atoms: C_10  and  C_12
REMARK    9  A    between atoms: S_13  and  N_16
REMARK   10  A    between atoms: N_16  and  C_17
REMARK   11  A    between atoms: C_17  and  C_18
REMARK   12  A    between atoms: C_28  and  C_29
REMARK   13  A    between atoms: C_28  and  C_30
REMARK                            x       y       z     vdW  Elec       q    Type
REMARK                         _______ _______ _______ _____ _____    ______ ____
ROOT
ATOM      1  C   UNL     1       0.547  -0.064   1.726  0.00  0.00    -0.044 A 
ATOM      2  C   UNL     1       1.909   0.170   1.733  0.00  0.00    +0.009 A 
ATOM      3  C   UNL     1       2.761  -0.726   2.349  0.00  0.00    -0.018 A 
ATOM      4  C   UNL     1       2.252  -1.857   2.959  0.00  0.00    +0.112 A 
ATOM      5  C   UNL     1       0.889  -2.091   2.953  0.00  0.00    -0.018 A 
ATOM      6  C   UNL     1       0.036  -1.192   2.340  0.00  0.00    +0.009 A 
ENDROOT
BRANCH   1   8
ATOM      7  C   UNL     1      -0.242   2.287   1.714  0.00  0.00    +0.012 C 
ATOM      8  C   UNL     1      -0.383   0.913   1.054  0.00  0.00    +0.013 C 
ATOM      9  C   UNL     1      -0.024   1.021  -0.429  0.00  0.00    +0.012 C 
ENDBRANCH   1   8
BRANCH   5  10
ATOM     10  C   UNL     1       0.334  -3.325   3.618  0.00  0.00    +0.015 C 
ATOM     11  C   UNL     1      -1.050  -3.014   4.193  0.00  0.00    +0.012 C 
ATOM     12  C   UNL     1       0.217  -4.450   2.588  0.00  0.00    +0.012 C 
ENDBRANCH   5  10
BRANCH   4  13
ATOM     13  S   UNL     1       3.339  -3.001   3.744  0.00  0.00    +0.059 S 
ATOM     14  O   UNL     1       2.614  -4.214   3.891  0.00  0.00    -0.153 OA
ATOM     15  O   UNL     1       4.574  -2.931   3.046  0.00  0.00    -0.153 OA
BRANCH  13  16
ATOM     16  N   UNL     1       3.626  -2.433   5.273  0.00  0.00    -0.190 NA
ATOM     17  H   UNL     1       4.520  -2.154   5.526  0.00  0.00    +0.148 HD
BRANCH  16  18
ATOM     18  C   UNL     1       2.531  -2.353   6.242  0.00  0.00    +0.110 C 
BRANCH  18  19
ATOM     19  C   UNL     1       3.107  -2.165   7.647  0.00  0.00    +0.012 C 
ATOM     20  C   UNL     1       3.848  -3.443   8.108  0.00  0.00    +0.013 C 
ATOM     21  C   UNL     1       3.054  -3.895   9.374  0.00  0.00    +0.012 C 
ATOM     22  C   UNL     1       1.591  -3.515   8.943  0.00  0.00    +0.015 C 
ATOM     23  C   UNL     1       1.958  -2.002   8.694  0.00  0.00    +0.016 C 
ATOM     24  C   UNL     1       2.690  -1.693  10.006  0.00  0.00    -0.027 C 
ATOM     25  C   UNL     1       3.340  -2.796  10.405  0.00  0.00    -0.027 C 
ENDBRANCH  18  19
ENDBRANCH  16  18
ENDBRANCH  13  16
ENDBRANCH   4  13
BRANCH   3  26
ATOM     26  C   UNL     1       4.247  -0.471   2.356  0.00  0.00    +0.015 C 
ATOM     27  C   UNL     1       4.824  -0.783   0.974  0.00  0.00    +0.012 C 
ATOM     28  C   UNL     1       4.511   0.996   2.700  0.00  0.00    +0.012 C 
ENDBRANCH   3  26
TORSDOF 7
