REMARK  Name = ZINC44452997
REMARK  6 active torsions:
REMARK  status: ('A' for Active; 'I' for Inactive)
REMARK    1  A    between atoms: C_1  and  C_2
REMARK    2  A    between atoms: C_2  and  C_26
REMARK    3  A    between atoms: N_3  and  N_4
REMARK    4  A    between atoms: C_5  and  C_7
REMARK    5  A    between atoms: C_11  and  N_12
REMARK    6  A    between atoms: C_13  and  C_15
REMARK                            x       y       z     vdW  Elec       q    Type
REMARK                         _______ _______ _______ _____ _____    ______ ____
ROOT
ATOM      1  C   UNL     1       2.419   0.126   4.101  0.00  0.00    +0.070 A 
ATOM      2  C   UNL     1       1.677   0.483   5.302  0.00  0.00    -0.023 A 
ATOM      3  C   UNL     1       2.405   1.162   6.213  0.00  0.00    -0.004 A 
ATOM      4  S   UNL     1       4.016   1.302   5.491  0.00  0.00    -0.077 S 
ATOM      5  C   UNL     1       3.749   0.503   4.039  0.00  0.00    +0.084 A 
ATOM      6  C   UNL     1       1.949   1.692   7.537  0.00  0.00    +0.043 C 
ATOM      7  C   UNL     1       1.204   0.584   8.293  0.00  0.00    +0.005 C 
ATOM      8  C   UNL     1      -0.273   0.647   7.920  0.00  0.00    +0.001 C 
ATOM      9  C   UNL     1      -0.433   1.110   6.473  0.00  0.00    +0.005 C 
ATOM     10  C   UNL     1       0.217   0.112   5.520  0.00  0.00    +0.037 C 
ENDROOT
BRANCH   1  12
ATOM     11  N   UNL     1       1.181   0.061   2.002  0.00  0.00    -0.203 N 
ATOM     12  C   UNL     1       1.784  -0.610   3.004  0.00  0.00    +0.266 C 
ATOM     13  O   UNL     1       1.800  -1.827   2.997  0.00  0.00    -0.268 OA
ATOM     14  H   UNL     1       1.168   1.031   2.007  0.00  0.00    +0.178 HD
BRANCH  11  17
ATOM     15  C   UNL     1      -0.018   1.503   0.010  0.00  0.00    +0.062 C 
ATOM     16  C   UNL     1       0.002  -0.004   0.002  0.00  0.00    +0.031 C 
ATOM     17  N   UNL     1       0.574  -0.642   0.953  0.00  0.00    -0.190 NA
ATOM     18  C   UNL     1      -0.651  -0.760  -1.126  0.00  0.00    +0.062 C 
ENDBRANCH  11  17
ENDBRANCH   1  12
BRANCH   5  19
ATOM     19  N   UNL     1       4.653   0.276   3.012  0.00  0.00    -0.279 N 
ATOM     20  C   UNL     1       5.922   0.719   3.121  0.00  0.00    +0.221 C 
ATOM     21  O   UNL     1       6.272   1.316   4.116  0.00  0.00    -0.275 OA
ATOM     22  H   UNL     1       4.373  -0.202   2.216  0.00  0.00    +0.155 HD
BRANCH  20  23
ATOM     23  C   UNL     1       6.904   0.471   2.005  0.00  0.00    +0.075 C 
ATOM     24  C   UNL     1       7.056  -1.035   1.784  0.00  0.00    +0.013 C 
ATOM     25  C   UNL     1       8.054  -1.286   0.651  0.00  0.00    +0.001 C 
ATOM     26  C   UNL     1       9.411  -0.686   1.024  0.00  0.00    +0.000 C 
ATOM     27  C   UNL     1       9.259   0.820   1.246  0.00  0.00    +0.001 C 
ATOM     28  C   UNL     1       8.261   1.071   2.378  0.00  0.00    +0.013 C 
ENDBRANCH  20  23
ENDBRANCH   5  19
TORSDOF 4
