REMARK  Name = ZINC40020679
REMARK  7 active torsions:
REMARK  status: ('A' for Active; 'I' for Inactive)
REMARK    1  A    between atoms: C_1  and  C_2
REMARK    2  A    between atoms: N_15  and  C_31
REMARK    3  A    between atoms: C_16  and  C_18
REMARK    4  A    between atoms: C_22  and  O_24
REMARK    5  A    between atoms: O_24  and  C_25
REMARK    6  A    between atoms: C_31  and  C_32
REMARK    7  A    between atoms: C_32  and  O_33
REMARK                            x       y       z     vdW  Elec       q    Type
REMARK                         _______ _______ _______ _____ _____    ______ ____
ROOT
ATOM      1  C   UNL     1      -0.467   2.564   0.189  0.00  0.00    +0.044 C 
ATOM      2  C   UNL     1      -0.363   1.065   0.077  0.00  0.00    -0.050 A 
ATOM      3  C   UNL     1      -0.283   0.468  -1.174  0.00  0.00    +0.007 A 
ATOM      4  C   UNL     1      -0.190  -0.900  -1.298  0.00  0.00    +0.047 A 
ATOM      5  C   UNL     1      -0.174  -1.706  -0.160  0.00  0.00    +0.139 A 
ATOM      6  C   UNL     1      -0.249  -1.090   1.101  0.00  0.00    +0.065 A 
ATOM      7  C   UNL     1      -0.341   0.297   1.208  0.00  0.00    +0.018 A 
ATOM      8  C   UNL     1      -0.216  -1.938   2.319  0.00  0.00    +0.199 A 
ATOM      9  O   UNL     1      -0.443  -1.510   3.437  0.00  0.00    -0.287 OA
ATOM     10  C   UNL     1       0.115  -3.341   2.049  0.00  0.00    +0.072 A 
ATOM     11  C   UNL     1       0.166  -3.819   0.770  0.00  0.00    +0.199 A 
ATOM     12  O   UNL     1      -0.089  -3.047  -0.305  0.00  0.00    -0.450 OA
ATOM     13  C   UNL     1       0.529  -5.246   0.824  0.00  0.00    +0.283 C 
ATOM     14  O   UNL     1       0.662  -5.967  -0.145  0.00  0.00    -0.267 OA
ATOM     15  N   UNL     1       0.693  -5.635   2.105  0.00  0.00    -0.281 N 
ATOM     16  C   UNL     1       0.444  -4.470   2.970  0.00  0.00    +0.145 C 
ENDROOT
BRANCH  16  17
ATOM     17  C   UNL     1       1.677  -4.145   3.772  0.00  0.00    -0.019 A 
ATOM     18  C   UNL     1       2.922  -4.184   3.171  0.00  0.00    +0.006 A 
ATOM     19  C   UNL     1       4.056  -3.885   3.903  0.00  0.00    +0.004 A 
ATOM     20  C   UNL     1       3.948  -3.548   5.239  0.00  0.00    +0.046 A 
ATOM     21  C   UNL     1       2.700  -3.507   5.844  0.00  0.00    +0.129 A 
ATOM     22  C   UNL     1       1.563  -3.802   5.105  0.00  0.00    +0.052 A 
BRANCH  21  23
ATOM     23  O   UNL     1       2.591  -3.175   7.157  0.00  0.00    -0.456 OA
BRANCH  23  24
ATOM     24  C   UNL     1       1.346  -3.111   7.698  0.00  0.00    +0.128 A 
ATOM     25  C   UNL     1       0.669  -4.278   8.023  0.00  0.00    +0.046 A 
ATOM     26  C   UNL     1      -0.597  -4.210   8.572  0.00  0.00    +0.004 A 
ATOM     27  C   UNL     1      -1.189  -2.981   8.798  0.00  0.00    +0.000 A 
ATOM     28  C   UNL     1      -0.516  -1.817   8.474  0.00  0.00    +0.004 A 
ATOM     29  C   UNL     1       0.752  -1.879   7.931  0.00  0.00    +0.046 A 
ENDBRANCH  23  24
ENDBRANCH  21  23
ENDBRANCH  16  17
BRANCH  15  30
ATOM     30  C   UNL     1       1.055  -6.981   2.556  0.00  0.00    +0.137 C 
BRANCH  30  31
ATOM     31  C   UNL     1      -0.214  -7.755   2.922  0.00  0.00    +0.175 C 
BRANCH  31  32
ATOM     32  O   UNL     1      -1.034  -7.901   1.760  0.00  0.00    -0.393 OA
ATOM     33  H   UNL     1      -1.857  -8.383   1.918  0.00  0.00    +0.209 HD
ENDBRANCH  31  32
ENDBRANCH  30  31
ENDBRANCH  15  30
TORSDOF 6
