REMARK  Name = ZINC00561508
REMARK  6 active torsions:
REMARK  status: ('A' for Active; 'I' for Inactive)
REMARK    1  A    between atoms: C_4  and  C_7
REMARK    2  A    between atoms: C_7  and  C_9
REMARK    3  A    between atoms: C_7  and  O_24
REMARK    4  A    between atoms: N_11  and  N_12
REMARK    5  A    between atoms: C_13  and  C_14
REMARK    6  A    between atoms: C_16  and  N_21
REMARK                            x       y       z     vdW  Elec       q    Type
REMARK                         _______ _______ _______ _____ _____    ______ ____
ROOT
ATOM      1  C   UNL     1       4.074  -1.053  -1.459  0.00  0.00    +0.265 C 
ATOM      2  O   UNL     1       4.131  -2.215  -1.804  0.00  0.00    -0.271 OA
ATOM      3  N   UNL     1       4.335  -0.073  -2.345  0.00  0.00    -0.205 N 
ATOM      4  H   UNL     1       4.290   0.856  -2.069  0.00  0.00    +0.177 HD
ENDROOT
BRANCH   3   5
ATOM      5  N   UNL     1       4.673  -0.395  -3.667  0.00  0.00    -0.188 NA
ATOM      6  C   UNL     1       4.925   0.550  -4.520  0.00  0.00    +0.139 C 
BRANCH   6   7
ATOM      7  C   UNL     1       5.280   0.211  -5.911  0.00  0.00    +0.015 A 
ATOM      8  C   UNL     1       5.557   1.224  -6.831  0.00  0.00    +0.043 A 
ATOM      9  C   UNL     1       5.889   0.900  -8.130  0.00  0.00    +0.127 A 
ATOM     10  C   UNL     1       5.948  -0.425  -8.523  0.00  0.00    +0.034 A 
ATOM     11  C   UNL     1       5.675  -1.435  -7.618  0.00  0.00    +0.023 A 
ATOM     12  C   UNL     1       5.347  -1.126  -6.313  0.00  0.00    +0.050 A 
ATOM     13 CL   UNL     1       5.011  -2.395  -5.176  0.00  0.00    -0.083 Cl
BRANCH   9  14
ATOM     14  N   UNL     1       6.183   1.973  -9.107  0.00  0.00    +0.056 N 
ATOM     15  O   UNL     1       6.131   3.132  -8.765  0.00  0.00    -0.126 OA
ATOM     16  O   UNL     1       6.474   1.691 -10.245  0.00  0.00    -0.126 OA
ENDBRANCH   9  14
ENDBRANCH   6   7
ENDBRANCH   3   5
BRANCH   1  17
ATOM     17  C   UNL     1       3.711  -0.707  -0.038  0.00  0.00    +0.232 C 
BRANCH  17  21
ATOM     18  C   UNL     1      -0.017   1.378   0.010  0.00  0.00    +0.000 A 
ATOM     19  C   UNL     1       1.171   2.086   0.002  0.00  0.00    +0.000 A 
ATOM     20  C   UNL     1       2.377   1.411  -0.013  0.00  0.00    +0.006 A 
ATOM     21  C   UNL     1       2.396   0.029  -0.020  0.00  0.00    -0.010 A 
ATOM     22  C   UNL     1       1.208  -0.679  -0.012  0.00  0.00    +0.006 A 
ATOM     23  C   UNL     1       0.002  -0.004   0.002  0.00  0.00    +0.000 A 
ENDBRANCH  17  21
BRANCH  17  24
ATOM     24  O   UNL     1       3.596  -1.907   0.731  0.00  0.00    -0.378 OA
ATOM     25  H   UNL     1       2.922  -2.519   0.405  0.00  0.00    +0.211 HD
ENDBRANCH  17  24
ENDBRANCH   1  17
TORSDOF 6
