REMARK  Name = ZINC12565715
REMARK  6 active torsions:
REMARK  status: ('A' for Active; 'I' for Inactive)
REMARK    1  A    between atoms: C_1  and  C_2
REMARK    2  A    between atoms: C_2  and  C_3
REMARK    3  A    between atoms: C_2  and  N_4
REMARK    4  A    between atoms: N_6  and  N_17
REMARK    5  A    between atoms: C_7  and  C_10
REMARK    6  A    between atoms: C_18  and  C_19
REMARK                            x       y       z     vdW  Elec       q    Type
REMARK                         _______ _______ _______ _____ _____    ______ ____
ROOT
ATOM      1  N   UNL     1      -2.360   5.572  -6.298  0.00  0.00    -0.257 NA
ATOM      2  C   UNL     1      -2.695   6.807  -6.024  0.00  0.00    +0.190 A 
ATOM      3  N   UNL     1      -2.688   7.463  -4.809  0.00  0.00    -0.208 N 
ATOM      4  C   UNL     1      -3.092   8.771  -4.771  0.00  0.00    +0.082 A 
ATOM      5  C   UNL     1      -3.475   9.385  -5.910  0.00  0.00    +0.077 A 
ATOM      6  S   UNL     1      -3.283   8.087  -7.121  0.00  0.00    -0.056 S 
ENDROOT
BRANCH   4   7
ATOM      7  C   UNL     1      -3.105   9.509  -3.490  0.00  0.00    +0.002 A 
ATOM      8  C   UNL     1      -3.360   8.833  -2.295  0.00  0.00    +0.010 A 
ATOM      9  C   UNL     1      -3.365   9.525  -1.102  0.00  0.00    +0.002 A 
ATOM     10  C   UNL     1      -3.128  10.889  -1.088  0.00  0.00    +0.015 A 
ATOM     11  C   UNL     1      -2.881  11.566  -2.270  0.00  0.00    +0.019 A 
ATOM     12  C   UNL     1      -2.868  10.884  -3.470  0.00  0.00    +0.025 A 
ATOM     13 BR   UNL     1      -2.560  13.430  -2.240  0.00  0.00    -0.050 Br
ENDBRANCH   4   7
BRANCH   1  15
ATOM     14  C   UNL     1      -1.061   4.625  -8.142  0.00  0.00    +0.032 C 
ATOM     15  C   UNL     1      -2.446   5.078  -7.675  0.00  0.00    +0.102 C 
ATOM     16  C   UNL     1      -3.416   3.896  -7.734  0.00  0.00    +0.032 C 
ENDBRANCH   1  15
BRANCH   3  17
ATOM     17  N   UNL     1      -2.281   6.805  -3.641  0.00  0.00    -0.172 NA
ATOM     18  C   UNL     1      -1.495   5.774  -3.717  0.00  0.00    +0.141 C 
BRANCH  18  19
ATOM     19  C   UNL     1      -1.171   5.003  -2.503  0.00  0.00    -0.002 A 
ATOM     20  C   UNL     1      -1.709   5.380  -1.269  0.00  0.00    +0.013 A 
ATOM     21  C   UNL     1      -1.403   4.657  -0.136  0.00  0.00    +0.050 A 
ATOM     22  C   UNL     1      -0.562   3.555  -0.214  0.00  0.00    +0.162 A 
ATOM     23  C   UNL     1      -0.025   3.172  -1.440  0.00  0.00    +0.163 A 
ATOM     24  C   UNL     1      -0.327   3.894  -2.582  0.00  0.00    +0.059 A 
ATOM     25  O   UNL     1       0.797   2.092  -1.534  0.00  0.00    -0.485 OA
ATOM     26  C   UNL     1       1.377   1.616  -0.314  0.00  0.00    +0.270 C 
ATOM     27  C   UNL     1       0.272   1.546   0.749  0.00  0.00    +0.270 C 
ATOM     28  O   UNL     1      -0.270   2.861   0.919  0.00  0.00    -0.485 OA
ENDBRANCH  18  19
ENDBRANCH   3  17
TORSDOF 4
