REMARK  Name = ZINC00706510
REMARK  9 active torsions:
REMARK  status: ('A' for Active; 'I' for Inactive)
REMARK    1  A    between atoms: C_1  and  C_2
REMARK    2  A    between atoms: C_2  and  C_28
REMARK    3  A    between atoms: C_6  and  C_15
REMARK    4  A    between atoms: C_8  and  N_12
REMARK    5  A    between atoms: C_9  and  N_11
REMARK    6  A    between atoms: C_18  and  O_23
REMARK    7  A    between atoms: C_19  and  O_21
REMARK    8  A    between atoms: O_21  and  C_22
REMARK    9  A    between atoms: O_23  and  C_24
REMARK                            x       y       z     vdW  Elec       q    Type
REMARK                         _______ _______ _______ _____ _____    ______ ____
ROOT
ATOM      1  C   UNL     1       2.160   0.490   2.166  0.00  0.00    +0.012 C 
ATOM      2  C   UNL     1       2.489   0.199   0.701  0.00  0.00    -0.021 C 
ATOM      3  C   UNL     1       2.505   1.507  -0.092  0.00  0.00    +0.081 C 
ATOM      4  C   UNL     1       1.143   2.156  -0.031  0.00  0.00    +0.115 C 
ATOM      5  C   UNL     1       0.028   1.406   0.072  0.00  0.00    +0.047 C 
ATOM      6  C   UNL     1      -1.329   2.064   0.135  0.00  0.00    +0.114 C 
ATOM      7  C   UNL     1      -1.184   3.513   0.504  0.00  0.00    +0.172 C 
ATOM      8  C   UNL     1      -0.021   4.130   0.379  0.00  0.00    +0.211 C 
ATOM      9  O   UNL     1       1.074   3.498  -0.085  0.00  0.00    -0.444 OA
ATOM     10  C   UNL     1       0.093   0.002   0.130  0.00  0.00    +0.164 C 
ATOM     11  O   UNL     1      -0.936  -0.640   0.200  0.00  0.00    -0.292 OA
ATOM     12  C   UNL     1       1.414  -0.717   0.105  0.00  0.00    +0.086 C 
ATOM     13  C   UNL     1       3.855  -0.482   0.605  0.00  0.00    +0.012 C 
ENDROOT
BRANCH   6  14
ATOM     14  C   UNL     1      -1.999   1.958  -1.211  0.00  0.00    -0.030 A 
ATOM     15  C   UNL     1      -1.406   2.527  -2.323  0.00  0.00    +0.008 A 
ATOM     16  C   UNL     1      -2.014   2.428  -3.561  0.00  0.00    +0.050 A 
ATOM     17  C   UNL     1      -3.225   1.767  -3.687  0.00  0.00    +0.162 A 
ATOM     18  C   UNL     1      -3.825   1.199  -2.566  0.00  0.00    +0.162 A 
ATOM     19  C   UNL     1      -3.208   1.298  -1.329  0.00  0.00    +0.054 A 
BRANCH  18  20
ATOM     20  O   UNL     1      -5.014   0.550  -2.685  0.00  0.00    -0.491 OA
ATOM     21  C   UNL     1      -5.571  -0.007  -1.492  0.00  0.00    +0.277 C 
ENDBRANCH  18  20
BRANCH  17  22
ATOM     22  O   UNL     1      -3.828   1.673  -4.902  0.00  0.00    -0.491 OA
ATOM     23  C   UNL     1      -3.155   2.279  -6.008  0.00  0.00    +0.277 C 
ENDBRANCH  17  22
ENDBRANCH   6  14
BRANCH   8  24
ATOM     24  N   UNL     1       0.073   5.470   0.736  0.00  0.00    -0.328 N 
ATOM     25  H   UNL     1       0.937   5.912   0.738  0.00  0.00    +0.145 HD
ATOM     26  H   UNL     1      -0.725   5.963   0.983  0.00  0.00    +0.145 HD
ENDBRANCH   8  24
BRANCH   7  27
ATOM     27  N   UNL     1      -2.356   4.257   1.016  0.00  0.00    +0.058 N 
ATOM     28  O   UNL     1      -3.106   4.822   0.240  0.00  0.00    -0.126 OA
ATOM     29  O   UNL     1      -2.571   4.306   2.214  0.00  0.00    -0.126 OA
ENDBRANCH   7  27
TORSDOF 5
