REMARK  Name = ZINC62355594
REMARK  10 active torsions:
REMARK  status: ('A' for Active; 'I' for Inactive)
REMARK    1  A    between atoms: C_1  and  C_2
REMARK    2  A    between atoms: C_2  and  O_3
REMARK    3  A    between atoms: O_3  and  C_4
REMARK    4  A    between atoms: C_6  and  C_14
REMARK    5  A    between atoms: C_9  and  O_10
REMARK    6  A    between atoms: O_10  and  C_11
REMARK    7  A    between atoms: C_11  and  C_12
REMARK    8  A    between atoms: C_14  and  C_16
REMARK    9  A    between atoms: C_14  and  N_21
REMARK   10  A    between atoms: N_21  and  C_22
REMARK                            x       y       z     vdW  Elec       q    Type
REMARK                         _______ _______ _______ _____ _____    ______ ____
ROOT
ATOM      1  C   UNL     1       0.802  -1.825   1.306  0.00  0.00    +0.162 A 
ATOM      2  C   UNL     1       0.261  -2.673   0.353  0.00  0.00    +0.052 A 
ATOM      3  C   UNL     1       0.372  -4.043   0.502  0.00  0.00    -0.038 A 
ATOM      4  C   UNL     1       1.023  -4.570   1.603  0.00  0.00    +0.024 A 
ATOM      5  C   UNL     1       1.565  -3.730   2.558  0.00  0.00    +0.065 A 
ATOM      6  C   UNL     1       1.462  -2.356   2.410  0.00  0.00    +0.163 A 
ATOM      7 BR   UNL     1       1.172  -6.445   1.802  0.00  0.00    -0.050 Br
ENDROOT
BRANCH   1   8
ATOM      8  O   UNL     1       0.693  -0.477   1.160  0.00  0.00    -0.489 OA
BRANCH   8  10
ATOM      9  C   UNL     1      -0.019   1.526   0.010  0.00  0.00    +0.048 C 
ATOM     10  C   UNL     1       0.002  -0.004   0.002  0.00  0.00    +0.226 C 
ENDBRANCH   8  10
ENDBRANCH   1   8
BRANCH   6  11
ATOM     11  O   UNL     1       2.001  -1.528   3.345  0.00  0.00    -0.489 OA
BRANCH  11  12
ATOM     12  C   UNL     1       2.664  -2.142   4.451  0.00  0.00    +0.226 C 
ATOM     13  C   UNL     1       3.200  -1.060   5.390  0.00  0.00    +0.048 C 
ENDBRANCH  11  12
ENDBRANCH   6  11
BRANCH   3  14
ATOM     14  C   UNL     1      -0.218  -4.963  -0.535  0.00  0.00    +0.010 C 
BRANCH  14  15
ATOM     15  C   UNL     1       0.872  -5.444  -1.458  0.00  0.00    +0.039 A 
ATOM     16  C   UNL     1       1.091  -6.767  -1.668  0.00  0.00    +0.068 A 
ATOM     17  S   UNL     1       2.459  -6.696  -2.814  0.00  0.00    -0.084 S 
ATOM     18  C   UNL     1       2.601  -5.021  -2.901  0.00  0.00    +0.156 A 
ATOM     19  N   UNL     1       1.651  -4.599  -2.103  0.00  0.00    -0.254 NA
ENDBRANCH  14  15
BRANCH  14  20
ATOM     20  N   UNL     1      -1.233  -4.238  -1.312  0.00  0.00    +0.385 N 
ATOM     21  C   UNL     1      -1.892  -5.165  -2.241  0.00  0.00    -0.099 C 
ATOM     22  H   UNL     1      -1.920  -3.846  -0.685  0.00  0.00    -0.085 HD
ATOM     23  H   UNL     1      -0.791  -3.496  -1.833  0.00  0.00    -0.085 HD
ENDBRANCH  14  20
ENDBRANCH   3  14
TORSDOF 7
