REMARK  Name = ZINC41644464
REMARK  5 active torsions:
REMARK  status: ('A' for Active; 'I' for Inactive)
REMARK    1  A    between atoms: C_1  and  C_2
REMARK    2  A    between atoms: C_11  and  C_12
REMARK    3  A    between atoms: N_21  and  C_24
REMARK    4  A    between atoms: C_24  and  C_25
REMARK    5  A    between atoms: C_25  and  C_26
REMARK                            x       y       z     vdW  Elec       q    Type
REMARK                         _______ _______ _______ _____ _____    ______ ____
ROOT
ATOM      1  C   UNL     1      -1.607   1.436   0.269  0.00  0.00    +0.045 C 
ATOM      2  C   UNL     1      -1.289  -0.035   0.189  0.00  0.00    -0.033 A 
ATOM      3  C   UNL     1      -1.391  -0.693  -1.003  0.00  0.00    +0.050 A 
ATOM      4  C   UNL     1      -1.097  -2.054  -1.083  0.00  0.00    +0.131 A 
ATOM      5  C   UNL     1      -0.698  -2.752   0.043  0.00  0.00    +0.051 A 
ATOM      6  C   UNL     1      -0.591  -2.097   1.266  0.00  0.00    +0.148 A 
ATOM      7  C   UNL     1      -0.884  -0.726   1.331  0.00  0.00    +0.071 A 
ATOM      8  C   UNL     1      -0.672  -0.322   2.733  0.00  0.00    +0.232 C 
ATOM      9  O   UNL     1      -0.820   0.785   3.221  0.00  0.00    -0.283 OA
ATOM     10  C   UNL     1      -0.244  -1.556   3.412  0.00  0.00    +0.176 C 
ATOM     11  C   UNL     1       0.068  -1.681   4.726  0.00  0.00    +0.058 C 
ATOM     12  O   UNL     1      -0.231  -2.546   2.488  0.00  0.00    -0.451 OA
ATOM     13  C   UNL     1      -0.369  -4.221  -0.032  0.00  0.00    +0.130 C 
ATOM     14  N   UNL     1      -0.930  -4.788  -1.267  0.00  0.00    -0.266 NA
ATOM     15  C   UNL     1      -0.567  -3.949  -2.421  0.00  0.00    +0.318 C 
ATOM     16  O   UNL     1      -1.212  -2.681  -2.284  0.00  0.00    -0.476 OA
ENDROOT
BRANCH  11  17
ATOM     17  C   UNL     1       0.171  -0.486   5.574  0.00  0.00    -0.021 A 
ATOM     18  C   UNL     1      -0.317  -0.510   6.886  0.00  0.00    +0.009 A 
ATOM     19  C   UNL     1      -0.217   0.615   7.675  0.00  0.00    +0.020 A 
ATOM     20  C   UNL     1       0.364   1.768   7.173  0.00  0.00    +0.041 A 
ATOM     21  C   UNL     1       0.848   1.801   5.875  0.00  0.00    +0.020 A 
ATOM     22  C   UNL     1       0.760   0.682   5.075  0.00  0.00    +0.009 A 
ATOM     23 CL   UNL     1       0.484   3.181   8.175  0.00  0.00    -0.084 Cl
ENDBRANCH  11  17
BRANCH  14  24
ATOM     24  C   UNL     1      -0.481  -6.174  -1.461  0.00  0.00    +0.092 C 
BRANCH  24  25
ATOM     25  C   UNL     1      -1.271  -6.810  -2.607  0.00  0.00    +0.050 C 
BRANCH  25  26
ATOM     26  C   UNL     1      -0.810  -8.231  -2.806  0.00  0.00    -0.046 A 
ATOM     27  C   UNL     1       0.231  -8.504  -3.673  0.00  0.00    +0.006 A 
ATOM     28  C   UNL     1       0.655  -9.807  -3.856  0.00  0.00    +0.038 A 
ATOM     29  C   UNL     1       0.035 -10.838  -3.171  0.00  0.00    +0.123 A 
ATOM     30  C   UNL     1      -1.008 -10.563  -2.303  0.00  0.00    +0.038 A 
ATOM     31  C   UNL     1      -1.426  -9.259  -2.118  0.00  0.00    +0.006 A 
ATOM     32  F   UNL     1       0.448 -12.112  -3.350  0.00  0.00    -0.205 F 
ENDBRANCH  25  26
ENDBRANCH  24  25
ENDBRANCH  14  24
TORSDOF 4
