REMARK  Name = ZINC37577585
REMARK  10 active torsions:
REMARK  status: ('A' for Active; 'I' for Inactive)
REMARK    1  A    between atoms: C_1  and  C_2
REMARK    2  A    between atoms: C_2  and  C_3
REMARK    3  A    between atoms: C_3  and  C_4
REMARK    4  A    between atoms: C_4  and  C_6
REMARK    5  A    between atoms: C_4  and  N_7
REMARK    6  A    between atoms: N_7  and  S_8
REMARK    7  A    between atoms: S_8  and  C_11
REMARK    8  A    between atoms: C_14  and  C_18
REMARK    9  A    between atoms: C_19  and  C_20
REMARK   10  A    between atoms: C_20  and  O_21
REMARK                            x       y       z     vdW  Elec       q    Type
REMARK                         _______ _______ _______ _____ _____    ______ ____
ROOT
ATOM      1  C   UNL     1      -0.454  -3.594  -1.452  0.00  0.00    +0.142 A 
ATOM      2  C   UNL     1      -1.618  -3.864  -0.751  0.00  0.00    +0.070 A 
ATOM      3  C   UNL     1      -2.848  -3.628  -1.334  0.00  0.00    +0.039 A 
ATOM      4  C   UNL     1      -2.916  -3.117  -2.630  0.00  0.00    +0.028 A 
ATOM      5  C   UNL     1      -1.740  -2.847  -3.331  0.00  0.00    +0.039 A 
ATOM      6  C   UNL     1      -0.516  -3.082  -2.736  0.00  0.00    +0.070 A 
ATOM      7 CL   UNL     1       0.948  -2.741  -3.604  0.00  0.00    -0.081 Cl
ATOM      8 CL   UNL     1      -1.530  -4.499   0.862  0.00  0.00    -0.081 Cl
ENDROOT
BRANCH   1   9
ATOM      9  S   UNL     1       1.111  -3.897  -0.702  0.00  0.00    +0.061 S 
ATOM     10  O   UNL     1       2.042  -4.071  -1.762  0.00  0.00    -0.153 OA
ATOM     11  O   UNL     1       0.899  -4.887   0.295  0.00  0.00    -0.153 OA
BRANCH   9  12
ATOM     12  N   UNL     1       1.551  -2.512   0.092  0.00  0.00    -0.187 NA
ATOM     13  H   UNL     1       2.330  -2.013  -0.199  0.00  0.00    +0.148 HD
BRANCH  12  14
ATOM     14  C   UNL     1       0.763  -2.041   1.233  0.00  0.00    +0.073 C 
ATOM     15  C   UNL     1       1.392  -2.549   2.532  0.00  0.00    +0.025 C 
BRANCH  14  16
ATOM     16  C   UNL     1       0.742  -0.511   1.242  0.00  0.00    +0.020 C 
BRANCH  16  18
ATOM     17  C   UNL     1      -0.019   1.526   0.010  0.00  0.00    +0.004 C 
ATOM     18  C   UNL     1       0.002  -0.004   0.002  0.00  0.00    -0.002 C 
ENDBRANCH  16  18
ENDBRANCH  14  16
ENDBRANCH  12  14
ENDBRANCH   9  12
ENDBRANCH   1   9
BRANCH   4  19
ATOM     19  C   UNL     1      -4.188  -2.871  -3.240  0.00  0.00    -0.064 C 
ATOM     20  C   UNL     1      -5.231  -2.669  -3.739  0.00  0.00    -0.069 C 
BRANCH  20  21
ATOM     21  C   UNL     1      -6.539  -2.416  -4.365  0.00  0.00    +0.244 C 
BRANCH  21  22
ATOM     22  O   UNL     1      -6.344  -1.898  -5.683  0.00  0.00    -0.383 OA
ATOM     23  H   UNL     1      -7.166  -1.708  -6.156  0.00  0.00    +0.211 HD
ENDBRANCH  21  22
ENDBRANCH  20  21
ENDBRANCH   4  19
TORSDOF 8
