REMARK  Name = ZINC55148485
REMARK  4 active torsions:
REMARK  status: ('A' for Active; 'I' for Inactive)
REMARK    1  A    between atoms: C_1  and  C_2
REMARK    2  A    between atoms: C_5  and  N_8
REMARK    3  A    between atoms: C_12  and  N_16
REMARK    4  A    between atoms: C_20  and  C_23
REMARK                            x       y       z     vdW  Elec       q    Type
REMARK                         _______ _______ _______ _____ _____    ______ ____
ROOT
ATOM      1  N   UNL     1       0.059  -4.172  -0.021  0.00  0.00    -0.209 N 
ATOM      2  C   UNL     1      -0.030  -4.892  -1.146  0.00  0.00    +0.228 C 
ATOM      3  O   UNL     1      -0.134  -4.436  -2.265  0.00  0.00    -0.275 OA
ATOM      4  C   UNL     1       0.020  -6.364  -0.801  0.00  0.00    +0.125 C 
ATOM      5  C   UNL     1       0.155  -6.371   0.735  0.00  0.00    +0.153 C 
ATOM      6  C   UNL     1       0.172  -4.902   1.096  0.00  0.00    +0.244 C 
ATOM      7  O   UNL     1       0.271  -4.455   2.219  0.00  0.00    -0.273 OA
ENDROOT
BRANCH   1  12
ATOM      8  C   UNL     1      -0.016   1.503   0.009  0.00  0.00    +0.044 C 
ATOM      9  C   UNL     1       0.004  -0.004   0.001  0.00  0.00    -0.050 A 
ATOM     10  C   UNL     1       1.156  -0.681   0.357  0.00  0.00    +0.005 A 
ATOM     11  C   UNL     1       1.177  -2.062   0.351  0.00  0.00    +0.024 A 
ATOM     12  C   UNL     1       0.040  -2.771  -0.013  0.00  0.00    +0.044 A 
ATOM     13  C   UNL     1      -1.115  -2.088  -0.370  0.00  0.00    +0.024 A 
ATOM     14  C   UNL     1      -1.132  -0.707  -0.357  0.00  0.00    +0.005 A 
ENDBRANCH   1  12
BRANCH   5  15
ATOM     15  N   UNL     1       1.411  -7.016   1.141  0.00  0.00    -0.286 NA
ATOM     16  C   UNL     1       1.501  -8.380   0.599  0.00  0.00    +0.113 C 
ATOM     17  C   UNL     1       2.847  -8.992   0.995  0.00  0.00    +0.176 C 
ATOM     18  O   UNL     1       2.977  -8.966   2.420  0.00  0.00    -0.369 OA
ATOM     19  C   UNL     1       2.894  -7.653   2.981  0.00  0.00    +0.162 C 
ATOM     20  C   UNL     1       1.548  -7.027   2.605  0.00  0.00    +0.121 C 
BRANCH  19  21
ATOM     21  C   UNL     1       3.008  -7.740   4.481  0.00  0.00    -0.018 A 
ATOM     22  C   UNL     1       2.469  -8.821   5.154  0.00  0.00    +0.007 A 
ATOM     23  C   UNL     1       2.574  -8.901   6.530  0.00  0.00    +0.020 A 
ATOM     24  C   UNL     1       3.217  -7.898   7.234  0.00  0.00    +0.041 A 
ATOM     25  C   UNL     1       3.755  -6.816   6.560  0.00  0.00    +0.020 A 
ATOM     26  C   UNL     1       3.655  -6.740   5.184  0.00  0.00    +0.007 A 
ATOM     27 CL   UNL     1       3.348  -7.997   8.962  0.00  0.00    -0.084 Cl
ENDBRANCH  19  21
ENDBRANCH   5  15
TORSDOF 3
