REMARK  Name = ZINC42947680
REMARK  8 active torsions:
REMARK  status: ('A' for Active; 'I' for Inactive)
REMARK    1  A    between atoms: C_1  and  C_2
REMARK    2  A    between atoms: C_2  and  C_3
REMARK    3  A    between atoms: C_3  and  C_5
REMARK    4  A    between atoms: C_3  and  N_21
REMARK    5  A    between atoms: C_5  and  C_7
REMARK    6  A    between atoms: C_5  and  N_14
REMARK    7  A    between atoms: C_15  and  C_20
REMARK    8  A    between atoms: C_17  and  C_19
REMARK                            x       y       z     vdW  Elec       q    Type
REMARK                         _______ _______ _______ _____ _____    ______ ____
ROOT
ATOM      1  C   UNL     1       0.655  -2.037   1.299  0.00  0.00    +0.125 C 
ENDROOT
BRANCH   1   2
ATOM      2  C   UNL     1      -0.790  -2.456   1.371  0.00  0.00    -0.025 A 
ATOM      3  C   UNL     1      -1.581  -2.032   2.422  0.00  0.00    +0.007 A 
ATOM      4  C   UNL     1      -2.907  -2.416   2.489  0.00  0.00    +0.020 A 
ATOM      5  C   UNL     1      -3.443  -3.224   1.502  0.00  0.00    +0.041 A 
ATOM      6  C   UNL     1      -2.652  -3.648   0.450  0.00  0.00    +0.020 A 
ATOM      7  C   UNL     1      -1.327  -3.259   0.382  0.00  0.00    +0.007 A 
ATOM      8 CL   UNL     1      -5.109  -3.707   1.586  0.00  0.00    -0.084 Cl
ENDBRANCH   1   2
BRANCH   1   9
ATOM      9  N   UNL     1       1.364  -2.523   2.486  0.00  0.00    -0.243 N 
ATOM     10  C   UNL     1       2.419  -3.355   2.510  0.00  0.00    +0.126 A 
ATOM     11  N   UNL     1       2.759  -3.544   3.759  0.00  0.00    -0.217 NA
ATOM     12  C   UNL     1       1.947  -2.852   4.558  0.00  0.00    +0.148 A 
ATOM     13  N   UNL     1       1.079  -2.206   3.824  0.00  0.00    -0.155 NA
ATOM     14  C   UNL     1       2.022  -2.815   6.062  0.00  0.00    +0.090 C 
ATOM     15  C   UNL     1       3.093  -3.965   1.307  0.00  0.00    +0.088 C 
ENDBRANCH   1   9
BRANCH   1  16
ATOM     16  C   UNL     1       0.742  -0.511   1.242  0.00  0.00    -0.046 C 
BRANCH  16  17
ATOM     17  N   UNL     1       2.151  -0.103   1.171  0.00  0.00    +0.382 N 
ATOM     18  H   UNL     1       2.209   0.904   1.134  0.00  0.00    -0.090 HD
ATOM     19  H   UNL     1       2.639  -0.437   1.989  0.00  0.00    -0.090 HD
ATOM     20  H   UNL     1       2.574  -0.495   0.344  0.00  0.00    -0.090 HD
ENDBRANCH  16  17
BRANCH  16  22
ATOM     21  C   UNL     1      -0.019   1.526   0.010  0.00  0.00    +0.002 C 
ATOM     22  C   UNL     1       0.002  -0.004   0.002  0.00  0.00    -0.017 C 
ENDBRANCH  16  22
ENDBRANCH   1  16
TORSDOF 5
