REMARK  Name = ZINC09452772
REMARK  4 active torsions:
REMARK  status: ('A' for Active; 'I' for Inactive)
REMARK    1  A    between atoms: C_3  and  S_21
REMARK    2  A    between atoms: C_6  and  N_7
REMARK    3  A    between atoms: C_8  and  C_10
REMARK    4  A    between atoms: S_21  and  N_24
REMARK                            x       y       z     vdW  Elec       q    Type
REMARK                         _______ _______ _______ _____ _____    ______ ____
ROOT
ATOM      1  C   UNL     1       3.891   5.640  -0.185  0.00  0.00    +0.025 A 
ATOM      2  C   UNL     1       4.610   6.815  -0.280  0.00  0.00    +0.030 A 
ATOM      3  C   UNL     1       3.954   8.032  -0.261  0.00  0.00    +0.109 A 
ATOM      4  C   UNL     1       2.576   8.077  -0.152  0.00  0.00    +0.030 A 
ATOM      5  C   UNL     1       1.850   6.905  -0.062  0.00  0.00    +0.025 A 
ATOM      6  C   UNL     1       2.506   5.681  -0.081  0.00  0.00    +0.034 A 
ENDROOT
BRANCH   6   7
ATOM      7  N   UNL     1       1.775   4.493   0.010  0.00  0.00    -0.281 N 
ATOM      8  C   UNL     1       0.558   4.405  -0.564  0.00  0.00    +0.256 C 
ATOM      9  O   UNL     1       0.060   5.384  -1.088  0.00  0.00    -0.269 OA
ATOM     10  H   UNL     1       2.143   3.732   0.486  0.00  0.00    +0.155 HD
BRANCH   8  11
ATOM     11  C   UNL     1      -0.166   3.128  -0.556  0.00  0.00    +0.094 A 
ATOM     12  C   UNL     1      -1.390   2.845  -1.079  0.00  0.00    +0.068 A 
ATOM     13  C   UNL     1      -1.916   1.544  -0.967  0.00  0.00    +0.008 A 
ATOM     14  C   UNL     1      -3.161   1.057  -1.442  0.00  0.00    +0.012 A 
ATOM     15  C   UNL     1      -3.520  -0.238  -1.250  0.00  0.00    +0.021 A 
ATOM     16  C   UNL     1      -2.689  -1.134  -0.584  0.00  0.00    +0.042 A 
ATOM     17  C   UNL     1      -1.468  -0.700  -0.105  0.00  0.00    +0.035 A 
ATOM     18  C   UNL     1      -1.091   0.612  -0.294  0.00  0.00    +0.023 A 
ATOM     19  S   UNL     1       0.342   1.566   0.140  0.00  0.00    -0.082 S 
ATOM     20 CL   UNL     1      -3.182  -2.782  -0.357  0.00  0.00    -0.084 Cl
ATOM     21 CL   UNL     1      -2.302   4.085  -1.882  0.00  0.00    -0.082 Cl
ENDBRANCH   8  11
ENDBRANCH   6   7
BRANCH   3  22
ATOM     22  S   UNL     1       4.876   9.529  -0.375  0.00  0.00    +0.073 S 
ATOM     23  O   UNL     1       6.101   9.204  -1.017  0.00  0.00    -0.150 OA
ATOM     24  O   UNL     1       3.988  10.515  -0.884  0.00  0.00    -0.150 OA
BRANCH  22  25
ATOM     25  N   UNL     1       5.258   9.989   1.169  0.00  0.00    -0.205 N 
ATOM     26  C   UNL     1       6.089   9.210   1.930  0.00  0.00    +0.088 C 
ATOM     27  C   UNL     1       7.464   7.281   2.243  0.00  0.00    +0.113 C 
ATOM     28  C   UNL     1       6.641   6.573   3.321  0.00  0.00    +0.021 C 
ATOM     29  C   UNL     1       6.513   7.444   4.559  0.00  0.00    +0.002 C 
ATOM     30  C   UNL     1       5.707   8.711   4.321  0.00  0.00    +0.007 C 
ATOM     31  C   UNL     1       6.439   9.637   3.338  0.00  0.00    +0.070 C 
ATOM     32  H   UNL     1       4.892  10.809   1.536  0.00  0.00    +0.175 HD
ATOM     33  N   UNL     1       6.548   8.111   1.373  0.00  0.00    -0.375 N 
ATOM     34  H   UNL     1       6.303   7.836   0.415  0.00  0.00    +0.161 HD
ENDBRANCH  22  25
ENDBRANCH   3  22
TORSDOF 4
