REMARK  Name = ZINC18948271
REMARK  3 active torsions:
REMARK  status: ('A' for Active; 'I' for Inactive)
REMARK    1  A    between atoms: C_7  and  N_18
REMARK    2  A    between atoms: C_8  and  C_10
REMARK    3  A    between atoms: C_19  and  C_21
REMARK                            x       y       z     vdW  Elec       q    Type
REMARK                         _______ _______ _______ _____ _____    ______ ____
ROOT
ATOM      1  C   UNL     1       0.089   1.149   0.626  0.00  0.00    +0.001 A 
ATOM      2  C   UNL     1      -1.144   1.785   0.618  0.00  0.00    +0.004 A 
ATOM      3  C   UNL     1      -1.233   3.145   0.413  0.00  0.00    +0.047 A 
ATOM      4  C   UNL     1      -0.079   3.890   0.200  0.00  0.00    +0.138 A 
ATOM      5  C   UNL     1       1.167   3.238   0.203  0.00  0.00    +0.042 A 
ATOM      6  C   UNL     1       1.237   1.861   0.419  0.00  0.00    +0.013 A 
ATOM      7  C   UNL     1       2.166   4.285  -0.046  0.00  0.00    +0.092 A 
ATOM      8  C   UNL     1       1.462   5.451  -0.176  0.00  0.00    +0.212 A 
ATOM      9  O   UNL     1       0.142   5.200  -0.029  0.00  0.00    -0.448 OA
ENDROOT
BRANCH   8  10
ATOM     10  C   UNL     1       2.047   6.764  -0.435  0.00  0.00    +0.284 C 
ATOM     11  O   UNL     1       3.256   6.906  -0.422  0.00  0.00    -0.267 OA
ATOM     12  N   UNL     1       1.248   7.820  -0.689  0.00  0.00    -0.291 N 
ATOM     13  C   UNL     1      -0.206   7.650  -0.841  0.00  0.00    +0.136 C 
ATOM     14  C   UNL     1      -0.906   8.670   0.071  0.00  0.00    +0.179 C 
ATOM     15  O   UNL     1      -0.388   9.974  -0.199  0.00  0.00    -0.377 OA
ATOM     16  C   UNL     1       1.007  10.120   0.080  0.00  0.00    +0.179 C 
ATOM     17  C   UNL     1       1.804   9.175  -0.827  0.00  0.00    +0.136 C 
ENDBRANCH   8  10
BRANCH   7  18
ATOM     18  N   UNL     1       3.543   4.124  -0.131  0.00  0.00    -0.277 N 
ATOM     19  C   UNL     1       4.059   2.960  -0.572  0.00  0.00    +0.255 C 
ATOM     20  O   UNL     1       3.321   2.082  -0.979  0.00  0.00    -0.269 OA
ATOM     21  H   UNL     1       4.132   4.850   0.128  0.00  0.00    +0.155 HD
BRANCH  19  22
ATOM     22  C   UNL     1       5.509   2.752  -0.561  0.00  0.00    +0.075 A 
ATOM     23  C   UNL     1       6.236   1.643  -0.966  0.00  0.00    +0.022 A 
ATOM     24  C   UNL     1       7.601   1.712  -0.849  0.00  0.00    +0.024 A 
ATOM     25  C   UNL     1       8.167   2.845  -0.350  0.00  0.00    +0.056 A 
ATOM     26  S   UNL     1       6.801   3.863  -0.031  0.00  0.00    -0.077 S 
ATOM     27 BR   UNL     1      10.000   3.220  -0.078  0.00  0.00    -0.043 Br
ENDBRANCH  19  22
ENDBRANCH   7  18
TORSDOF 3
