REMARK  Name = ZINC24007571
REMARK  9 active torsions:
REMARK  status: ('A' for Active; 'I' for Inactive)
REMARK    1  A    between atoms: C_1  and  C_2
REMARK    2  A    between atoms: C_2  and  C_3
REMARK    3  A    between atoms: N_10  and  C_11
REMARK    4  A    between atoms: C_11  and  C_12
REMARK    5  A    between atoms: C_12  and  C_13
REMARK    6  A    between atoms: C_17  and  C_19
REMARK    7  A    between atoms: C_22  and  O_27
REMARK    8  A    between atoms: C_23  and  O_25
REMARK    9  A    between atoms: O_25  and  C_26
REMARK                            x       y       z     vdW  Elec       q    Type
REMARK                         _______ _______ _______ _____ _____    ______ ____
ROOT
ATOM      1  C   UNL     1       5.720   7.588   0.043  0.00  0.00    -0.047 A 
ATOM      2  C   UNL     1       4.482   8.173  -0.172  0.00  0.00    +0.007 A 
ATOM      3  C   UNL     1       3.367   7.394  -0.405  0.00  0.00    +0.047 A 
ATOM      4  C   UNL     1       3.481   6.010  -0.426  0.00  0.00    +0.138 A 
ATOM      5  C   UNL     1       4.734   5.420  -0.209  0.00  0.00    +0.041 A 
ATOM      6  C   UNL     1       5.852   6.215   0.025  0.00  0.00    +0.017 A 
ATOM      7  C   UNL     1       4.832   3.942  -0.236  0.00  0.00    +0.050 A 
ATOM      8  N   UNL     1       5.978   3.329  -0.040  0.00  0.00    -0.383 N 
ATOM      9  C   UNL     1       3.633   3.214  -0.484  0.00  0.00    +0.072 A 
ATOM     10  C   UNL     1       2.474   3.888  -0.681  0.00  0.00    +0.138 A 
ATOM     11  O   UNL     1       2.403   5.230  -0.658  0.00  0.00    -0.455 OA
ATOM     12  H   UNL     1       6.907   3.912   0.047  0.00  0.00    +0.160 HD
ENDROOT
BRANCH  10  13
ATOM     13  C   UNL     1       1.242   3.117  -0.936  0.00  0.00    +0.021 A 
ATOM     14  C   UNL     1       1.283   1.721  -0.972  0.00  0.00    +0.015 A 
ATOM     15  C   UNL     1       0.131   1.003  -1.212  0.00  0.00    +0.050 A 
ATOM     16  C   UNL     1      -1.071   1.664  -1.424  0.00  0.00    +0.158 A 
ATOM     17  C   UNL     1      -1.121   3.056  -1.384  0.00  0.00    +0.162 A 
ATOM     18  C   UNL     1       0.030   3.782  -1.144  0.00  0.00    +0.061 A 
BRANCH  17  19
ATOM     19  O   UNL     1      -2.301   3.700  -1.586  0.00  0.00    -0.491 OA
ATOM     20  C   UNL     1      -2.278   5.128  -1.536  0.00  0.00    +0.277 C 
ENDBRANCH  17  19
BRANCH  16  21
ATOM     21  O   UNL     1      -2.202   0.952  -1.665  0.00  0.00    -0.503 OA
ATOM     22  H   UNL     1      -3.155   1.474  -1.833  0.00  0.00    +0.292 HD
ENDBRANCH  16  21
ENDBRANCH  10  13
BRANCH   1  24
ATOM     23  C   UNL     1       7.068   8.705   1.799  0.00  0.00    +0.009 C 
ATOM     24  C   UNL     1       6.926   8.455   0.296  0.00  0.00    +0.032 C 
ENDBRANCH   1  24
BRANCH   8  25
ATOM     25  C   UNL     1       6.018   1.868   0.062  0.00  0.00    +0.124 C 
BRANCH  25  26
ATOM     26  C   UNL     1       6.797   1.294  -1.123  0.00  0.00    +0.146 C 
BRANCH  26  27
ATOM     27  C   UNL     1       6.838  -0.208  -1.018  0.00  0.00    +0.358 C 
ATOM     28  O   UNL     1       6.300  -0.764  -0.090  0.00  0.00    -0.246 OA
ATOM     29  O   UNL     1       7.473  -0.930  -1.955  0.00  0.00    -0.246 OA
ENDBRANCH  26  27
ENDBRANCH  25  26
ENDBRANCH   8  25
TORSDOF 7
