REMARK  Name = ZINC04083952
REMARK  9 active torsions:
REMARK  status: ('A' for Active; 'I' for Inactive)
REMARK    1  A    between atoms: C_1  and  C_2
REMARK    2  A    between atoms: C_7  and  O_10
REMARK    3  A    between atoms: O_10  and  C_11
REMARK    4  A    between atoms: C_11  and  C_13
REMARK    5  A    between atoms: C_14  and  C_31
REMARK    6  A    between atoms: C_19  and  C_21
REMARK    7  A    between atoms: C_23  and  O_29
REMARK    8  A    between atoms: C_24  and  O_28
REMARK    9  A    between atoms: O_29  and  C_30
REMARK                            x       y       z     vdW  Elec       q    Type
REMARK                         _______ _______ _______ _____ _____    ______ ____
ROOT
ATOM      1  C   UNL     1      -1.704  -4.159   1.986  0.00  0.00    +0.078 C 
ATOM      2  C   UNL     1      -2.021  -5.348   2.541  0.00  0.00    +0.021 C 
ATOM      3  N   UNL     1      -3.320  -5.757   2.640  0.00  0.00    -0.273 N 
ATOM      4  C   UNL     1      -4.360  -5.035   2.206  0.00  0.00    +0.304 C 
ATOM      5  O   UNL     1      -5.483  -5.483   2.338  0.00  0.00    -0.252 OA
ATOM      6  N   UNL     1      -4.204  -3.827   1.629  0.00  0.00    -0.288 N 
ATOM      7  C   UNL     1      -2.840  -3.292   1.481  0.00  0.00    +0.144 C 
ATOM      8  C   UNL     1      -0.922  -6.240   3.061  0.00  0.00    +0.061 C 
ATOM      9  H   UNL     1      -3.499  -6.619   3.047  0.00  0.00    +0.156 HD
ATOM     10  H   UNL     1      -4.972  -3.320   1.322  0.00  0.00    +0.151 HD
ENDROOT
BRANCH   7  11
ATOM     11  C   UNL     1      -2.607  -3.027   0.016  0.00  0.00    -0.018 A 
ATOM     12  C   UNL     1      -2.175  -1.781  -0.399  0.00  0.00    +0.055 A 
ATOM     13  C   UNL     1      -1.960  -1.535  -1.745  0.00  0.00    +0.163 A 
ATOM     14  C   UNL     1      -2.179  -2.544  -2.678  0.00  0.00    +0.173 A 
ATOM     15  C   UNL     1      -2.612  -3.791  -2.256  0.00  0.00    +0.063 A 
ATOM     16  C   UNL     1      -2.820  -4.031  -0.909  0.00  0.00    +0.025 A 
ATOM     17 BR   UNL     1      -2.912  -5.166  -3.519  0.00  0.00    -0.046 Br
BRANCH  14  18
ATOM     18  O   UNL     1      -1.970  -2.307  -4.001  0.00  0.00    -0.503 OA
ATOM     19  H   UNL     1      -1.070  -2.501  -4.297  0.00  0.00    +0.292 HD
ENDBRANCH  14  18
BRANCH  13  20
ATOM     20  O   UNL     1      -1.535  -0.309  -2.155  0.00  0.00    -0.491 OA
ATOM     21  C   UNL     1      -1.213   0.640  -1.136  0.00  0.00    +0.277 C 
ENDBRANCH  13  20
ENDBRANCH   7  11
BRANCH   1  22
ATOM     22  C   UNL     1      -0.359  -3.734   1.883  0.00  0.00    +0.339 C 
ATOM     23  O   UNL     1       0.092  -2.941   2.688  0.00  0.00    -0.245 OA
BRANCH  22  24
ATOM     24  O   UNL     1       0.425  -4.208   0.892  0.00  0.00    -0.458 OA
BRANCH  24  30
ATOM     25  C   UNL     1       2.723  -5.133  -2.599  0.00  0.00    +0.007 C 
ATOM     26  C   UNL     1       2.206  -5.159  -1.159  0.00  0.00    -0.011 C 
ATOM     27  C   UNL     1       3.050  -6.131  -0.332  0.00  0.00    +0.003 C 
ATOM     28  C   UNL     1       2.533  -6.156   1.108  0.00  0.00    +0.004 C 
ATOM     29  C   UNL     1       2.632  -4.753   1.710  0.00  0.00    +0.045 C 
ATOM     30  C   UNL     1       1.788  -3.782   0.883  0.00  0.00    +0.177 C 
ATOM     31  C   UNL     1       2.305  -3.756  -0.557  0.00  0.00    +0.048 C 
ENDBRANCH  24  30
ENDBRANCH  22  24
ENDBRANCH   1  22
TORSDOF 6
