REMARK  Name = ZINC64008879
REMARK  5 active torsions:
REMARK  status: ('A' for Active; 'I' for Inactive)
REMARK    1  A    between atoms: C_1  and  C_2
REMARK    2  A    between atoms: N_11  and  C_12
REMARK    3  A    between atoms: C_12  and  C_13
REMARK    4  A    between atoms: C_13  and  N_14
REMARK    5  A    between atoms: C_15  and  C_17
REMARK                            x       y       z     vdW  Elec       q    Type
REMARK                         _______ _______ _______ _____ _____    ______ ____
ROOT
ATOM      1  N   UNL     1       3.545   1.265   2.811  0.00  0.00    -0.313 N 
ATOM      2  C   UNL     1       3.853   2.332   3.574  0.00  0.00    +0.229 C 
ATOM      3  O   UNL     1       2.976   3.082   3.950  0.00  0.00    -0.275 OA
ATOM      4  H   UNL     1       4.246   0.666   2.510  0.00  0.00    +0.149 HD
ENDROOT
BRANCH   2   5
ATOM      5  C   UNL     1       5.285   2.595   3.960  0.00  0.00    +0.184 C 
ATOM      6  C   UNL     1       5.305   3.794   4.888  0.00  0.00    +0.004 C 
ATOM      7  C   UNL     1       6.056   4.867   4.506  0.00  0.00    -0.007 A 
ATOM      8  C   UNL     1       6.130   6.066   5.342  0.00  0.00    +0.009 A 
ATOM      9  C   UNL     1       6.890   7.110   4.922  0.00  0.00    +0.001 A 
ATOM     10  C   UNL     1       7.594   7.059   3.718  0.00  0.00    +0.002 A 
ATOM     11  C   UNL     1       7.566   5.975   2.899  0.00  0.00    +0.024 A 
ATOM     12  C   UNL     1       6.809   4.840   3.241  0.00  0.00    +0.040 A 
ATOM     13  N   UNL     1       6.790   3.783   2.429  0.00  0.00    -0.284 N 
ATOM     14  C   UNL     1       6.099   2.686   2.689  0.00  0.00    +0.233 C 
ATOM     15  O   UNL     1       6.120   1.753   1.909  0.00  0.00    -0.274 OA
ATOM     16  H   UNL     1       7.306   3.821   1.609  0.00  0.00    +0.155 HD
ENDBRANCH   2   5
BRANCH   1  17
ATOM     17  C   UNL     1       2.152   1.010   2.435  0.00  0.00    +0.123 C 
BRANCH  17  18
ATOM     18  C   UNL     1       2.079  -0.253   1.574  0.00  0.00    +0.125 C 
BRANCH  18  28
ATOM     19  C   UNL     1      -0.019   1.526   0.010  0.00  0.00    +0.049 C 
ATOM     20  C   UNL     1       0.002  -0.004   0.002  0.00  0.00    +0.155 C 
ATOM     21  N   UNL     1      -1.367  -0.530   0.072  0.00  0.00    -0.325 N 
ATOM     22  C   UNL     1      -1.462  -1.292   1.245  0.00  0.00    +0.050 A 
ATOM     23  C   UNL     1      -2.533  -2.000   1.777  0.00  0.00    +0.025 A 
ATOM     24  C   UNL     1      -2.388  -2.688   2.966  0.00  0.00    +0.002 A 
ATOM     25  C   UNL     1      -1.176  -2.675   3.632  0.00  0.00    +0.002 A 
ATOM     26  C   UNL     1      -0.106  -1.975   3.111  0.00  0.00    +0.025 A 
ATOM     27  C   UNL     1      -0.242  -1.279   1.915  0.00  0.00    +0.052 A 
ATOM     28  N   UNL     1       0.686  -0.508   1.199  0.00  0.00    -0.309 N 
ATOM     29  H   UNL     1      -2.075  -0.377  -0.573  0.00  0.00    +0.148 HD
ENDBRANCH  18  28
ENDBRANCH  17  18
ENDBRANCH   1  17
TORSDOF 4
