REMARK  Name = ZINC39394753
REMARK  10 active torsions:
REMARK  status: ('A' for Active; 'I' for Inactive)
REMARK    1  A    between atoms: C_1  and  C_2
REMARK    2  A    between atoms: C_4  and  C_9
REMARK    3  A    between atoms: C_5  and  C_8
REMARK    4  A    between atoms: C_9  and  N_10
REMARK    5  A    between atoms: N_10  and  C_11
REMARK    6  A    between atoms: C_11  and  C_12
REMARK    7  A    between atoms: N_15  and  C_26
REMARK    8  A    between atoms: C_17  and  C_18
REMARK    9  A    between atoms: C_21  and  O_24
REMARK   10  A    between atoms: O_24  and  C_25
REMARK                            x       y       z     vdW  Elec       q    Type
REMARK                         _______ _______ _______ _____ _____    ______ ____
ROOT
ATOM      1  C   UNL     1      -4.971   2.369  -1.210  0.00  0.00    +0.042 C 
ATOM      2  C   UNL     1      -6.145   2.714  -2.148  0.00  0.00    +0.140 C 
ATOM      3  N   UNL     1      -7.293   2.832  -1.236  0.00  0.00    -0.221 N 
ATOM      4  N   UNL     1      -6.862   2.590   0.066  0.00  0.00    -0.183 NA
ATOM      5  C   UNL     1      -5.600   2.330   0.165  0.00  0.00    +0.069 C 
ENDROOT
BRANCH   3   6
ATOM      6  C   UNL     1      -8.603   3.136  -1.615  0.00  0.00    +0.087 A 
ATOM      7  C   UNL     1      -9.248   2.365  -2.573  0.00  0.00    +0.028 A 
ATOM      8  C   UNL     1     -10.543   2.669  -2.945  0.00  0.00    +0.002 A 
ATOM      9  C   UNL     1     -11.198   3.740  -2.365  0.00  0.00    +0.003 A 
ATOM     10  C   UNL     1     -10.561   4.511  -1.411  0.00  0.00    +0.040 A 
ATOM     11  C   UNL     1      -9.267   4.209  -1.028  0.00  0.00    +0.146 A 
ATOM     12  F   UNL     1      -8.646   4.959  -0.091  0.00  0.00    -0.203 F 
ENDBRANCH   3   6
BRANCH   5  13
ATOM     13  C   UNL     1      -4.883   2.039   1.420  0.00  0.00    -0.002 A 
ATOM     14  C   UNL     1      -3.491   1.923   1.421  0.00  0.00    +0.013 A 
ATOM     15  C   UNL     1      -2.825   1.651   2.597  0.00  0.00    +0.046 A 
ATOM     16  C   UNL     1      -3.536   1.494   3.780  0.00  0.00    +0.120 A 
ATOM     17  C   UNL     1      -4.920   1.609   3.783  0.00  0.00    +0.046 A 
ATOM     18  C   UNL     1      -5.594   1.886   2.614  0.00  0.00    +0.013 A 
BRANCH  16  19
ATOM     19  O   UNL     1      -2.876   1.226   4.937  0.00  0.00    -0.495 OA
ATOM     20  C   UNL     1      -3.668   1.076   6.116  0.00  0.00    +0.277 C 
ENDBRANCH  16  19
ENDBRANCH   5  13
BRANCH   1  21
ATOM     21  C   UNL     1      -4.380   1.004  -1.568  0.00  0.00    -0.071 C 
BRANCH  21  22
ATOM     22  N   UNL     1      -3.666   1.101  -2.848  0.00  0.00    +0.382 N 
ATOM     23  H   UNL     1      -2.972   1.831  -2.792  0.00  0.00    -0.085 HD
ATOM     24  H   UNL     1      -4.322   1.317  -3.584  0.00  0.00    -0.085 HD
BRANCH  22  25
ATOM     25  C   UNL     1      -3.008  -0.179  -3.140  0.00  0.00    -0.047 C 
BRANCH  25  28
ATOM     26  C   UNL     1      -3.931   0.725  -6.156  0.00  0.00    +0.039 C 
ATOM     27  C   UNL     1      -2.829  -0.292  -5.851  0.00  0.00    +0.151 C 
ATOM     28  C   UNL     1      -2.275  -0.080  -4.453  0.00  0.00    -0.038 C 
ATOM     29  C   UNL     1      -0.990   0.214  -4.657  0.00  0.00    +0.060 C 
ATOM     30  N   UNL     1      -0.700   0.208  -5.977  0.00  0.00    -0.159 NA
ATOM     31  N   UNL     1      -1.656  -0.064  -6.713  0.00  0.00    -0.180 NA
ATOM     32  C   UNL     1       0.004   0.513  -3.564  0.00  0.00    +0.067 C 
ENDBRANCH  25  28
ENDBRANCH  22  25
ENDBRANCH  21  22
ENDBRANCH   1  21
TORSDOF 7
