REMARK  Name = ZINC35113289
REMARK  13 active torsions:
REMARK  status: ('A' for Active; 'I' for Inactive)
REMARK    1  A    between atoms: C_1  and  C_2
REMARK    2  A    between atoms: C_2  and  N_3
REMARK    3  A    between atoms: N_3  and  C_4
REMARK    4  A    between atoms: N_3  and  S_21
REMARK    5  A    between atoms: C_4  and  C_5
REMARK    6  A    between atoms: C_5  and  C_7
REMARK    7  A    between atoms: C_8  and  C_20
REMARK    8  A    between atoms: N_10  and  C_13
REMARK    9  A    between atoms: C_11  and  O_12
REMARK   10  A    between atoms: S_21  and  C_24
REMARK   11  A    between atoms: C_25  and  C_32
REMARK   12  A    between atoms: C_27  and  C_31
REMARK   13  A    between atoms: C_29  and  C_30
REMARK                            x       y       z     vdW  Elec       q    Type
REMARK                         _______ _______ _______ _____ _____    ______ ____
ROOT
ATOM      1  C   UNL     1       2.789  -1.024   0.084  0.00  0.00    +0.186 C 
ATOM      2  O   UNL     1       1.910  -1.625   0.665  0.00  0.00    -0.290 OA
ENDROOT
BRANCH   1   3
ATOM      3  C   UNL     1       4.149  -1.331   0.342  0.00  0.00    +0.103 A 
ATOM      4  C   UNL     1       4.637  -2.312   1.242  0.00  0.00    +0.075 A 
ATOM      5  N   UNL     1       5.938  -2.292   1.198  0.00  0.00    -0.168 NA
ATOM      6  N   UNL     1       6.355  -1.316   0.286  0.00  0.00    -0.200 N 
ATOM      7  C   UNL     1       5.262  -0.730  -0.245  0.00  0.00    +0.227 A 
ATOM      8  C   UNL     1       3.795  -3.220   2.101  0.00  0.00    +0.068 C 
BRANCH   6   9
ATOM      9  C   UNL     1       7.685  -1.005  -0.029  0.00  0.00    +0.070 A 
ATOM     10  C   UNL     1       8.023  -0.625  -1.321  0.00  0.00    +0.028 A 
ATOM     11  C   UNL     1       9.334  -0.318  -1.628  0.00  0.00    +0.003 A 
ATOM     12  C   UNL     1      10.310  -0.389  -0.651  0.00  0.00    +0.020 A 
ATOM     13  C   UNL     1       9.976  -0.767   0.637  0.00  0.00    +0.043 A 
ATOM     14  C   UNL     1       8.665  -1.070   0.952  0.00  0.00    +0.048 A 
ATOM     15 CL   UNL     1      11.205  -0.856   1.861  0.00  0.00    -0.083 Cl
ENDBRANCH   6   9
BRANCH   7  16
ATOM     16  O   UNL     1       5.249   0.257  -1.170  0.00  0.00    -0.492 OA
ATOM     17  H   UNL     1       5.258   1.148  -0.795  0.00  0.00    +0.294 HD
ENDBRANCH   7  16
ENDBRANCH   1   3
BRANCH   1  18
ATOM     18  C   UNL     1       2.436   0.049  -0.914  0.00  0.00    +0.189 C 
BRANCH  18  19
ATOM     19  N   UNL     1       0.978   0.175  -1.000  0.00  0.00    -0.169 NA
BRANCH  19  20
ATOM     20  S   UNL     1       0.148  -0.622  -2.191  0.00  0.00    +0.062 S 
ATOM     21  O   UNL     1       1.048  -1.568  -2.751  0.00  0.00    -0.153 OA
ATOM     22  O   UNL     1      -1.103  -0.999  -1.631  0.00  0.00    -0.153 OA
BRANCH  20  23
ATOM     23  C   UNL     1      -0.201   0.552  -3.457  0.00  0.00    +0.111 A 
ATOM     24  C   UNL     1       0.656   0.682  -4.534  0.00  0.00    -0.024 A 
ATOM     25  C   UNL     1       0.382   1.603  -5.527  0.00  0.00    +0.008 A 
ATOM     26  C   UNL     1      -0.749   2.394  -5.445  0.00  0.00    -0.050 A 
ATOM     27  C   UNL     1      -1.607   2.263  -4.369  0.00  0.00    +0.008 A 
ATOM     28  C   UNL     1      -1.335   1.339  -3.377  0.00  0.00    -0.024 A 
ATOM     29  C   UNL     1      -2.273   1.192  -2.206  0.00  0.00    +0.046 C 
ATOM     30  C   UNL     1      -1.047   3.398  -6.528  0.00  0.00    +0.044 C 
ATOM     31  C   UNL     1       1.889  -0.179  -4.624  0.00  0.00    +0.046 C 
ENDBRANCH  20  23
ENDBRANCH  19  20
BRANCH  19  33
ATOM     32  C   UNL     1       0.262   2.460  -0.505  0.00  0.00    +0.022 C 
ATOM     33  C   UNL     1       0.256   1.005  -0.033  0.00  0.00    +0.106 C 
ENDBRANCH  19  33
ENDBRANCH  18  19
ENDBRANCH   1  18
TORSDOF 8
