REMARK  Name = ZINC07763298
REMARK  4 active torsions:
REMARK  status: ('A' for Active; 'I' for Inactive)
REMARK    1  A    between atoms: C_1  and  C_2
REMARK    2  A    between atoms: C_4  and  C_13
REMARK    3  A    between atoms: C_5  and  C_12
REMARK    4  A    between atoms: C_16  and  C_18
REMARK                            x       y       z     vdW  Elec       q    Type
REMARK                         _______ _______ _______ _____ _____    ______ ____
ROOT
ATOM      1  C   UNL     1       2.577   6.875   0.012  0.00  0.00    +0.064 C 
ATOM      2  C   UNL     1       1.732   5.627   0.014  0.00  0.00    +0.023 A 
ATOM      3  C   UNL     1       2.196   4.363   0.003  0.00  0.00    +0.033 A 
ATOM      4  C   UNL     1       1.073   3.498   0.010  0.00  0.00    +0.022 A 
ATOM      5  C   UNL     1      -0.038   4.281   0.019  0.00  0.00    +0.032 A 
ATOM      6  N   UNL     1       0.366   5.587   0.028  0.00  0.00    -0.296 N 
ATOM      7  C   UNL     1      -0.477   6.696   0.042  0.00  0.00    +0.178 A 
ATOM      8  N   UNL     1      -1.795   6.735   0.050  0.00  0.00    -0.231 NA
ATOM      9  C   UNL     1      -2.445   7.881   0.069  0.00  0.00    +0.121 A 
ATOM     10  C   UNL     1      -1.727   9.031   0.066  0.00  0.00    +0.068 A 
ATOM     11  S   UNL     1      -0.062   8.382   0.046  0.00  0.00    -0.058 S 
ATOM     12  C   UNL     1      -1.465   3.795   0.023  0.00  0.00    +0.064 C 
ENDROOT
BRANCH   4  13
ATOM     13  C   UNL     1       1.104   2.013   0.002  0.00  0.00    +0.080 A 
ATOM     14  C   UNL     1       2.290   1.333  -0.013  0.00  0.00    +0.075 A 
ATOM     15  S   UNL     1       1.702  -0.355  -0.016  0.00  0.00    -0.080 S 
ATOM     16  C   UNL     1       0.002  -0.004   0.002  0.00  0.00    +0.076 A 
ATOM     17  N   UNL     1      -0.016   1.307   0.009  0.00  0.00    -0.244 NA
ATOM     18  C   UNL     1      -1.160  -0.964   0.008  0.00  0.00    +0.073 C 
ENDBRANCH   4  13
TORSDOF 1
