REMARK  Name = ZINC46090536
REMARK  7 active torsions:
REMARK  status: ('A' for Active; 'I' for Inactive)
REMARK    1  A    between atoms: C_1  and  C_2
REMARK    2  A    between atoms: C_8  and  N_10
REMARK    3  A    between atoms: C_11  and  C_13
REMARK    4  A    between atoms: C_13  and  C_15
REMARK    5  A    between atoms: C_13  and  N_16
REMARK    6  A    between atoms: C_19  and  C_22
REMARK    7  A    between atoms: C_22  and  O_23
REMARK                            x       y       z     vdW  Elec       q    Type
REMARK                         _______ _______ _______ _____ _____    ______ ____
ROOT
ATOM      1  C   UNL     1       4.209   0.649   2.377  0.00  0.00    +0.016 C 
ATOM      2  C   UNL     1       4.186   2.013   1.683  0.00  0.00    -0.004 C 
ENDROOT
BRANCH   1   3
ATOM      3  N   UNL     1       4.681   0.811   3.759  0.00  0.00    +0.387 N 
ATOM      4  C   UNL     1       4.748  -0.503   4.409  0.00  0.00    -0.077 C 
ATOM      5  C   UNL     1       5.162  -0.332   5.872  0.00  0.00    -0.013 C 
ATOM      6  C   UNL     1       6.537   0.340   5.933  0.00  0.00    +0.011 C 
ATOM      7  C   UNL     1       6.475   1.676   5.188  0.00  0.00    -0.013 C 
ATOM      8  C   UNL     1       6.012   1.431   3.750  0.00  0.00    -0.077 C 
ATOM      9  H   UNL     1       4.040   1.403   4.266  0.00  0.00    -0.081 HD
BRANCH   6  10
ATOM     10  C   UNL     1       6.922   0.586   7.393  0.00  0.00    +0.159 C 
BRANCH  10  11
ATOM     11  O   UNL     1       8.252   1.105   7.454  0.00  0.00    -0.395 OA
ATOM     12  H   UNL     1       8.563   1.286   8.352  0.00  0.00    +0.209 HD
ENDBRANCH  10  11
ENDBRANCH   6  10
ENDBRANCH   1   3
BRANCH   1  14
ATOM     13  N   UNL     1       2.387  -0.665   1.341  0.00  0.00    -0.314 N 
ATOM     14  C   UNL     1       2.819   0.067   2.387  0.00  0.00    +0.199 C 
ATOM     15  O   UNL     1       2.088   0.258   3.336  0.00  0.00    -0.278 OA
ATOM     16  H   UNL     1       2.972  -0.817   0.582  0.00  0.00    +0.149 HD
BRANCH  13  23
ATOM     17  C   UNL     1       0.553  -0.113  -0.831  0.00  0.00    +0.009 C 
ATOM     18  C   UNL     1       0.565  -1.450  -0.089  0.00  0.00    +0.006 C 
ATOM     19  C   UNL     1      -0.846  -2.041  -0.079  0.00  0.00    +0.005 C 
ATOM     20  C   UNL     1      -0.834  -3.379   0.664  0.00  0.00    +0.000 C 
ATOM     21  C   UNL     1      -0.363  -3.159   2.103  0.00  0.00    +0.002 C 
ATOM     22  C   UNL     1       1.048  -2.568   2.093  0.00  0.00    +0.022 C 
ATOM     23  C   UNL     1       1.036  -1.230   1.350  0.00  0.00    +0.076 C 
ENDBRANCH  13  23
ENDBRANCH   1  14
TORSDOF 5
