REMARK  Name = ZINC51679006
REMARK  7 active torsions:
REMARK  status: ('A' for Active; 'I' for Inactive)
REMARK    1  A    between atoms: C_1  and  C_2
REMARK    2  A    between atoms: C_2  and  C_3
REMARK    3  A    between atoms: C_2  and  C_4
REMARK    4  A    between atoms: C_4  and  C_6
REMARK    5  A    between atoms: C_4  and  N_18
REMARK    6  A    between atoms: C_9  and  C_12
REMARK    7  A    between atoms: C_25  and  C_28
REMARK                            x       y       z     vdW  Elec       q    Type
REMARK                         _______ _______ _______ _____ _____    ______ ____
ROOT
ATOM      1  C   UNL     1      -1.435  -0.534   0.013  0.00  0.00    +0.107 C 
ENDROOT
BRANCH   1   2
ATOM      2  N   UNL     1      -2.105  -0.148  -1.230  0.00  0.00    -0.292 N 
ATOM      3  C   UNL     1      -1.970  -0.910  -2.334  0.00  0.00    +0.303 C 
ATOM      4  O   UNL     1      -1.218  -1.866  -2.324  0.00  0.00    -0.253 OA
ATOM      5  N   UNL     1      -2.667  -0.613  -3.448  0.00  0.00    -0.280 N 
ATOM      6  C   UNL     1      -3.493   0.603  -3.523  0.00  0.00    +0.137 C 
ATOM      7  C   UNL     1      -4.891   0.208  -4.014  0.00  0.00    +0.180 C 
ATOM      8  O   UNL     1      -4.769  -0.552  -5.219  0.00  0.00    -0.364 OA
ATOM      9  C   UNL     1      -4.064  -1.786  -5.064  0.00  0.00    +0.221 C 
ATOM     10  C   UNL     1      -2.620  -1.490  -4.628  0.00  0.00    +0.150 C 
ATOM     11  H   UNL     1      -2.647   0.656  -1.260  0.00  0.00    +0.151 HD
BRANCH   9  12
ATOM     12  C   UNL     1      -4.052  -2.527  -6.376  0.00  0.00    +0.241 C 
ATOM     13  O   UNL     1      -4.513  -2.007  -7.370  0.00  0.00    -0.273 OA
ATOM     14  N   UNL     1      -3.529  -3.767  -6.445  0.00  0.00    -0.327 N 
ATOM     15  H   UNL     1      -3.160  -4.183  -5.650  0.00  0.00    +0.145 HD
ATOM     16  H   UNL     1      -3.521  -4.244  -7.289  0.00  0.00    +0.145 HD
ENDBRANCH   9  12
ENDBRANCH   1   2
BRANCH   1  17
ATOM     17  C   UNL     1      -2.177   0.051   1.187  0.00  0.00    -0.027 A 
ATOM     18  C   UNL     1      -2.691   1.332   1.111  0.00  0.00    +0.006 A 
ATOM     19  C   UNL     1      -3.372   1.868   2.187  0.00  0.00    +0.004 A 
ATOM     20  C   UNL     1      -3.539   1.124   3.340  0.00  0.00    -0.044 A 
ATOM     21  C   UNL     1      -3.026  -0.158   3.416  0.00  0.00    +0.004 A 
ATOM     22  C   UNL     1      -2.349  -0.696   2.338  0.00  0.00    +0.006 A 
BRANCH  20  23
ATOM     23  C   UNL     1      -4.281   1.709   4.514  0.00  0.00    +0.019 C 
ATOM     24  C   UNL     1      -3.355   1.753   5.732  0.00  0.00    +0.008 C 
ATOM     25  C   UNL     1      -4.108   2.347   6.924  0.00  0.00    +0.001 C 
ATOM     26  C   UNL     1      -5.328   1.479   7.241  0.00  0.00    +0.000 C 
ATOM     27  C   UNL     1      -6.253   1.436   6.023  0.00  0.00    +0.001 C 
ATOM     28  C   UNL     1      -5.500   0.842   4.831  0.00  0.00    +0.008 C 
ENDBRANCH  20  23
ENDBRANCH   1  17
BRANCH   1  30
ATOM     29  C   UNL     1      -0.018   1.523   0.012  0.00  0.00    +0.009 C 
ATOM     30  C   UNL     1       0.001  -0.006   0.004  0.00  0.00    +0.008 C 
ATOM     31  C   UNL     1       0.740  -0.514   1.244  0.00  0.00    +0.009 C 
ENDBRANCH   1  30
TORSDOF 5
