REMARK  Name = ZINC36156207
REMARK  15 active torsions:
REMARK  status: ('A' for Active; 'I' for Inactive)
REMARK    1  A    between atoms: C_1  and  C_2
REMARK    2  A    between atoms: C_2  and  C_3
REMARK    3  A    between atoms: C_3  and  N_4
REMARK    4  A    between atoms: N_4  and  C_5
REMARK    5  A    between atoms: N_4  and  C_16
REMARK    6  A    between atoms: C_5  and  C_6
REMARK    7  A    between atoms: C_9  and  O_14
REMARK    8  A    between atoms: C_10  and  O_12
REMARK    9  A    between atoms: O_12  and  C_13
REMARK   10  A    between atoms: O_14  and  C_15
REMARK   11  A    between atoms: C_16  and  C_17
REMARK   12  A    between atoms: C_20  and  C_22
REMARK   13  A    between atoms: C_22  and  C_23
REMARK   14  A    between atoms: C_22  and  C_29
REMARK   15  A    between atoms: C_22  and  O_35
REMARK                            x       y       z     vdW  Elec       q    Type
REMARK                         _______ _______ _______ _____ _____    ______ ____
ROOT
ATOM      1  C   UNL     1      -0.787  -2.284   4.224  0.00  0.00    +0.089 A 
ATOM      2  C   UNL     1      -1.874  -2.630   4.936  0.00  0.00    +0.043 A 
ATOM      3  C   UNL     1      -2.108  -1.587   5.861  0.00  0.00    +0.048 A 
ATOM      4  C   UNL     1      -1.150  -0.665   5.660  0.00  0.00    +0.146 A 
ATOM      5  O   UNL     1      -0.349  -1.095   4.671  0.00  0.00    -0.463 OA
ENDROOT
BRANCH   1   6
ATOM      6  C   UNL     1      -0.162  -3.094   3.118  0.00  0.00    -0.003 C 
BRANCH   6   7
ATOM      7  N   UNL     1      -0.763  -2.713   1.833  0.00  0.00    +0.387 N 
ATOM      8  H   UNL     1      -1.766  -2.813   1.888  0.00  0.00    -0.081 HD
BRANCH   7   9
ATOM      9  C   UNL     1      -0.426  -1.316   1.529  0.00  0.00    -0.078 C 
BRANCH   9  11
ATOM     10  C   UNL     1      -0.931   0.618   0.030  0.00  0.00    +0.002 C 
ATOM     11  C   UNL     1      -1.170  -0.875   0.267  0.00  0.00    -0.022 C 
ENDBRANCH   9  11
ENDBRANCH   7   9
BRANCH   7  12
ATOM     12  C   UNL     1      -0.242  -3.585   0.771  0.00  0.00    -0.042 C 
BRANCH  12  13
ATOM     13  C   UNL     1      -0.705  -4.999   1.010  0.00  0.00    -0.060 A 
ATOM     14  C   UNL     1       0.120  -5.893   1.666  0.00  0.00    +0.005 A 
ATOM     15  C   UNL     1      -0.300  -7.192   1.887  0.00  0.00    +0.049 A 
ATOM     16  C   UNL     1      -1.550  -7.599   1.451  0.00  0.00    +0.161 A 
ATOM     17  C   UNL     1      -2.381  -6.699   0.791  0.00  0.00    +0.162 A 
ATOM     18  C   UNL     1      -1.956  -5.397   0.577  0.00  0.00    +0.051 A 
BRANCH  17  19
ATOM     19  O   UNL     1      -3.609  -7.094   0.361  0.00  0.00    -0.491 OA
ATOM     20  C   UNL     1      -4.407  -6.116  -0.309  0.00  0.00    +0.277 C 
ENDBRANCH  17  19
BRANCH  16  21
ATOM     21  O   UNL     1      -1.965  -8.876   1.667  0.00  0.00    -0.491 OA
ATOM     22  C   UNL     1      -1.059  -9.745   2.351  0.00  0.00    +0.277 C 
ENDBRANCH  16  21
ENDBRANCH  12  13
ENDBRANCH   7  12
ENDBRANCH   6   7
ENDBRANCH   1   6
BRANCH   4  23
ATOM     23  C   UNL     1      -0.997   0.627   6.419  0.00  0.00    +0.174 C 
BRANCH  23  24
ATOM     24  C   UNL     1       0.459   1.010   6.473  0.00  0.00    -0.004 A 
ATOM     25  C   UNL     1       1.134   0.993   7.679  0.00  0.00    +0.007 A 
ATOM     26  C   UNL     1       2.470   1.344   7.729  0.00  0.00    +0.000 A 
ATOM     27  C   UNL     1       3.132   1.710   6.572  0.00  0.00    +0.000 A 
ATOM     28  C   UNL     1       2.458   1.725   5.365  0.00  0.00    +0.000 A 
ATOM     29  C   UNL     1       1.123   1.371   5.315  0.00  0.00    +0.007 A 
ENDBRANCH  23  24
BRANCH  23  30
ATOM     30  C   UNL     1      -1.776   1.714   5.722  0.00  0.00    -0.004 A 
ATOM     31  C   UNL     1      -1.783   1.782   4.342  0.00  0.00    +0.007 A 
ATOM     32  C   UNL     1      -2.498   2.778   3.703  0.00  0.00    +0.000 A 
ATOM     33  C   UNL     1      -3.205   3.706   4.444  0.00  0.00    +0.000 A 
ATOM     34  C   UNL     1      -3.198   3.637   5.825  0.00  0.00    +0.000 A 
ATOM     35  C   UNL     1      -2.487   2.638   6.464  0.00  0.00    +0.007 A 
ENDBRANCH  23  30
BRANCH  23  36
ATOM     36  O   UNL     1      -1.496   0.462   7.748  0.00  0.00    -0.372 OA
ATOM     37  H   UNL     1      -2.430   0.215   7.790  0.00  0.00    +0.212 HD
ENDBRANCH  23  36
ENDBRANCH   4  23
TORSDOF 12
