REMARK  Name = ZINC02708685
REMARK  7 active torsions:
REMARK  status: ('A' for Active; 'I' for Inactive)
REMARK    1  A    between atoms: C_3  and  S_27
REMARK    2  A    between atoms: C_6  and  N_7
REMARK    3  A    between atoms: C_8  and  C_10
REMARK    4  A    between atoms: C_10  and  S_11
REMARK    5  A    between atoms: S_11  and  C_12
REMARK    6  A    between atoms: N_17  and  C_20
REMARK    7  A    between atoms: S_27  and  N_30
REMARK                            x       y       z     vdW  Elec       q    Type
REMARK                         _______ _______ _______ _____ _____    ______ ____
ROOT
ATOM      1  N   UNL     1      -1.013  -0.822   0.098  0.00  0.00    -0.285 N 
ATOM      2  C   UNL     1      -1.043  -2.162  -0.037  0.00  0.00    +0.227 C 
ATOM      3  O   UNL     1      -0.006  -2.792  -0.069  0.00  0.00    -0.275 OA
ATOM      4  H   UNL     1      -1.841  -0.326   0.198  0.00  0.00    +0.155 HD
ENDROOT
BRANCH   1  10
ATOM      5  C   UNL     1       1.265  -0.618  -0.679  0.00  0.00    +0.025 A 
ATOM      6  C   UNL     1       2.473   0.052  -0.682  0.00  0.00    +0.030 A 
ATOM      7  C   UNL     1       2.634   1.193   0.083  0.00  0.00    +0.105 A 
ATOM      8  C   UNL     1       1.587   1.667   0.853  0.00  0.00    +0.030 A 
ATOM      9  C   UNL     1       0.377   1.001   0.860  0.00  0.00    +0.025 A 
ATOM     10  C   UNL     1       0.212  -0.145   0.093  0.00  0.00    +0.034 A 
BRANCH   7  11
ATOM     11  S   UNL     1       4.176   2.045   0.078  0.00  0.00    +0.056 S 
ATOM     12  O   UNL     1       4.243   2.772   1.297  0.00  0.00    -0.153 OA
ATOM     13  O   UNL     1       5.163   1.094  -0.297  0.00  0.00    -0.153 OA
BRANCH  11  14
ATOM     14  N   UNL     1       4.112   3.166  -1.139  0.00  0.00    -0.204 NA
ATOM     15  H   UNL     1       3.313   3.245  -1.684  0.00  0.00    +0.144 HD
ATOM     16  H   UNL     1       4.873   3.743  -1.308  0.00  0.00    +0.144 HD
ENDBRANCH  11  14
ENDBRANCH   7  11
ENDBRANCH   1  10
BRANCH   2  17
ATOM     17  C   UNL     1      -2.364  -2.879  -0.148  0.00  0.00    +0.165 C 
BRANCH  17  18
ATOM     18  S   UNL     1      -2.072  -4.662  -0.318  0.00  0.00    -0.138 S 
BRANCH  18  19
ATOM     19  C   UNL     1      -3.738  -5.370  -0.438  0.00  0.00    +0.142 C 
ATOM     20  C   UNL     1      -3.665  -6.894  -0.661  0.00  0.00    +0.120 C 
ATOM     21  C   UNL     1      -4.363  -7.463   0.555  0.00  0.00    +0.228 C 
ATOM     22  O   UNL     1      -4.528  -8.643   0.781  0.00  0.00    -0.275 OA
ATOM     23  N   UNL     1      -4.768  -6.458   1.341  0.00  0.00    -0.209 N 
ATOM     24  C   UNL     1      -4.471  -5.234   0.878  0.00  0.00    +0.240 C 
ATOM     25  O   UNL     1      -4.743  -4.188   1.426  0.00  0.00    -0.274 OA
BRANCH  23  26
ATOM     26  C   UNL     1      -5.449  -6.667   2.549  0.00  0.00    +0.044 A 
ATOM     27  C   UNL     1      -6.778  -6.284   2.673  0.00  0.00    +0.025 A 
ATOM     28  C   UNL     1      -7.447  -6.491   3.864  0.00  0.00    +0.017 A 
ATOM     29  C   UNL     1      -6.793  -7.079   4.932  0.00  0.00    +0.018 A 
ATOM     30  C   UNL     1      -5.469  -7.462   4.811  0.00  0.00    +0.017 A 
ATOM     31  C   UNL     1      -4.798  -7.262   3.621  0.00  0.00    +0.025 A 
ATOM     32 BR   UNL     1      -7.712  -7.360   6.561  0.00  0.00    -0.050 Br
ENDBRANCH  23  26
ENDBRANCH  18  19
ENDBRANCH  17  18
ENDBRANCH   2  17
TORSDOF 7
