REMARK  Name = ZINC49937968
REMARK  2 active torsions:
REMARK  status: ('A' for Active; 'I' for Inactive)
REMARK    1  A    between atoms: C_3  and  C_6
REMARK    2  A    between atoms: C_17  and  C_19
REMARK                            x       y       z     vdW  Elec       q    Type
REMARK                         _______ _______ _______ _____ _____    ______ ____
ROOT
ATOM      1  C   UNL     1       3.761   1.845  -0.024  0.00  0.00    +0.160 C 
ATOM      2  C   UNL     1       4.454   1.374   1.267  0.00  0.00    +0.113 C 
ATOM      3  C   UNL     1       5.820   0.735   1.077  0.00  0.00    +0.065 C 
ATOM      4  C   UNL     1       6.647   0.575   2.279  0.00  0.00    +0.040 A 
ATOM      5  C   UNL     1       7.742  -0.287   2.303  0.00  0.00    +0.033 A 
ATOM      6  C   UNL     1       8.497  -0.399   3.453  0.00  0.00    +0.042 A 
ATOM      7  C   UNL     1       8.167   0.344   4.577  0.00  0.00    +0.023 A 
ATOM      8  C   UNL     1       7.082   1.198   4.564  0.00  0.00    +0.048 A 
ATOM      9  C   UNL     1       6.307   1.324   3.421  0.00  0.00    +0.130 A 
ATOM     10  O   UNL     1       5.234   2.150   3.414  0.00  0.00    -0.483 OA
ATOM     11  C   UNL     1       4.694   2.587   2.165  0.00  0.00    +0.215 C 
ATOM     12 CL   UNL     1       9.861  -1.472   3.493  0.00  0.00    -0.084 Cl
ATOM     13  N   UNL     1       6.227   0.421  -0.108  0.00  0.00    -0.215 NA
ATOM     14  C   UNL     1       5.561   0.713  -1.253  0.00  0.00    +0.249 A 
ATOM     15  N   UNL     1       4.399   1.408  -1.275  0.00  0.00    -0.221 N 
ATOM     16  N   UNL     1       4.038   1.551  -2.620  0.00  0.00    -0.156 NA
ATOM     17  C   UNL     1       4.948   0.928  -3.324  0.00  0.00    +0.247 A 
ATOM     18  N   UNL     1       5.860   0.423  -2.514  0.00  0.00    -0.198 NA
ENDROOT
BRANCH  11  19
ATOM     19  C   UNL     1       3.390   3.303   2.403  0.00  0.00    -0.007 A 
ATOM     20  C   UNL     1       2.551   2.889   3.421  0.00  0.00    +0.009 A 
ATOM     21  C   UNL     1       1.354   3.546   3.640  0.00  0.00    +0.020 A 
ATOM     22  C   UNL     1       0.997   4.617   2.841  0.00  0.00    +0.041 A 
ATOM     23  C   UNL     1       1.838   5.031   1.823  0.00  0.00    +0.020 A 
ATOM     24  C   UNL     1       3.036   4.377   1.608  0.00  0.00    +0.009 A 
ATOM     25 CL   UNL     1      -0.506   5.442   3.115  0.00  0.00    -0.084 Cl
ENDBRANCH  11  19
BRANCH   1  28
ATOM     26  C   UNL     1      -0.016   1.351   0.009  0.00  0.00    +0.008 A 
ATOM     27  C   UNL     1       1.183   2.038   0.002  0.00  0.00    +0.013 A 
ATOM     28  C   UNL     1       2.343   1.336  -0.013  0.00  0.00    +0.015 A 
ATOM     29  S   UNL     1       1.754  -0.349  -0.017  0.00  0.00    -0.099 S 
ATOM     30  C   UNL     1       0.002  -0.004   0.002  0.00  0.00    +0.045 A 
ENDBRANCH   1  28
TORSDOF 2
