REMARK  Name = ZINC22414623
REMARK  5 active torsions:
REMARK  status: ('A' for Active; 'I' for Inactive)
REMARK    1  A    between atoms: C_1  and  C_2
REMARK    2  A    between atoms: C_5  and  C_31
REMARK    3  A    between atoms: C_6  and  C_8
REMARK    4  A    between atoms: C_8  and  N_9
REMARK    5  A    between atoms: N_21  and  C_24
REMARK                            x       y       z     vdW  Elec       q    Type
REMARK                         _______ _______ _______ _____ _____    ______ ____
ROOT
ATOM      1  N   UNL     1       0.366   1.667  -0.620  0.00  0.00    -0.285 N 
ATOM      2  C   UNL     1       1.468   2.214   0.005  0.00  0.00    +0.105 A 
ATOM      3  C   UNL     1       2.875   1.824   0.120  0.00  0.00    +0.045 A 
ATOM      4  C   UNL     1       3.631   0.752  -0.357  0.00  0.00    +0.014 A 
ATOM      5  C   UNL     1       4.963   0.677  -0.064  0.00  0.00    +0.001 A 
ATOM      6  C   UNL     1       5.570   1.660   0.705  0.00  0.00    +0.004 A 
ATOM      7  C   UNL     1       4.841   2.726   1.186  0.00  0.00    +0.047 A 
ATOM      8  C   UNL     1       3.484   2.823   0.901  0.00  0.00    +0.138 A 
ATOM      9  O   UNL     1       2.542   3.731   1.228  0.00  0.00    -0.448 OA
ATOM     10  C   UNL     1       1.339   3.394   0.710  0.00  0.00    +0.217 A 
ATOM     11  C   UNL     1       0.063   4.008   0.768  0.00  0.00    +0.304 A 
ATOM     12  O   UNL     1      -0.089   5.050   1.381  0.00  0.00    -0.263 OA
ATOM     13  N   UNL     1      -0.980   3.431   0.141  0.00  0.00    -0.226 N 
ATOM     14  C   UNL     1      -0.829   2.285  -0.546  0.00  0.00    +0.337 A 
ATOM     15  O   UNL     1      -1.790   1.794  -1.106  0.00  0.00    -0.246 OA
ENDROOT
BRANCH  13  16
ATOM     16  C   UNL     1      -2.241   4.039   0.199  0.00  0.00    +0.055 A 
ATOM     17  C   UNL     1      -2.592   5.002  -0.738  0.00  0.00    +0.028 A 
ATOM     18  C   UNL     1      -3.838   5.595  -0.682  0.00  0.00    +0.022 A 
ATOM     19  C   UNL     1      -4.732   5.239   0.313  0.00  0.00    +0.041 A 
ATOM     20  C   UNL     1      -4.382   4.283   1.250  0.00  0.00    +0.022 A 
ATOM     21  C   UNL     1      -3.140   3.683   1.195  0.00  0.00    +0.028 A 
ATOM     22 CL   UNL     1      -6.294   5.992   0.385  0.00  0.00    -0.084 Cl
ENDBRANCH  13  16
BRANCH   1  23
ATOM     23  C   UNL     1       0.496   0.415  -1.369  0.00  0.00    +0.162 C 
BRANCH  23  29
ATOM     24  C   UNL     1      -0.513  -1.367   3.197  0.00  0.00    +0.044 C 
ATOM     25  C   UNL     1      -0.140  -1.605   1.756  0.00  0.00    -0.050 A 
ATOM     26  C   UNL     1       0.061  -2.894   1.298  0.00  0.00    +0.003 A 
ATOM     27  C   UNL     1       0.403  -3.111  -0.024  0.00  0.00    +0.004 A 
ATOM     28  C   UNL     1       0.544  -2.041  -0.887  0.00  0.00    -0.046 A 
ATOM     29  C   UNL     1       0.342  -0.752  -0.429  0.00  0.00    -0.024 A 
ATOM     30  C   UNL     1       0.005  -0.534   0.894  0.00  0.00    +0.009 A 
ATOM     31  C   UNL     1       0.917  -2.278  -2.328  0.00  0.00    +0.044 C 
ENDBRANCH  23  29
ENDBRANCH   1  23
TORSDOF 3
