REMARK  Name = ZINC21170139
REMARK  9 active torsions:
REMARK  status: ('A' for Active; 'I' for Inactive)
REMARK    1  A    between atoms: C_4  and  C_7
REMARK    2  A    between atoms: C_7  and  C_8
REMARK    3  A    between atoms: C_8  and  C_9
REMARK    4  A    between atoms: C_8  and  C_16
REMARK    5  A    between atoms: C_8  and  O_31
REMARK    6  A    between atoms: C_12  and  O_15
REMARK    7  A    between atoms: C_16  and  C_18
REMARK    8  A    between atoms: C_16  and  C_25
REMARK    9  A    between atoms: C_18  and  N_19
REMARK                            x       y       z     vdW  Elec       q    Type
REMARK                         _______ _______ _______ _____ _____    ______ ____
ROOT
ATOM      1  C   UNL     1       4.249  -0.887  -1.360  0.00  0.00    +0.103 C 
ENDROOT
BRANCH   1   2
ATOM      2  C   UNL     1       3.079  -1.368  -2.179  0.00  0.00    -0.015 A 
ATOM      3  C   UNL     1       2.921  -2.719  -2.430  0.00  0.00    +0.010 A 
ATOM      4  C   UNL     1       1.847  -3.163  -3.176  0.00  0.00    +0.046 A 
ATOM      5  C   UNL     1       0.932  -2.252  -3.683  0.00  0.00    +0.117 A 
ATOM      6  C   UNL     1       1.095  -0.897  -3.435  0.00  0.00    +0.046 A 
ATOM      7  C   UNL     1       2.169  -0.458  -2.683  0.00  0.00    +0.010 A 
BRANCH   5   8
ATOM      8  O   UNL     1      -0.123  -2.686  -4.421  0.00  0.00    -0.507 OA
ATOM      9  H   UNL     1      -0.848  -1.962  -4.823  0.00  0.00    +0.292 HD
ENDBRANCH   5   8
ENDBRANCH   1   2
BRANCH   1  10
ATOM     10  O   UNL     1       4.622   0.424  -1.788  0.00  0.00    -0.383 OA
ATOM     11  H   UNL     1       4.938   0.595  -2.828  0.00  0.00    +0.211 HD
ENDBRANCH   1  10
BRANCH   1  12
ATOM     12  C   UNL     1       3.855  -0.849   0.118  0.00  0.00    +0.075 C 
BRANCH  12  16
ATOM     13  C   UNL     1       0.345   1.538   0.595  0.00  0.00    +0.000 A 
ATOM     14  C   UNL     1       1.595   2.123   0.675  0.00  0.00    +0.000 A 
ATOM     15  C   UNL     1       2.731   1.351   0.520  0.00  0.00    +0.004 A 
ATOM     16  C   UNL     1       2.617  -0.007   0.286  0.00  0.00    -0.044 A 
ATOM     17  C   UNL     1       1.367  -0.592   0.207  0.00  0.00    +0.004 A 
ATOM     18  C   UNL     1       0.231   0.180   0.362  0.00  0.00    +0.000 A 
ENDBRANCH  12  16
ENDBRANCH   1  12
BRANCH   1  19
ATOM     19  C   UNL     1       5.430  -1.841  -1.549  0.00  0.00    +0.069 C 
BRANCH  19  20
ATOM     20  C   UNL     1       6.555  -1.435  -0.631  0.00  0.00    -0.040 A 
ATOM     21  C   UNL     1       7.255  -0.267  -0.871  0.00  0.00    +0.004 A 
ATOM     22  C   UNL     1       8.284   0.107  -0.027  0.00  0.00    +0.000 A 
ATOM     23  C   UNL     1       8.619  -0.691   1.051  0.00  0.00    +0.000 A 
ATOM     24  C   UNL     1       7.921  -1.861   1.288  0.00  0.00    +0.000 A 
ATOM     25  C   UNL     1       6.890  -2.233   0.447  0.00  0.00    +0.004 A 
ENDBRANCH  19  20
BRANCH  19  26
ATOM     26  C   UNL     1       5.909  -1.779  -3.001  0.00  0.00    +0.096 C 
BRANCH  26  27
ATOM     27  N   UNL     1       7.002  -2.740  -3.197  0.00  0.00    -0.297 NA
ATOM     28  C   UNL     1       7.787  -2.408  -4.395  0.00  0.00    +0.112 C 
ATOM     29  C   UNL     1       8.947  -3.397  -4.529  0.00  0.00    +0.175 C 
ATOM     30  O   UNL     1       8.429  -4.730  -4.573  0.00  0.00    -0.377 OA
ATOM     31  C   UNL     1       7.660  -5.087  -3.422  0.00  0.00    +0.175 C 
ATOM     32  C   UNL     1       6.486  -4.115  -3.277  0.00  0.00    +0.112 C 
ENDBRANCH  26  27
ENDBRANCH  19  26
ENDBRANCH   1  19
TORSDOF 9
