REMARK  Name = ZINC42866035
REMARK  3 active torsions:
REMARK  status: ('A' for Active; 'I' for Inactive)
REMARK    1  A    between atoms: C_1  and  C_2
REMARK    2  A    between atoms: C_8  and  C_10
REMARK    3  A    between atoms: C_10  and  N_11
REMARK                            x       y       z     vdW  Elec       q    Type
REMARK                         _______ _______ _______ _____ _____    ______ ____
ROOT
ATOM      1  N   UNL     1       2.921  -0.562   2.352  0.00  0.00    -0.288 N 
ATOM      2  C   UNL     1       2.922   0.075   3.537  0.00  0.00    +0.263 A 
ATOM      3  O   UNL     1       2.313   1.120   3.674  0.00  0.00    -0.267 OA
ATOM      4  C   UNL     1       3.671  -0.509   4.670  0.00  0.00    +0.070 A 
ATOM      5  C   UNL     1       3.818  -0.011   6.029  0.00  0.00    +0.023 A 
ATOM      6  C   UNL     1       4.564  -0.753   6.863  0.00  0.00    +0.048 A 
ATOM      7  S   UNL     1       5.077  -2.121   5.846  0.00  0.00    -0.079 S 
ATOM      8  C   UNL     1       4.334  -1.708   4.409  0.00  0.00    +0.092 A 
ATOM      9  N   UNL     1       4.280  -2.289   3.168  0.00  0.00    -0.329 N 
ATOM     10  C   UNL     1       3.578  -1.718   2.172  0.00  0.00    +0.161 A 
ATOM     11  S   UNL     1       3.529  -2.480   0.639  0.00  0.00    -0.013 S 
ATOM     12  H   UNL     1       4.749  -3.123   3.009  0.00  0.00    +0.168 HD
ENDROOT
BRANCH   1  13
ATOM     13  C   UNL     1       2.178   0.019   1.231  0.00  0.00    +0.131 C 
BRANCH  13  20
ATOM     14  C   UNL     1      -0.019   1.526   0.010  0.00  0.00    +0.008 C 
ATOM     15  C   UNL     1       0.002  -0.004   0.002  0.00  0.00    -0.009 C 
ATOM     16  C   UNL     1      -1.433  -0.534   0.013  0.00  0.00    +0.003 C 
ATOM     17  C   UNL     1      -2.149  -0.040   1.272  0.00  0.00    +0.000 C 
ATOM     18  C   UNL     1      -1.409  -0.547   2.511  0.00  0.00    +0.000 C 
ATOM     19  C   UNL     1       0.026  -0.018   2.500  0.00  0.00    +0.005 C 
ATOM     20  C   UNL     1       0.742  -0.511   1.242  0.00  0.00    +0.012 C 
ENDBRANCH  13  20
ENDBRANCH   1  13
TORSDOF 2
