REMARK  Name = ZINC11132395
REMARK  11 active torsions:
REMARK  status: ('A' for Active; 'I' for Inactive)
REMARK    1  A    between atoms: C_1  and  C_2
REMARK    2  A    between atoms: C_2  and  C_34
REMARK    3  A    between atoms: C_5  and  C_32
REMARK    4  A    between atoms: C_6  and  N_12
REMARK    5  A    between atoms: C_9  and  C_10
REMARK    6  A    between atoms: C_9  and  C_11
REMARK    7  A    between atoms: C_13  and  C_15
REMARK    8  A    between atoms: N_18  and  S_21
REMARK    9  A    between atoms: S_21  and  C_24
REMARK   10  A    between atoms: C_27  and  O_30
REMARK   11  A    between atoms: O_30  and  C_31
REMARK                            x       y       z     vdW  Elec       q    Type
REMARK                         _______ _______ _______ _____ _____    ______ ____
ROOT
ATOM      1  N   UNL     1       0.002  -0.004   0.002  0.00  0.00    -0.279 N 
ATOM      2  C   UNL     1       1.178  -0.662  -0.012  0.00  0.00    +0.221 C 
ATOM      3  O   UNL     1       2.220  -0.041  -0.018  0.00  0.00    -0.275 OA
ATOM      4  H   UNL     1      -0.831  -0.500   0.007  0.00  0.00    +0.155 HD
ENDROOT
BRANCH   1  10
ATOM      5  C   UNL     1      -2.352   7.112   0.667  0.00  0.00    -0.010 C 
ATOM      6  C   UNL     1      -1.333   5.961   0.765  0.00  0.00    -0.069 C 
ATOM      7  C   UNL     1      -1.926   4.745   0.047  0.00  0.00    +0.024 C 
ATOM      8  C   UNL     1      -0.864   3.654   0.028  0.00  0.00    -0.021 A 
ATOM      9  C   UNL     1      -1.119   2.228   0.031  0.00  0.00    +0.084 A 
ATOM     10  C   UNL     1      -0.017   1.384   0.010  0.00  0.00    +0.090 A 
ATOM     11  S   UNL     1       1.325   2.480   0.003  0.00  0.00    -0.078 S 
ATOM     12  C   UNL     1       0.440   4.013   0.018  0.00  0.00    -0.015 A 
ATOM     13  C   UNL     1       0.980   5.407   0.012  0.00  0.00    -0.041 C 
ATOM     14  C   UNL     1       2.013   5.559   1.137  0.00  0.00    -0.005 C 
ATOM     15  C   UNL     1       1.703   5.643  -1.329  0.00  0.00    -0.005 C 
ATOM     16  C   UNL     1      -1.142   5.626   2.248  0.00  0.00    -0.010 C 
ATOM     17  N   UNL     1      -0.078   6.449   0.141  0.00  0.00    +0.389 N 
ATOM     18  H   UNL     1       0.292   7.216   0.715  0.00  0.00    -0.084 HD
ATOM     19  H   UNL     1      -0.300   6.802  -0.798  0.00  0.00    -0.084 HD
BRANCH   9  20
ATOM     20  C   UNL     1      -2.450   1.700   0.044  0.00  0.00    +0.102 C 
ATOM     21  N   UNL     1      -3.505   1.282   0.054  0.00  0.00    -0.191 NA
ENDBRANCH   9  20
ENDBRANCH   1  10
BRANCH   2  22
ATOM     22  C   UNL     1       1.199  -2.169  -0.021  0.00  0.00    +0.078 C 
ATOM     23  C   UNL     1       0.494  -2.695   1.232  0.00  0.00    +0.030 C 
ATOM     24  C   UNL     1       0.486  -4.227   1.203  0.00  0.00    +0.110 C 
ATOM     25  N   UNL     1       1.867  -4.704   1.042  0.00  0.00    -0.177 NA
ATOM     26  C   UNL     1       2.665  -4.190  -0.080  0.00  0.00    +0.110 C 
ATOM     27  C   UNL     1       2.648  -2.659  -0.036  0.00  0.00    +0.030 C 
BRANCH  25  28
ATOM     28  S   UNL     1       2.510  -5.800   2.103  0.00  0.00    +0.061 S 
ATOM     29  O   UNL     1       1.415  -6.499   2.679  0.00  0.00    -0.153 OA
ATOM     30  O   UNL     1       3.561  -6.463   1.415  0.00  0.00    -0.153 OA
BRANCH  28  31
ATOM     31  C   UNL     1       3.262  -4.883   3.406  0.00  0.00    +0.106 A 
ATOM     32  C   UNL     1       4.591  -4.511   3.312  0.00  0.00    +0.032 A 
ATOM     33  C   UNL     1       5.181  -3.788   4.329  0.00  0.00    +0.047 A 
ATOM     34  C   UNL     1       4.443  -3.443   5.452  0.00  0.00    +0.120 A 
ATOM     35  C   UNL     1       3.112  -3.822   5.548  0.00  0.00    +0.047 A 
ATOM     36  C   UNL     1       2.525  -4.541   4.525  0.00  0.00    +0.032 A 
BRANCH  34  37
ATOM     37  O   UNL     1       5.023  -2.736   6.457  0.00  0.00    -0.495 OA
ATOM     38  C   UNL     1       6.397  -2.380   6.291  0.00  0.00    +0.277 C 
ENDBRANCH  34  37
ENDBRANCH  28  31
ENDBRANCH  25  28
ENDBRANCH   2  22
TORSDOF 6
