REMARK  Name = ZINC25534147
REMARK  10 active torsions:
REMARK  status: ('A' for Active; 'I' for Inactive)
REMARK    1  A    between atoms: C_1  and  C_2
REMARK    2  A    between atoms: C_2  and  C_4
REMARK    3  A    between atoms: C_2  and  N_18
REMARK    4  A    between atoms: N_6  and  C_7
REMARK    5  A    between atoms: C_8  and  C_15
REMARK    6  A    between atoms: N_18  and  C_19
REMARK    7  A    between atoms: N_18  and  C_20
REMARK    8  A    between atoms: C_20  and  C_21
REMARK    9  A    between atoms: C_26  and  O_27
REMARK   10  A    between atoms: O_27  and  C_28
REMARK                            x       y       z     vdW  Elec       q    Type
REMARK                         _______ _______ _______ _____ _____    ______ ____
ROOT
ATOM      1  C   UNL     1      -0.448   2.931  -5.136  0.00  0.00    -0.004 C 
ATOM      2  C   UNL     1      -1.803   2.255  -4.912  0.00  0.00    +0.016 C 
ENDROOT
BRANCH   2   3
ATOM      3  C   UNL     1      -2.257   2.497  -3.496  0.00  0.00    +0.204 C 
ATOM      4  O   UNL     1      -3.300   3.079  -3.285  0.00  0.00    -0.277 OA
ATOM      5  N   UNL     1      -1.504   2.067  -2.463  0.00  0.00    -0.281 N 
ATOM      6  H   UNL     1      -0.558   1.540  -2.655  0.00  0.00    +0.155 HD
BRANCH   5   7
ATOM      7  C   UNL     1      -1.923   2.290  -1.160  0.00  0.00    +0.084 A 
ATOM      8  C   UNL     1      -1.294   1.929   0.019  0.00  0.00    +0.068 A 
ATOM      9  C   UNL     1      -1.949   2.292   1.275  0.00  0.00    -0.023 A 
ATOM     10  C   UNL     1      -3.116   2.947   1.141  0.00  0.00    -0.004 A 
ATOM     11  S   UNL     1      -3.359   3.086  -0.613  0.00  0.00    -0.077 S 
ATOM     12  C   UNL     1      -3.727   3.290   2.473  0.00  0.00    +0.043 C 
ATOM     13  C   UNL     1      -2.568   3.137   3.483  0.00  0.00    +0.010 C 
ATOM     14  C   UNL     1      -1.659   2.119   2.766  0.00  0.00    +0.037 C 
BRANCH   8  15
ATOM     15  C   UNL     1      -0.014   1.213   0.009  0.00  0.00    +0.244 C 
ATOM     16  O   UNL     1       0.002  -0.004   0.002  0.00  0.00    -0.270 OA
ATOM     17  N   UNL     1       1.143   1.903   0.001  0.00  0.00    -0.325 N 
ATOM     18  H   UNL     1       2.103   1.366  -0.006  0.00  0.00    +0.145 HD
ATOM     19  H   UNL     1       1.129   3.002   0.003  0.00  0.00    +0.145 HD
ENDBRANCH   8  15
ENDBRANCH   5   7
ENDBRANCH   2   3
BRANCH   2  20
ATOM     20  N   UNL     1      -2.789   2.815  -5.845  0.00  0.00    +0.388 N 
ATOM     21  C   UNL     1      -2.842   4.279  -5.741  0.00  0.00    -0.095 C 
ATOM     22  H   UNL     1      -3.778   2.421  -5.568  0.00  0.00    -0.081 HD
BRANCH  20  23
ATOM     23  C   UNL     1      -2.506   2.395  -7.224  0.00  0.00    -0.039 C 
BRANCH  23  24
ATOM     24  C   UNL     1      -3.662   2.777  -8.113  0.00  0.00    -0.022 A 
ATOM     25  C   UNL     1      -4.598   1.828  -8.476  0.00  0.00    +0.005 A 
ATOM     26  C   UNL     1      -5.661   2.179  -9.287  0.00  0.00    +0.000 A 
ATOM     27  C   UNL     1      -5.785   3.478  -9.745  0.00  0.00    +0.004 A 
ATOM     28  C   UNL     1      -4.849   4.429  -9.389  0.00  0.00    +0.046 A 
ATOM     29  C   UNL     1      -3.784   4.081  -8.571  0.00  0.00    +0.131 A 
BRANCH  29  30
ATOM     30  O   UNL     1      -2.862   5.015  -8.220  0.00  0.00    -0.406 OA
BRANCH  30  31
ATOM     31  C   UNL     1      -3.051   6.337  -8.729  0.00  0.00    +0.575 C 
ATOM     32  F   UNL     1      -4.280   6.836  -8.284  0.00  0.00    -0.133 F 
ATOM     33  F   UNL     1      -2.019   7.164  -8.273  0.00  0.00    -0.133 F 
ATOM     34  F   UNL     1      -3.039   6.304 -10.127  0.00  0.00    -0.133 F 
ENDBRANCH  30  31
ENDBRANCH  29  30
ENDBRANCH  23  24
ENDBRANCH  20  23
ENDBRANCH   2  20
TORSDOF 8
