REMARK  Name = ZINC08545463
REMARK  6 active torsions:
REMARK  status: ('A' for Active; 'I' for Inactive)
REMARK    1  A    between atoms: C_1  and  C_2
REMARK    2  A    between atoms: C_10  and  C_11
REMARK    3  A    between atoms: C_11  and  O_13
REMARK    4  A    between atoms: O_13  and  C_14
REMARK    5  A    between atoms: C_14  and  C_15
REMARK    6  A    between atoms: C_28  and  C_30
REMARK                            x       y       z     vdW  Elec       q    Type
REMARK                         _______ _______ _______ _____ _____    ______ ____
ROOT
ATOM      1  C   UNL     1      -0.419   5.964   1.042  0.00  0.00    +0.258 C 
ATOM      2  O   UNL     1      -0.422   7.176   0.993  0.00  0.00    -0.271 OA
ATOM      3  N   UNL     1      -0.071   5.247  -0.045  0.00  0.00    -0.264 N 
ATOM      4  C   UNL     1      -0.062   3.845  -0.002  0.00  0.00    +0.058 A 
ATOM      5  C   UNL     1      -1.249   3.131   0.020  0.00  0.00    +0.025 A 
ATOM      6  C   UNL     1      -1.221   1.748   0.017  0.00  0.00    +0.002 A 
ATOM      7  C   UNL     1      -0.013   1.076   0.008  0.00  0.00    +0.002 A 
ATOM      8  C   UNL     1       1.177   1.781   0.000  0.00  0.00    +0.025 A 
ATOM      9  C   UNL     1       1.157   3.166  -0.000  0.00  0.00    +0.055 A 
ATOM     10  N   UNL     1       2.347   3.902   0.025  0.00  0.00    -0.284 N 
ATOM     11  C   UNL     1       2.540   4.924  -0.837  0.00  0.00    +0.219 C 
ATOM     12  O   UNL     1       3.541   5.604  -0.751  0.00  0.00    -0.275 OA
ATOM     13  C   UNL     1       1.522   5.224  -1.905  0.00  0.00    +0.118 C 
ATOM     14  C   UNL     1       0.304   5.916  -1.291  0.00  0.00    +0.087 C 
ATOM     15  C   UNL     1      -0.866   5.852  -2.275  0.00  0.00    +0.029 C 
ATOM     16  H   UNL     1       3.039   3.676   0.667  0.00  0.00    +0.155 HD
ENDROOT
BRANCH   1  17
ATOM     17  C   UNL     1      -0.803   5.261   2.318  0.00  0.00    +0.328 C 
BRANCH  17  18
ATOM     18  O   UNL     1      -1.132   6.246   3.333  0.00  0.00    -0.450 OA
BRANCH  18  19
ATOM     19  C   UNL     1      -1.499   5.779   4.544  0.00  0.00    +0.376 C 
ATOM     20  O   UNL     1      -1.543   4.580   4.745  0.00  0.00    -0.241 OA
BRANCH  19  30
ATOM     21  C   UNL     1      -2.375   4.963   7.415  0.00  0.00    +0.048 C 
ATOM     22  C   UNL     1      -2.229   6.362   6.873  0.00  0.00    +0.010 A 
ATOM     23  C   UNL     1      -2.471   7.612   7.592  0.00  0.00    +0.027 A 
ATOM     24  C   UNL     1      -2.877   7.925   8.892  0.00  0.00    +0.012 A 
ATOM     25  C   UNL     1      -3.012   9.232   9.264  0.00  0.00    +0.004 A 
ATOM     26  C   UNL     1      -2.749  10.252   8.360  0.00  0.00    +0.042 A 
ATOM     27  C   UNL     1      -2.346   9.965   7.071  0.00  0.00    +0.166 A 
ATOM     28  C   UNL     1      -2.202   8.640   6.670  0.00  0.00    +0.171 A 
ATOM     29  O   UNL     1      -1.828   8.062   5.512  0.00  0.00    -0.445 OA
ATOM     30  C   UNL     1      -1.847   6.716   5.619  0.00  0.00    +0.216 A 
ATOM     31  F   UNL     1      -2.093  10.968   6.202  0.00  0.00    -0.202 F 
ENDBRANCH  19  30
ENDBRANCH  18  19
ENDBRANCH  17  18
ENDBRANCH   1  17
TORSDOF 4
