REMARK  Name = ZINC02213602
REMARK  3 active torsions:
REMARK  status: ('A' for Active; 'I' for Inactive)
REMARK    1  A    between atoms: C_6  and  C_7
REMARK    2  A    between atoms: C_7  and  N_8
REMARK    3  A    between atoms: N_19  and  C_22
REMARK                            x       y       z     vdW  Elec       q    Type
REMARK                         _______ _______ _______ _____ _____    ______ ____
ROOT
ATOM      1  N   UNL     1      -0.455   1.324  -1.563  0.00  0.00    -0.283 N 
ATOM      2  C   UNL     1      -1.705   0.799  -1.757  0.00  0.00    +0.097 A 
ATOM      3  C   UNL     1      -2.672   1.482  -2.488  0.00  0.00    +0.074 A 
ATOM      4  C   UNL     1      -3.976   0.811  -2.615  0.00  0.00    -0.023 A 
ATOM      5  C   UNL     1      -4.075  -0.390  -2.022  0.00  0.00    -0.004 A 
ATOM      6  S   UNL     1      -2.487  -0.656  -1.271  0.00  0.00    -0.075 S 
ATOM      7  C   UNL     1      -5.435  -1.004  -2.213  0.00  0.00    +0.043 C 
ATOM      8  C   UNL     1      -6.053  -0.221  -3.393  0.00  0.00    +0.010 C 
ATOM      9  C   UNL     1      -5.306   1.125  -3.301  0.00  0.00    +0.037 C 
ATOM     10  C   UNL     1      -2.259   2.789  -3.042  0.00  0.00    +0.270 A 
ATOM     11  O   UNL     1      -3.038   3.455  -3.699  0.00  0.00    -0.266 OA
ATOM     12  N   UNL     1      -1.010   3.233  -2.810  0.00  0.00    -0.228 N 
ATOM     13  C   UNL     1      -0.128   2.521  -2.089  0.00  0.00    +0.338 A 
ATOM     14  O   UNL     1       0.989   2.965  -1.908  0.00  0.00    -0.246 OA
ENDROOT
BRANCH  12  15
ATOM     15  C   UNL     1      -0.619   4.472  -3.335  0.00  0.00    +0.054 A 
ATOM     16  C   UNL     1      -0.806   5.631  -2.594  0.00  0.00    +0.028 A 
ATOM     17  C   UNL     1      -0.414   6.851  -3.111  0.00  0.00    +0.022 A 
ATOM     18  C   UNL     1       0.155   6.919  -4.371  0.00  0.00    +0.041 A 
ATOM     19  C   UNL     1       0.338   5.765  -5.113  0.00  0.00    +0.022 A 
ATOM     20  C   UNL     1      -0.048   4.543  -4.598  0.00  0.00    +0.028 A 
ATOM     21 CL   UNL     1       0.640   8.454  -5.021  0.00  0.00    -0.084 Cl
ENDBRANCH  12  15
BRANCH   1  22
ATOM     22  C   UNL     1       0.535   0.578  -0.783  0.00  0.00    +0.162 C 
BRANCH  22  28
ATOM     23  C   UNL     1       1.178   2.015   1.162  0.00  0.00    +0.007 A 
ATOM     24  C   UNL     1       1.075   2.375   2.493  0.00  0.00    +0.020 A 
ATOM     25  C   UNL     1       0.227   1.676   3.334  0.00  0.00    +0.041 A 
ATOM     26  C   UNL     1      -0.521   0.622   2.841  0.00  0.00    +0.020 A 
ATOM     27  C   UNL     1      -0.421   0.267   1.509  0.00  0.00    +0.007 A 
ATOM     28  C   UNL     1       0.426   0.965   0.669  0.00  0.00    -0.027 A 
ATOM     29 CL   UNL     1       0.101   2.123   5.007  0.00  0.00    -0.084 Cl
ENDBRANCH  22  28
ENDBRANCH   1  22
TORSDOF 3
