REMARK  Name = ZINC49426164
REMARK  5 active torsions:
REMARK  status: ('A' for Active; 'I' for Inactive)
REMARK    1  A    between atoms: C_1  and  C_2
REMARK    2  A    between atoms: C_9  and  C_11
REMARK    3  A    between atoms: N_13  and  C_14
REMARK    4  A    between atoms: N_13  and  C_17
REMARK    5  A    between atoms: C_14  and  C_15
REMARK                            x       y       z     vdW  Elec       q    Type
REMARK                         _______ _______ _______ _____ _____    ______ ____
ROOT
ATOM      1  C   UNL     1       1.353   1.114  -1.297  0.00  0.00    +0.008 C 
ATOM      2  C   UNL     1       1.172  -0.390  -1.084  0.00  0.00    -0.009 C 
ATOM      3  C   UNL     1      -0.316  -0.741  -1.169  0.00  0.00    +0.009 C 
ATOM      4  C   UNL     1      -0.462  -2.267  -1.227  0.00  0.00    +0.043 C 
ATOM      5  C   UNL     1       0.385  -2.866  -0.142  0.00  0.00    -0.006 A 
ATOM      6  C   UNL     1       1.370  -2.239   0.564  0.00  0.00    -0.036 A 
ATOM      7  C   UNL     1       2.023  -2.995   1.526  0.00  0.00    +0.024 A 
ATOM      8  C   UNL     1       1.613  -4.307   1.674  0.00  0.00    +0.075 A 
ATOM      9  S   UNL     1       0.322  -4.426   0.450  0.00  0.00    -0.088 S 
ATOM     10  C   UNL     1       1.717  -0.778   0.291  0.00  0.00    +0.039 C 
ENDROOT
BRANCH   8  11
ATOM     11  C   UNL     1       2.111  -5.332   2.596  0.00  0.00    +0.254 C 
ATOM     12  O   UNL     1       3.091  -5.110   3.282  0.00  0.00    -0.269 OA
ATOM     13  N   UNL     1       1.482  -6.521   2.684  0.00  0.00    -0.281 N 
BRANCH  13  14
ATOM     14  C   UNL     1       1.941  -7.523   3.650  0.00  0.00    +0.078 C 
ATOM     15  C   UNL     1       1.247  -8.886   3.638  0.00  0.00    +0.024 C 
ATOM     16  C   UNL     1       0.984  -7.904   4.781  0.00  0.00    +0.024 C 
ENDBRANCH  13  14
BRANCH  13  17
ATOM     17  C   UNL     1       0.340  -6.812   1.814  0.00  0.00    +0.227 C 
BRANCH  17  18
ATOM     18  C   UNL     1       0.827  -7.278   0.505  0.00  0.00    +0.082 C 
ATOM     19  N   UNL     1       1.202  -7.637  -0.505  0.00  0.00    -0.195 NA
ENDBRANCH  17  18
ENDBRANCH  13  17
ENDBRANCH   8  11
TORSDOF 4
