REMARK  Name = ZINC04073939
REMARK  7 active torsions:
REMARK  status: ('A' for Active; 'I' for Inactive)
REMARK    1  A    between atoms: C_1  and  C_2
REMARK    2  A    between atoms: C_2  and  O_4
REMARK    3  A    between atoms: O_4  and  C_5
REMARK    4  A    between atoms: C_11  and  C_32
REMARK    5  A    between atoms: C_19  and  O_31
REMARK    6  A    between atoms: C_23  and  C_30
REMARK    7  A    between atoms: C_26  and  O_29
REMARK                            x       y       z     vdW  Elec       q    Type
REMARK                         _______ _______ _______ _____ _____    ______ ____
ROOT
ATOM      1  C   UNL     1      -0.604   1.993   1.351  0.00  0.00    +0.183 C 
ATOM      2  C   UNL     1       0.593   2.076   2.319  0.00  0.00    +0.045 C 
ATOM      3  C   UNL     1       1.870   1.879   1.480  0.00  0.00    +0.008 C 
ATOM      4  C   UNL     1       1.429   2.036  -0.001  0.00  0.00    +0.002 C 
ATOM      5  C   UNL     1      -0.019   1.533   0.011  0.00  0.00    +0.008 C 
ATOM      6  C   UNL     1      -0.832   1.992  -1.176  0.00  0.00    +0.011 C 
ATOM      7  C   UNL     1      -0.724   3.502  -1.393  0.00  0.00    +0.005 C 
ATOM      8  C   UNL     1       0.742   3.860  -1.619  0.00  0.00    -0.001 C 
ATOM      9  C   UNL     1       1.560   3.502  -0.385  0.00  0.00    -0.001 C 
ATOM     10  C   UNL     1       1.188   4.436   0.765  0.00  0.00    +0.035 C 
ATOM     11  C   UNL     1       1.613   5.854   0.361  0.00  0.00    +0.119 C 
ATOM     12  C   UNL     1       0.817   6.299  -0.863  0.00  0.00    +0.026 C 
ATOM     13  C   UNL     1       0.918   5.320  -2.015  0.00  0.00    -0.024 C 
ATOM     14  C   UNL     1      -0.019   5.676  -3.168  0.00  0.00    +0.010 C 
ATOM     15  C   UNL     1      -1.413   6.107  -2.750  0.00  0.00    +0.032 C 
ATOM     16  C   UNL     1      -1.356   7.185  -1.668  0.00  0.00    +0.115 C 
ATOM     17  C   UNL     1      -0.623   6.600  -0.458  0.00  0.00    +0.038 C 
ATOM     18  C   UNL     1       2.354   5.456  -2.598  0.00  0.00    +0.012 C 
ATOM     19  C   UNL     1       0.002  -0.004   0.002  0.00  0.00    +0.015 C 
ENDROOT
BRANCH  16  20
ATOM     20  O   UNL     1      -2.680   7.561  -1.290  0.00  0.00    -0.392 OA
ATOM     21  H   UNL     1      -3.210   7.916  -2.017  0.00  0.00    +0.210 HD
ENDBRANCH  16  20
BRANCH  11  22
ATOM     22  O   UNL     1       1.368   6.746   1.451  0.00  0.00    -0.391 OA
ATOM     23  H   UNL     1       1.848   6.520   2.259  0.00  0.00    +0.210 HD
ENDBRANCH  11  22
BRANCH   1  24
ATOM     24  O   UNL     1      -1.567   1.017   1.834  0.00  0.00    -0.461 OA
BRANCH  24  26
ATOM     25  C   UNL     1      -3.615   0.526   3.122  0.00  0.00    +0.136 C 
ATOM     26  C   UNL     1      -2.578   1.479   2.586  0.00  0.00    +0.304 C 
ATOM     27  O   UNL     1      -2.658   2.659   2.833  0.00  0.00    -0.251 OA
ENDBRANCH  24  26
ENDBRANCH   1  24
TORSDOF 4
