REMARK  Name = ZINC38789395
REMARK  9 active torsions:
REMARK  status: ('A' for Active; 'I' for Inactive)
REMARK    1  A    between atoms: C_1  and  C_2
REMARK    2  A    between atoms: C_4  and  C_26
REMARK    3  A    between atoms: C_7  and  C_14
REMARK    4  A    between atoms: C_14  and  N_15
REMARK    5  A    between atoms: N_15  and  C_16
REMARK    6  A    between atoms: C_19  and  O_24
REMARK    7  A    between atoms: C_21  and  O_22
REMARK    8  A    between atoms: O_22  and  C_23
REMARK    9  A    between atoms: O_24  and  C_25
REMARK                            x       y       z     vdW  Elec       q    Type
REMARK                         _______ _______ _______ _____ _____    ______ ____
ROOT
ATOM      1  C   UNL     1      -0.018   1.503   0.010  0.00  0.00    +0.044 C 
ATOM      2  C   UNL     1       0.002  -0.004   0.002  0.00  0.00    -0.048 A 
ATOM      3  C   UNL     1       0.005  -0.667  -1.226  0.00  0.00    +0.007 A 
ATOM      4  C   UNL     1       0.023  -2.023  -1.297  0.00  0.00    -0.042 A 
ATOM      5  C   UNL     1       0.040  -2.795  -0.054  0.00  0.00    -0.004 A 
ATOM      6  C   UNL     1       0.059  -4.158  -0.077  0.00  0.00    -0.003 C 
ATOM      7  C   UNL     1       0.076  -4.876   1.258  0.00  0.00    +0.115 C 
ATOM      8  C   UNL     1       0.071  -4.022   2.506  0.00  0.00    +0.226 C 
ATOM      9  O   UNL     1       0.085  -4.546   3.604  0.00  0.00    -0.275 OA
ATOM     10  N   UNL     1       0.052  -2.704   2.399  0.00  0.00    -0.284 N 
ATOM     11  C   UNL     1       0.037  -2.069   1.228  0.00  0.00    +0.041 A 
ATOM     12  C   UNL     1       0.022  -0.662   1.190  0.00  0.00    +0.027 A 
ATOM     13  C   UNL     1       0.025  -2.720  -2.633  0.00  0.00    +0.044 C 
ATOM     14  H   UNL     1       0.049  -2.175   3.212  0.00  0.00    +0.155 HD
ENDROOT
BRANCH   7  15
ATOM     15  C   UNL     1      -1.146  -5.794   1.313  0.00  0.00    +0.118 C 
BRANCH  15  16
ATOM     16  N   UNL     1      -1.101  -6.594   2.539  0.00  0.00    -0.340 N 
ATOM     17  H   UNL     1      -0.365  -6.487   3.162  0.00  0.00    +0.146 HD
BRANCH  16  18
ATOM     18  C   UNL     1      -2.122  -7.516   2.813  0.00  0.00    +0.070 A 
ATOM     19  C   UNL     1      -3.171  -7.674   1.921  0.00  0.00    +0.030 A 
ATOM     20  C   UNL     1      -4.178  -8.583   2.191  0.00  0.00    +0.047 A 
ATOM     21  C   UNL     1      -4.140  -9.338   3.354  0.00  0.00    +0.124 A 
ATOM     22  C   UNL     1      -3.092  -9.182   4.249  0.00  0.00    +0.093 A 
ATOM     23  C   UNL     1      -2.079  -8.277   3.979  0.00  0.00    +0.144 A 
BRANCH  23  24
ATOM     24  O   UNL     1      -1.048  -8.128   4.853  0.00  0.00    -0.493 OA
ATOM     25  C   UNL     1      -1.070  -8.941   6.027  0.00  0.00    +0.277 C 
ENDBRANCH  23  24
BRANCH  21  26
ATOM     26  O   UNL     1      -5.131 -10.231   3.616  0.00  0.00    -0.495 OA
ATOM     27  C   UNL     1      -6.179 -10.339   2.651  0.00  0.00    +0.277 C 
ENDBRANCH  21  26
ENDBRANCH  16  18
ENDBRANCH  15  16
ENDBRANCH   7  15
TORSDOF 5
