REMARK  Name = ZINC28053351
REMARK  4 active torsions:
REMARK  status: ('A' for Active; 'I' for Inactive)
REMARK    1  A    between atoms: C_1  and  O_2
REMARK    2  A    between atoms: O_2  and  C_3
REMARK    3  A    between atoms: C_8  and  C_9
REMARK    4  A    between atoms: C_26  and  C_28
REMARK                            x       y       z     vdW  Elec       q    Type
REMARK                         _______ _______ _______ _____ _____    ______ ____
ROOT
ATOM      1  C   UNL     1      -1.708   4.720  -0.903  0.00  0.00    +0.238 C 
ATOM      2  C   UNL     1      -0.986   5.977  -0.474  0.00  0.00    +0.026 C 
ATOM      3  C   UNL     1       0.319   5.916  -0.198  0.00  0.00    +0.050 C 
ATOM      4  C   UNL     1       1.002   4.605  -0.304  0.00  0.00    +0.038 A 
ATOM      5  C   UNL     1       2.386   4.509  -0.368  0.00  0.00    +0.013 A 
ATOM      6  C   UNL     1       2.979   3.265  -0.466  0.00  0.00    +0.001 A 
ATOM      7  C   UNL     1       2.201   2.121  -0.499  0.00  0.00    +0.004 A 
ATOM      8  C   UNL     1       0.822   2.207  -0.442  0.00  0.00    +0.046 A 
ATOM      9  C   UNL     1       0.216   3.446  -0.339  0.00  0.00    +0.131 A 
ATOM     10  O   UNL     1      -1.134   3.573  -0.277  0.00  0.00    -0.479 OA
ATOM     11  N   UNL     1       1.054   7.041   0.193  0.00  0.00    -0.282 N 
ATOM     12  C   UNL     1       0.340   8.171   0.559  0.00  0.00    +0.240 A 
ATOM     13  N   UNL     1       0.710   9.262   1.165  0.00  0.00    -0.092 NA
ATOM     14  N   UNL     1      -0.296  10.055   1.311  0.00  0.00    -0.021 NA
ATOM     15  N   UNL     1      -1.364   9.525   0.808  0.00  0.00    -0.042 NA
ATOM     16  N   UNL     1      -0.988   8.283   0.297  0.00  0.00    -0.201 N 
ATOM     17  C   UNL     1      -1.770   7.263  -0.388  0.00  0.00    +0.174 C 
ATOM     18  H   UNL     1       2.153   7.005   0.200  0.00  0.00    +0.155 HD
ENDROOT
BRANCH   1  24
ATOM     19  C   UNL     1      -2.687   4.892  -3.205  0.00  0.00    +0.127 A 
ATOM     20  C   UNL     1      -2.588   4.756  -4.582  0.00  0.00    +0.046 A 
ATOM     21  C   UNL     1      -1.412   4.303  -5.147  0.00  0.00    +0.004 A 
ATOM     22  C   UNL     1      -0.333   3.985  -4.341  0.00  0.00    +0.001 A 
ATOM     23  C   UNL     1      -0.428   4.125  -2.969  0.00  0.00    +0.011 A 
ATOM     24  C   UNL     1      -1.604   4.573  -2.399  0.00  0.00    +0.039 A 
BRANCH  19  26
ATOM     25  C   UNL     1      -4.956   5.526  -3.522  0.00  0.00    +0.277 C 
ATOM     26  O   UNL     1      -3.843   5.337  -2.646  0.00  0.00    -0.495 OA
ENDBRANCH  19  26
ENDBRANCH   1  24
BRANCH  17  27
ATOM     27  C   UNL     1      -2.104   7.739  -1.778  0.00  0.00    -0.019 A 
ATOM     28  C   UNL     1      -1.101   7.885  -2.718  0.00  0.00    +0.006 A 
ATOM     29  C   UNL     1      -1.408   8.317  -3.995  0.00  0.00    +0.000 A 
ATOM     30  C   UNL     1      -2.717   8.612  -4.328  0.00  0.00    +0.000 A 
ATOM     31  C   UNL     1      -3.719   8.472  -3.387  0.00  0.00    +0.000 A 
ATOM     32  C   UNL     1      -3.413   8.035  -2.111  0.00  0.00    +0.006 A 
ENDBRANCH  17  27
TORSDOF 3
