REMARK  Name = ZINC43736507
REMARK  13 active torsions:
REMARK  status: ('A' for Active; 'I' for Inactive)
REMARK    1  A    between atoms: C_1  and  C_2
REMARK    2  A    between atoms: C_3  and  C_34
REMARK    3  A    between atoms: C_9  and  C_33
REMARK    4  A    between atoms: C_22  and  C_32
REMARK    5  A    between atoms: C_25  and  O_28
REMARK    6  A    between atoms: O_28  and  C_29
REMARK    7  A    between atoms: C_29  and  C_31
REMARK    8  A    between atoms: C_34  and  C_35
REMARK    9  A    between atoms: C_35  and  C_36
REMARK   10  A    between atoms: C_36  and  C_38
REMARK   11  A    between atoms: C_36  and  C_39
REMARK   12  A    between atoms: C_39  and  N_40
REMARK   13  A    between atoms: C_41  and  C_43
REMARK                            x       y       z     vdW  Elec       q    Type
REMARK                         _______ _______ _______ _____ _____    ______ ____
ROOT
ATOM      1  C   UNL     1      -0.018   1.503   0.010  0.00  0.00    +0.043 C 
ATOM      2  C   UNL     1       0.002  -0.004   0.002  0.00  0.00    -0.028 C 
ATOM      3  C   UNL     1       0.009  -0.822  -1.067  0.00  0.00    +0.098 C 
ATOM      4  O   UNL     1      -0.012  -2.156  -0.685  0.00  0.00    -0.493 OA
ATOM      5  C   UNL     1      -0.745  -2.134   0.506  0.00  0.00    +0.181 C 
ATOM      6  C   UNL     1       0.025  -0.915   1.165  0.00  0.00    +0.065 C 
ATOM      7  C   UNL     1      -0.737  -0.743   2.461  0.00  0.00    -0.019 C 
ATOM      8  C   UNL     1       0.127  -0.009   3.465  0.00  0.00    +0.008 C 
ATOM      9  C   UNL     1      -0.070  -0.492   4.894  0.00  0.00    +0.005 C 
ATOM     10  C   UNL     1       0.259  -1.990   4.928  0.00  0.00    +0.003 C 
ATOM     11  C   UNL     1      -0.845  -2.719   4.176  0.00  0.00    +0.000 C 
ATOM     12  C   UNL     1      -1.147  -2.163   2.833  0.00  0.00    +0.003 C 
ATOM     13  C   UNL     1      -0.705  -3.091   1.671  0.00  0.00    +0.049 C 
ATOM     14  C   UNL     1      -0.492  -4.209   4.116  0.00  0.00    +0.031 C 
ATOM     15  C   UNL     1      -0.272  -4.713   5.514  0.00  0.00    -0.027 C 
ATOM     16  C   UNL     1       0.097  -3.948   6.499  0.00  0.00    -0.064 C 
ATOM     17  C   UNL     1       0.341  -2.471   6.367  0.00  0.00    -0.008 C 
ATOM     18  C   UNL     1       1.711  -2.126   6.958  0.00  0.00    +0.015 C 
ATOM     19  C   UNL     1       1.792  -2.647   8.394  0.00  0.00    +0.046 C 
ATOM     20  C   UNL     1       1.676  -4.172   8.394  0.00  0.00    +0.180 C 
ATOM     21  C   UNL     1       0.292  -4.580   7.866  0.00  0.00    +0.075 C 
ATOM     22  C   UNL     1      -0.721  -1.734   7.184  0.00  0.00    +0.016 C 
ATOM     23  C   UNL     1      -1.993   0.090   2.197  0.00  0.00    +0.012 C 
ENDROOT
BRANCH  20  24
ATOM     24  O   UNL     1       2.690  -4.728   7.555  0.00  0.00    -0.461 OA
BRANCH  24  25
ATOM     25  C   UNL     1       3.151  -5.946   7.880  0.00  0.00    +0.304 C 
ATOM     26  O   UNL     1       2.708  -6.521   8.845  0.00  0.00    -0.251 OA
ATOM     27  C   UNL     1       4.221  -6.595   7.040  0.00  0.00    +0.136 C 
ENDBRANCH  24  25
ENDBRANCH  20  24
BRANCH   3  28
ATOM     28  C   UNL     1       0.036  -0.349  -2.497  0.00  0.00    +0.074 C 
BRANCH  28  29
ATOM     29  C   UNL     1       1.481  -0.325  -2.999  0.00  0.00    +0.012 C 
BRANCH  29  30
ATOM     30  C   UNL     1       1.508   0.156  -4.452  0.00  0.00    +0.003 C 
ATOM     31  C   UNL     1       1.032   1.608  -4.518  0.00  0.00    +0.009 C 
BRANCH  30  32
ATOM     32  C   UNL     1       2.936   0.062  -4.993  0.00  0.00    +0.107 C 
BRANCH  32  33
ATOM     33  N   UNL     1       2.942   0.408  -6.417  0.00  0.00    -0.315 N 
ATOM     34  C   UNL     1       4.098   0.394  -7.109  0.00  0.00    +0.210 C 
ATOM     35  O   UNL     1       5.134   0.095  -6.553  0.00  0.00    -0.276 OA
ATOM     36  C   UNL     1       4.104   0.749  -8.573  0.00  0.00    +0.109 C 
ATOM     37  H   UNL     1       2.114   0.647  -6.862  0.00  0.00    +0.149 HD
ENDBRANCH  32  33
ENDBRANCH  30  32
ENDBRANCH  29  30
ENDBRANCH  28  29
ENDBRANCH   3  28
TORSDOF 7
