REMARK  Name = ZINC37791297
REMARK  8 active torsions:
REMARK  status: ('A' for Active; 'I' for Inactive)
REMARK    1  A    between atoms: C_1  and  C_2
REMARK    2  A    between atoms: C_6  and  O_20
REMARK    3  A    between atoms: C_7  and  N_8
REMARK    4  A    between atoms: N_8  and  S_9
REMARK    5  A    between atoms: S_9  and  C_12
REMARK    6  A    between atoms: C_13  and  C_19
REMARK    7  A    between atoms: C_17  and  C_18
REMARK    8  A    between atoms: O_20  and  C_21
REMARK                            x       y       z     vdW  Elec       q    Type
REMARK                         _______ _______ _______ _____ _____    ______ ____
ROOT
ATOM      1  N   UNL     1      -0.619   0.931   2.960  0.00  0.00    -0.212 N 
ATOM      2  H   UNL     1      -1.271   1.136   3.649  0.00  0.00    +0.174 HD
ENDROOT
BRANCH   1   9
ATOM      3  C   UNL     1      -2.679   2.702   2.120  0.00  0.00    +0.046 C 
ATOM      4  C   UNL     1      -1.290   2.765   1.540  0.00  0.00    -0.023 A 
ATOM      5  C   UNL     1      -0.985   3.708   0.576  0.00  0.00    +0.020 A 
ATOM      6  C   UNL     1       0.289   3.768   0.042  0.00  0.00    +0.022 A 
ATOM      7  C   UNL     1       1.266   2.886   0.471  0.00  0.00    +0.062 A 
ATOM      8  C   UNL     1       0.968   1.940   1.436  0.00  0.00    +0.144 A 
ATOM      9  C   UNL     1      -0.314   1.882   1.979  0.00  0.00    +0.093 A 
ATOM     10 BR   UNL     1       0.698   5.060  -1.278  0.00  0.00    -0.050 Br
BRANCH   8  11
ATOM     11  O   UNL     1       1.926   1.072   1.858  0.00  0.00    -0.493 OA
ATOM     12  C   UNL     1       3.180   1.107   1.173  0.00  0.00    +0.277 C 
ENDBRANCH   8  11
ENDBRANCH   1   9
BRANCH   1  13
ATOM     13  S   UNL     1       0.134  -0.544   2.946  0.00  0.00    +0.076 S 
ATOM     14  O   UNL     1      -0.694  -1.430   3.687  0.00  0.00    -0.150 OA
ATOM     15  O   UNL     1       0.506  -0.796   1.598  0.00  0.00    -0.150 OA
BRANCH  13  16
ATOM     16  C   UNL     1       1.632  -0.373   3.858  0.00  0.00    +0.151 A 
ATOM     17  C   UNL     1       2.582  -1.323   4.014  0.00  0.00    +0.060 A 
ATOM     18  N   UNL     1       3.565  -0.802   4.777  0.00  0.00    -0.280 N 
ATOM     19  H   UNL     1       4.377  -1.256   5.052  0.00  0.00    +0.189 HD
ATOM     20  N   UNL     1       3.207   0.513   5.101  0.00  0.00    -0.177 NA
ATOM     21  C   UNL     1       2.051   0.771   4.545  0.00  0.00    +0.087 A 
ATOM     22  C   UNL     1       1.299   2.074   4.633  0.00  0.00    +0.069 C 
ATOM     23  C   UNL     1       2.549  -2.716   3.438  0.00  0.00    +0.067 C 
ENDBRANCH  13  16
ENDBRANCH   1  13
TORSDOF 4
