REMARK  Name = ZINC02116254
REMARK  13 active torsions:
REMARK  status: ('A' for Active; 'I' for Inactive)
REMARK    1  A    between atoms: C_1  and  C_2
REMARK    2  A    between atoms: C_2  and  C_3
REMARK    3  A    between atoms: C_3  and  C_4
REMARK    4  A    between atoms: C_4  and  C_5
REMARK    5  A    between atoms: C_10  and  O_11
REMARK    6  A    between atoms: O_11  and  C_12
REMARK    7  A    between atoms: C_12  and  C_14
REMARK    8  A    between atoms: C_14  and  C_16
REMARK    9  A    between atoms: C_14  and  N_60
REMARK   10  A    between atoms: C_16  and  C_17
REMARK   11  A    between atoms: C_20  and  O_23
REMARK   12  A    between atoms: C_28  and  C_31
REMARK   13  A    between atoms: C_34  and  C_36
REMARK                            x       y       z     vdW  Elec       q    Type
REMARK                         _______ _______ _______ _____ _____    ______ ____
ROOT
ATOM      1  C   UNL     1       0.680  -1.994  -1.144  0.00  0.00    -0.004 A 
ATOM      2  C   UNL     1       1.771  -2.653  -0.652  0.00  0.00    +0.022 A 
ATOM      3  C   UNL     1       1.853  -4.040  -0.773  0.00  0.00    +0.065 A 
ATOM      4  C   UNL     1       0.822  -4.763  -1.397  0.00  0.00    +0.142 A 
ATOM      5  C   UNL     1      -0.280  -4.077  -1.892  0.00  0.00    +0.093 A 
ATOM      6  C   UNL     1      -0.350  -2.700  -1.760  0.00  0.00    +0.138 A 
ATOM      7  O   UNL     1       0.904  -6.103  -1.514  0.00  0.00    -0.462 OA
ATOM      8  C   UNL     1       1.938  -6.816  -1.059  0.00  0.00    +0.209 A 
ATOM      9  C   UNL     1       3.001  -6.247  -0.436  0.00  0.00    +0.083 A 
ATOM     10  C   UNL     1       3.015  -4.785  -0.254  0.00  0.00    +0.202 A 
ATOM     11  O   UNL     1       3.943  -4.219   0.298  0.00  0.00    -0.286 OA
ENDROOT
BRANCH   9  12
ATOM     12  C   UNL     1       4.127  -7.080   0.052  0.00  0.00    +0.085 A 
ATOM     13  C   UNL     1       4.123  -8.439  -0.112  0.00  0.00    +0.075 A 
ATOM     14  S   UNL     1       5.681  -8.868   0.650  0.00  0.00    -0.080 S 
ATOM     15  C   UNL     1       6.167  -7.262   1.095  0.00  0.00    +0.076 A 
ATOM     16  N   UNL     1       5.170  -6.533   0.656  0.00  0.00    -0.244 NA
ATOM     17  C   UNL     1       7.421  -6.818   1.803  0.00  0.00    +0.073 C 
ENDBRANCH   9  12
BRANCH   1  18
ATOM     18  C   UNL     1       0.588  -0.495  -1.014  0.00  0.00    +0.039 C 
BRANCH  18  19
ATOM     19  C   UNL     1      -0.217  -0.140   0.238  0.00  0.00    +0.004 C 
BRANCH  19  21
ATOM     20  C   UNL     1      -1.115   1.736   1.621  0.00  0.00    +0.004 C 
ATOM     21  C   UNL     1      -0.310   1.381   0.369  0.00  0.00    -0.003 C 
ENDBRANCH  19  21
ENDBRANCH  18  19
ENDBRANCH   1  18
BRANCH   6  22
ATOM     22  O   UNL     1      -1.431  -2.033  -2.240  0.00  0.00    -0.427 OA
BRANCH  22  23
ATOM     23  C   UNL     1      -1.337  -1.533  -3.482  0.00  0.00    +0.298 C 
ATOM     24  O   UNL     1      -0.363  -1.770  -4.157  0.00  0.00    -0.252 OA
BRANCH  23  25
ATOM     25  C   UNL     1      -2.446  -0.675  -4.035  0.00  0.00    +0.041 C 
BRANCH  25  28
ATOM     26  H   UNL     1      -1.476  -0.272  -5.806  0.00  0.00    -0.089 HD
ATOM     27  H   UNL     1      -2.513  -1.570  -5.888  0.00  0.00    -0.089 HD
ATOM     28  N   UNL     1      -2.380  -0.635  -5.507  0.00  0.00    +0.387 N 
ATOM     29  H   UNL     1      -3.122  -0.020  -5.861  0.00  0.00    -0.089 HD
ENDBRANCH  25  28
BRANCH  25  30
ATOM     30  C   UNL     1      -2.308   0.749  -3.493  0.00  0.00    +0.030 C 
BRANCH  30  31
ATOM     31  C   UNL     1      -3.483   1.575  -3.947  0.00  0.00    -0.048 A 
ATOM     32  C   UNL     1      -3.417   2.276  -5.137  0.00  0.00    +0.007 A 
ATOM     33  C   UNL     1      -4.495   3.029  -5.558  0.00  0.00    +0.045 A 
ATOM     34  C   UNL     1      -5.642   3.092  -4.780  0.00  0.00    +0.117 A 
ATOM     35  C   UNL     1      -5.704   2.393  -3.583  0.00  0.00    +0.045 A 
ATOM     36  C   UNL     1      -4.625   1.637  -3.169  0.00  0.00    +0.007 A 
BRANCH  34  37
ATOM     37  O   UNL     1      -6.702   3.837  -5.189  0.00  0.00    -0.507 OA
ATOM     38  H   UNL     1      -6.681   4.754  -4.881  0.00  0.00    +0.292 HD
ENDBRANCH  34  37
ENDBRANCH  30  31
ENDBRANCH  25  30
ENDBRANCH  23  25
ENDBRANCH  22  23
ENDBRANCH   6  22
TORSDOF 11
