REMARK  Name = ZINC39030214
REMARK  7 active torsions:
REMARK  status: ('A' for Active; 'I' for Inactive)
REMARK    1  A    between atoms: C_1  and  C_2
REMARK    2  A    between atoms: N_10  and  C_11
REMARK    3  A    between atoms: C_11  and  C_13
REMARK    4  A    between atoms: C_13  and  S_14
REMARK    5  A    between atoms: S_14  and  C_15
REMARK    6  A    between atoms: C_18  and  S_21
REMARK    7  A    between atoms: S_21  and  C_22
REMARK                            x       y       z     vdW  Elec       q    Type
REMARK                         _______ _______ _______ _____ _____    ______ ____
ROOT
ATOM      1  C   UNL     1      -0.048   1.503   0.013  0.00  0.00    +0.044 C 
ATOM      2  C   UNL     1      -0.020  -0.004   0.004  0.00  0.00    -0.049 A 
ATOM      3  C   UNL     1      -0.004  -0.696  -1.195  0.00  0.00    +0.005 A 
ATOM      4  C   UNL     1       0.021  -2.071  -1.224  0.00  0.00    +0.027 A 
ATOM      5  C   UNL     1       0.033  -2.809  -0.033  0.00  0.00    +0.055 A 
ATOM      6  C   UNL     1       0.018  -2.084   1.167  0.00  0.00    +0.039 A 
ATOM      7  C   UNL     1      -0.002  -0.709   1.194  0.00  0.00    +0.020 A 
ATOM      8  S   UNL     1       0.040  -3.353   2.406  0.00  0.00    -0.052 S 
ATOM      9  C   UNL     1       0.067  -4.698   1.399  0.00  0.00    +0.164 A 
ATOM     10  N   UNL     1       0.090  -5.982   1.752  0.00  0.00    -0.156 NA
ATOM     11  N   UNL     1       0.059  -4.180   0.145  0.00  0.00    -0.335 N 
ATOM     12  H   UNL     1       0.071  -4.770  -0.625  0.00  0.00    +0.168 HD
ENDROOT
BRANCH  10  13
ATOM     13  C   UNL     1      -0.002  -6.928   0.823  0.00  0.00    +0.248 C 
ATOM     14  O   UNL     1      -0.013  -6.625  -0.354  0.00  0.00    -0.273 OA
BRANCH  13  15
ATOM     15  C   UNL     1      -0.094  -8.376   1.230  0.00  0.00    +0.169 C 
BRANCH  15  16
ATOM     16  S   UNL     1      -0.209  -9.414  -0.253  0.00  0.00    -0.117 S 
BRANCH  16  17
ATOM     17  C   UNL     1      -0.311 -11.103   0.401  0.00  0.00    +0.213 C 
ATOM     18  N   UNL     1      -1.440 -11.248   1.349  0.00  0.00    -0.302 N 
ATOM     19  C   UNL     1      -1.034 -11.575   2.611  0.00  0.00    +0.163 C 
ATOM     20  N   UNL     1       0.207 -11.738   2.935  0.00  0.00    -0.190 NA
ATOM     21  S   UNL     1       1.090 -11.470   1.533  0.00  0.00    +0.011 S 
ATOM     22  H   UNL     1      -2.370 -11.124   1.100  0.00  0.00    +0.150 HD
BRANCH  19  23
ATOM     23  S   UNL     1      -2.260 -11.783   3.860  0.00  0.00    -0.093 S 
ATOM     24  C   UNL     1      -1.307 -12.201   5.345  0.00  0.00    +0.093 C 
ENDBRANCH  19  23
ENDBRANCH  16  17
ENDBRANCH  15  16
ENDBRANCH  13  15
ENDBRANCH  10  13
TORSDOF 5
