REMARK  Name = ZINC58104689
REMARK  4 active torsions:
REMARK  status: ('A' for Active; 'I' for Inactive)
REMARK    1  A    between atoms: C_1  and  S_2
REMARK    2  A    between atoms: S_2  and  C_3
REMARK    3  A    between atoms: C_6  and  C_9
REMARK    4  A    between atoms: C_26  and  C_28
REMARK                            x       y       z     vdW  Elec       q    Type
REMARK                         _______ _______ _______ _____ _____    ______ ____
ROOT
ATOM      1  C   UNL     1      -5.834  -1.544   0.050  0.00  0.00    +0.215 C 
ATOM      2  C   UNL     1      -6.251  -1.918   1.471  0.00  0.00    +0.113 C 
ATOM      3  C   UNL     1      -5.352  -3.080   1.863  0.00  0.00    +0.065 C 
ATOM      4  C   UNL     1      -5.181  -4.146   0.869  0.00  0.00    +0.039 A 
ATOM      5  C   UNL     1      -4.681  -5.399   1.221  0.00  0.00    +0.013 A 
ATOM      6  C   UNL     1      -4.529  -6.369   0.252  0.00  0.00    +0.001 A 
ATOM      7  C   UNL     1      -4.871  -6.098  -1.064  0.00  0.00    +0.004 A 
ATOM      8  C   UNL     1      -5.370  -4.861  -1.423  0.00  0.00    +0.046 A 
ATOM      9  C   UNL     1      -5.536  -3.872  -0.465  0.00  0.00    +0.130 A 
ATOM     10  O   UNL     1      -6.039  -2.664  -0.814  0.00  0.00    -0.483 OA
ATOM     11  N   UNL     1      -4.734  -3.064   2.997  0.00  0.00    -0.215 NA
ATOM     12  C   UNL     1      -4.735  -2.017   3.859  0.00  0.00    +0.249 A 
ATOM     13  N   UNL     1      -4.171  -1.894   5.056  0.00  0.00    -0.198 NA
ATOM     14  C   UNL     1      -4.395  -0.678   5.540  0.00  0.00    +0.247 A 
ATOM     15  N   UNL     1      -5.109   0.006   4.684  0.00  0.00    -0.156 NA
ATOM     16  N   UNL     1      -5.361  -0.842   3.599  0.00  0.00    -0.221 N 
ATOM     17  C   UNL     1      -6.141  -0.669   2.364  0.00  0.00    +0.160 C 
ENDROOT
BRANCH   1  21
ATOM     18  C   UNL     1      -1.702  -0.454   0.016  0.00  0.00    +0.008 A 
ATOM     19  C   UNL     1      -2.074  -1.778  -0.181  0.00  0.00    +0.015 A 
ATOM     20  C   UNL     1      -3.410  -2.126  -0.170  0.00  0.00    +0.008 A 
ATOM     21  C   UNL     1      -4.377  -1.159   0.038  0.00  0.00    -0.007 A 
ATOM     22  C   UNL     1      -4.010   0.160   0.234  0.00  0.00    +0.008 A 
ATOM     23  C   UNL     1      -2.676   0.514   0.230  0.00  0.00    +0.015 A 
BRANCH  18  25
ATOM     24  C   UNL     1       0.866  -1.569  -0.306  0.00  0.00    +0.090 C 
ATOM     25  S   UNL     1       0.002  -0.004   0.002  0.00  0.00    -0.129 S 
ENDBRANCH  18  25
ENDBRANCH   1  21
BRANCH  17  26
ATOM     26  C   UNL     1      -7.534  -0.233   2.741  0.00  0.00    +0.015 A 
ATOM     27  C   UNL     1      -8.158   0.944   2.487  0.00  0.00    +0.013 A 
ATOM     28  C   UNL     1      -9.453   1.125   2.934  0.00  0.00    +0.008 A 
ATOM     29  C   UNL     1     -10.061   0.121   3.612  0.00  0.00    +0.045 A 
ATOM     30  S   UNL     1      -8.792  -1.134   3.631  0.00  0.00    -0.099 S 
ENDBRANCH  17  26
TORSDOF 3
