REMARK  Name = ZINC45701905
REMARK  6 active torsions:
REMARK  status: ('A' for Active; 'I' for Inactive)
REMARK    1  A    between atoms: C_5  and  N_7
REMARK    2  A    between atoms: C_8  and  C_10
REMARK    3  A    between atoms: C_10  and  O_11
REMARK    4  A    between atoms: O_11  and  C_12
REMARK    5  A    between atoms: C_12  and  C_14
REMARK    6  A    between atoms: C_23  and  C_26
REMARK                            x       y       z     vdW  Elec       q    Type
REMARK                         _______ _______ _______ _____ _____    ______ ____
ROOT
ATOM      1  C   UNL     1      -1.364  -6.103   0.400  0.00  0.00    +0.311 C 
ATOM      2  O   UNL     1      -0.391  -6.820   0.399  0.00  0.00    -0.251 OA
ENDROOT
BRANCH   1   3
ATOM      3  C   UNL     1      -2.741  -6.704   0.515  0.00  0.00    +0.101 C 
ATOM      4  C   UNL     1      -3.564  -6.333  -0.721  0.00  0.00    +0.033 C 
ATOM      5  C   UNL     1      -4.974  -6.916  -0.584  0.00  0.00    +0.107 C 
ATOM      6  N   UNL     1      -4.867  -8.361  -0.341  0.00  0.00    -0.315 N 
ATOM      7  C   UNL     1      -4.027  -8.831   0.768  0.00  0.00    +0.107 C 
ATOM      8  C   UNL     1      -2.627  -8.226   0.617  0.00  0.00    +0.033 C 
ATOM      9  C   UNL     1      -5.547  -9.264  -1.143  0.00  0.00    +0.121 A 
ATOM     10  C   UNL     1      -6.165  -8.818  -2.310  0.00  0.00    +0.045 A 
ATOM     11  C   UNL     1      -6.835  -9.712  -3.100  0.00  0.00    +0.024 A 
ATOM     12  C   UNL     1      -6.875 -11.057  -2.702  0.00  0.00    +0.070 A 
ATOM     13  C   UNL     1      -6.234 -11.434  -1.521  0.00  0.00    +0.131 A 
ATOM     14  N   UNL     1      -5.595 -10.542  -0.793  0.00  0.00    -0.239 NA
BRANCH  12  15
ATOM     15  C   UNL     1      -7.565 -12.029  -3.496  0.00  0.00    +0.101 C 
ATOM     16  N   UNL     1      -8.112 -12.800  -4.126  0.00  0.00    -0.191 NA
ENDBRANCH  12  15
ENDBRANCH   1   3
BRANCH   1  17
ATOM     17  O   UNL     1      -1.218  -4.773   0.298  0.00  0.00    -0.455 OA
BRANCH  17  18
ATOM     18  C   UNL     1       0.117  -4.273   0.192  0.00  0.00    +0.328 C 
BRANCH  18  20
ATOM     19  N   UNL     1       1.233  -2.076  -0.022  0.00  0.00    -0.282 N 
ATOM     20  C   UNL     1       0.083  -2.770   0.088  0.00  0.00    +0.255 C 
ATOM     21  O   UNL     1      -0.979  -2.185   0.103  0.00  0.00    -0.272 OA
ATOM     22  H   UNL     1       2.076  -2.547  -0.115  0.00  0.00    +0.155 HD
BRANCH  19  27
ATOM     23  C   UNL     1       0.148   1.375   0.638  0.00  0.00    +0.002 A 
ATOM     24  C   UNL     1       1.167   2.090   0.036  0.00  0.00    +0.001 A 
ATOM     25  C   UNL     1       2.208   1.425  -0.586  0.00  0.00    +0.016 A 
ATOM     26  C   UNL     1       2.233   0.044  -0.607  0.00  0.00    +0.035 A 
ATOM     27  C   UNL     1       1.211  -0.677  -0.002  0.00  0.00    +0.047 A 
ATOM     28  C   UNL     1       0.167  -0.006   0.621  0.00  0.00    +0.024 A 
ATOM     29  I   UNL     1       3.810  -0.962  -1.550  0.00  0.00    -0.042 I 
ENDBRANCH  19  27
ENDBRANCH  18  20
ENDBRANCH  17  18
ENDBRANCH   1  17
TORSDOF 6
