REMARK  Name = ZINC19081428
REMARK  10 active torsions:
REMARK  status: ('A' for Active; 'I' for Inactive)
REMARK    1  A    between atoms: C_1  and  C_2
REMARK    2  A    between atoms: C_2  and  C_3
REMARK    3  A    between atoms: C_2  and  C_4
REMARK    4  A    between atoms: C_2  and  C_5
REMARK    5  A    between atoms: C_15  and  C_17
REMARK    6  A    between atoms: C_17  and  C_19
REMARK    7  A    between atoms: C_17  and  O_32
REMARK    8  A    between atoms: C_19  and  N_67
REMARK    9  A    between atoms: C_22  and  C_25
REMARK   10  A    between atoms: C_22  and  O_31
REMARK                            x       y       z     vdW  Elec       q    Type
REMARK                         _______ _______ _______ _____ _____    ______ ____
ROOT
ATOM      1  C   UNL     1      -2.137   2.396   3.023  0.00  0.00    +0.128 C 
ENDROOT
BRANCH   1  12
ATOM      2  C   UNL     1       2.937   0.362   6.450  0.00  0.00    +0.225 C 
ATOM      3  O   UNL     1       3.307   1.149   5.604  0.00  0.00    -0.275 OA
ATOM      4  N   UNL     1       1.645  -0.022   6.494  0.00  0.00    -0.271 N 
ATOM      5  C   UNL     1       1.208  -1.065   7.432  0.00  0.00    +0.114 C 
ATOM      6  C   UNL     1       0.286  -2.025   6.668  0.00  0.00    +0.024 C 
ATOM      7  C   UNL     1      -0.953  -1.259   6.207  0.00  0.00    +0.038 C 
ATOM      8  C   UNL     1      -0.555  -0.003   5.477  0.00  0.00    -0.026 A 
ATOM      9  C   UNL     1       0.698   0.566   5.645  0.00  0.00    +0.039 A 
ATOM     10  C   UNL     1       1.030   1.731   4.963  0.00  0.00    +0.024 A 
ATOM     11  C   UNL     1       0.112   2.322   4.117  0.00  0.00    +0.008 A 
ATOM     12  C   UNL     1      -1.136   1.752   3.948  0.00  0.00    -0.021 A 
ATOM     13  C   UNL     1      -1.470   0.598   4.629  0.00  0.00    +0.011 A 
BRANCH   2  15
ATOM     14  C   UNL     1       5.235   0.589   7.351  0.00  0.00    +0.020 C 
ATOM     15  C   UNL     1       3.920  -0.187   7.451  0.00  0.00    +0.039 C 
ATOM     16  C   UNL     1       3.347  -0.040   8.862  0.00  0.00    +0.020 C 
ATOM     17  C   UNL     1       4.177  -1.666   7.156  0.00  0.00    +0.020 C 
ENDBRANCH   2  15
ENDBRANCH   1  12
BRANCH   1  18
ATOM     18  O   UNL     1      -1.997   3.817   3.084  0.00  0.00    -0.389 OA
ATOM     19  H   UNL     1      -1.122   4.137   2.826  0.00  0.00    +0.210 HD
ENDBRANCH   1  18
BRANCH   1  20
ATOM     20  C   UNL     1      -1.887   1.920   1.591  0.00  0.00    -0.042 C 
BRANCH  20  26
ATOM     21  C   UNL     1      -4.224   2.085   0.983  0.00  0.00    -0.076 C 
ATOM     22  C   UNL     1      -5.225   2.864   0.127  0.00  0.00    +0.021 C 
ATOM     23  C   UNL     1      -4.901   2.647  -1.353  0.00  0.00    +0.089 C 
ATOM     24  C   UNL     1      -3.461   3.091  -1.623  0.00  0.00    +0.021 C 
ATOM     25  C   UNL     1      -2.511   2.306  -0.716  0.00  0.00    -0.076 C 
ATOM     26  N   UNL     1      -2.861   2.577   0.694  0.00  0.00    +0.382 N 
ATOM     27  H   UNL     1      -2.831   3.591   0.856  0.00  0.00    -0.082 HD
BRANCH  23  28
ATOM     28  C   UNL     1      -5.846   3.459  -2.200  0.00  0.00    +0.002 A 
ATOM     29  C   UNL     1      -7.047   2.915  -2.632  0.00  0.00    +0.009 A 
ATOM     30  C   UNL     1      -7.885   3.699  -3.409  0.00  0.00    +0.020 A 
ATOM     31  C   UNL     1      -7.499   4.989  -3.726  0.00  0.00    +0.111 A 
ATOM     32  N   UNL     1      -6.350   5.473  -3.298  0.00  0.00    -0.263 NA
ATOM     33  C   UNL     1      -5.531   4.758  -2.552  0.00  0.00    +0.117 A 
ENDBRANCH  23  28
BRANCH  23  34
ATOM     34  O   UNL     1      -5.042   1.262  -1.676  0.00  0.00    -0.384 OA
ATOM     35  H   UNL     1      -5.931   0.912  -1.529  0.00  0.00    +0.211 HD
ENDBRANCH  23  34
ENDBRANCH  20  26
ENDBRANCH   1  20
TORSDOF 7
