REMARK  Name = ZINC62157956
REMARK  5 active torsions:
REMARK  status: ('A' for Active; 'I' for Inactive)
REMARK    1  A    between atoms: C_3  and  S_12
REMARK    2  A    between atoms: C_6  and  C_7
REMARK    3  A    between atoms: C_7  and  C_9
REMARK    4  A    between atoms: S_12  and  N_15
REMARK    5  A    between atoms: C_21  and  N_24
REMARK                            x       y       z     vdW  Elec       q    Type
REMARK                         _______ _______ _______ _____ _____    ______ ____
ROOT
ATOM      1  S   UNL     1       3.889   2.327  -0.023  0.00  0.00    +0.075 S 
ATOM      2  O   UNL     1       4.872   1.471  -0.587  0.00  0.00    -0.150 OA
ATOM      3  O   UNL     1       3.591   3.607  -0.564  0.00  0.00    -0.150 OA
ENDROOT
BRANCH   1   4
ATOM      4  N   UNL     1       4.324   2.570   1.557  0.00  0.00    -0.202 N 
ATOM      5  C   UNL     1       3.921   3.720   2.371  0.00  0.00    +0.136 C 
ATOM      6  C   UNL     1       4.571   3.488   3.745  0.00  0.00    +0.058 C 
ATOM      7  C   UNL     1       5.315   2.180   3.597  0.00  0.00    -0.023 A 
ATOM      8  C   UNL     1       5.122   1.706   2.308  0.00  0.00    +0.057 A 
ATOM      9  C   UNL     1       5.714   0.498   1.935  0.00  0.00    +0.057 A 
ATOM     10  C   UNL     1       6.476  -0.211   2.839  0.00  0.00    +0.128 A 
ATOM     11  C   UNL     1       6.659   0.268   4.123  0.00  0.00    +0.033 A 
ATOM     12  C   UNL     1       6.083   1.468   4.497  0.00  0.00    +0.008 A 
BRANCH  10  13
ATOM     13  N   UNL     1       7.099  -1.491   2.433  0.00  0.00    +0.056 N 
ATOM     14  O   UNL     1       6.940  -1.912   1.312  0.00  0.00    -0.126 OA
ATOM     15  O   UNL     1       7.767  -2.115   3.224  0.00  0.00    -0.126 OA
ENDBRANCH  10  13
ENDBRANCH   1   4
BRANCH   1  18
ATOM     16  C   UNL     1      -0.017   1.394   0.010  0.00  0.00    +0.013 A 
ATOM     17  C   UNL     1       1.170   2.096   0.002  0.00  0.00    +0.029 A 
ATOM     18  C   UNL     1       2.378   1.421  -0.013  0.00  0.00    +0.109 A 
ATOM     19  C   UNL     1       2.405   0.037  -0.021  0.00  0.00    +0.029 A 
ATOM     20  C   UNL     1       1.227  -0.679  -0.014  0.00  0.00    +0.013 A 
ATOM     21  C   UNL     1       0.002  -0.004   0.002  0.00  0.00    +0.018 A 
BRANCH  21  22
ATOM     22  C   UNL     1      -1.260  -0.761   0.011  0.00  0.00    +0.166 C 
ATOM     23  O   UNL     1      -2.320  -0.172   0.024  0.00  0.00    -0.292 OA
BRANCH  22  24
ATOM     24  C   UNL     1      -1.235  -2.268   0.002  0.00  0.00    +0.060 C 
ATOM     25  C   UNL     1      -2.275  -2.996   0.856  0.00  0.00    +0.012 C 
ATOM     26  C   UNL     1      -2.405  -2.990  -0.669  0.00  0.00    +0.012 C 
ENDBRANCH  22  24
ENDBRANCH  21  22
ENDBRANCH   1  18
TORSDOF 5
