REMARK  Name = ZINC43231563
REMARK  7 active torsions:
REMARK  status: ('A' for Active; 'I' for Inactive)
REMARK    1  A    between atoms: C_1  and  C_2
REMARK    2  A    between atoms: C_2  and  N_9
REMARK    3  A    between atoms: N_9  and  N_10
REMARK    4  A    between atoms: N_13  and  C_14
REMARK    5  A    between atoms: C_14  and  C_15
REMARK    6  A    between atoms: C_15  and  C_17
REMARK    7  A    between atoms: C_15  and  N_22
REMARK                            x       y       z     vdW  Elec       q    Type
REMARK                         _______ _______ _______ _____ _____    ______ ____
ROOT
ATOM      1  N   UNL     1       0.183   0.073  -2.333  0.00  0.00    -0.234 N 
ATOM      2  C   UNL     1       0.779  -0.140  -3.523  0.00  0.00    +0.313 C 
ATOM      3  O   UNL     1       0.394   0.455  -4.511  0.00  0.00    -0.252 OA
ATOM      4  N   UNL     1       1.802  -1.012  -3.618  0.00  0.00    -0.300 N 
ATOM      5  H   UNL     1      -0.553   0.701  -2.265  0.00  0.00    +0.171 HD
ATOM      6  H   UNL     1       2.110  -1.486  -2.830  0.00  0.00    +0.150 HD
ENDROOT
BRANCH   1   7
ATOM      7  N   UNL     1       0.617  -0.595  -1.223  0.00  0.00    -0.232 NA
ATOM      8  H   UNL     1       0.591  -1.593  -1.369  0.00  0.00    +0.145 HD
BRANCH   7  10
ATOM      9  C   UNL     1      -0.025   1.294   0.176  0.00  0.00    +0.031 C 
ATOM     10  C   UNL     1      -0.167  -0.214  -0.041  0.00  0.00    +0.054 C 
ATOM     11  C   UNL     1      -1.637  -0.533  -0.309  0.00  0.00    +0.047 C 
ATOM     12  C   UNL     1      -1.968  -1.980   0.155  0.00  0.00    +0.168 C 
ATOM     13  S   UNL     1      -0.982  -2.036   1.715  0.00  0.00    -0.029 S 
ATOM     14  O   UNL     1      -0.491  -3.355   1.911  0.00  0.00    -0.174 OA
ATOM     15  O   UNL     1      -1.712  -1.396   2.753  0.00  0.00    -0.174 OA
ATOM     16  C   UNL     1       0.406  -0.946   1.188  0.00  0.00    +0.189 C 
ENDBRANCH   7  10
ENDBRANCH   1   7
BRANCH   4  17
ATOM     17  C   UNL     1       2.450  -1.244  -4.912  0.00  0.00    +0.095 C 
BRANCH  17  18
ATOM     18  C   UNL     1       3.654  -2.168  -4.721  0.00  0.00    -0.013 C 
BRANCH  18  19
ATOM     19  N   UNL     1       4.225  -2.506  -6.032  0.00  0.00    +0.386 N 
ATOM     20  C   UNL     1       5.383  -3.420  -5.866  0.00  0.00    -0.078 C 
ATOM     21  C   UNL     1       5.497  -4.104  -7.251  0.00  0.00    -0.020 C 
ATOM     22  C   UNL     1       4.019  -4.288  -7.668  0.00  0.00    -0.020 C 
ATOM     23  C   UNL     1       3.236  -3.250  -6.842  0.00  0.00    -0.078 C 
ATOM     24  H   UNL     1       4.509  -1.666  -6.514  0.00  0.00    -0.081 HD
ENDBRANCH  18  19
BRANCH  18  25
ATOM     25  C   UNL     1       4.695  -1.470  -3.884  0.00  0.00    -0.022 A 
ATOM     26  C   UNL     1       4.964  -1.612  -2.563  0.00  0.00    +0.009 A 
ATOM     27  C   UNL     1       5.978  -0.860  -2.001  0.00  0.00    +0.008 A 
ATOM     28  C   UNL     1       6.674  -0.002  -2.787  0.00  0.00    +0.045 A 
ATOM     29  S   UNL     1       5.899  -0.248  -4.377  0.00  0.00    -0.103 S 
ENDBRANCH  18  25
ENDBRANCH  17  18
ENDBRANCH   4  17
TORSDOF 6
