REMARK  Name = ZINC34757275
REMARK  7 active torsions:
REMARK  status: ('A' for Active; 'I' for Inactive)
REMARK    1  A    between atoms: C_1  and  C_2
REMARK    2  A    between atoms: C_2  and  C_3
REMARK    3  A    between atoms: C_3  and  C_4
REMARK    4  A    between atoms: C_4  and  S_5
REMARK    5  A    between atoms: S_5  and  C_6
REMARK    6  A    between atoms: N_21  and  C_24
REMARK    7  A    between atoms: C_24  and  C_25
REMARK                            x       y       z     vdW  Elec       q    Type
REMARK                         _______ _______ _______ _____ _____    ______ ____
ROOT
ATOM      1  C   UNL     1      -2.914  -4.455   0.184  0.00  0.00    +0.191 A 
ATOM      2  N   UNL     1      -3.994  -5.228   0.179  0.00  0.00    -0.206 NA
ATOM      3  C   UNL     1      -3.921  -6.536  -0.002  0.00  0.00    +0.134 A 
ATOM      4  C   UNL     1      -2.647  -7.138  -0.197  0.00  0.00    +0.051 A 
ATOM      5  C   UNL     1      -2.333  -8.561  -0.415  0.00  0.00    -0.025 A 
ATOM      6  C   UNL     1      -1.039  -8.878  -0.574  0.00  0.00    -0.004 A 
ATOM      7  S   UNL     1      -0.164  -7.335  -0.450  0.00  0.00    -0.073 S 
ATOM      8  C   UNL     1      -1.548  -6.261  -0.180  0.00  0.00    +0.115 A 
ATOM      9  N   UNL     1      -1.702  -4.963   0.002  0.00  0.00    -0.215 NA
ATOM     10  C   UNL     1      -0.838 -10.355  -0.784  0.00  0.00    +0.043 C 
ATOM     11  C   UNL     1      -2.158 -10.998  -0.307  0.00  0.00    +0.010 C 
ATOM     12  C   UNL     1      -3.160  -9.846  -0.516  0.00  0.00    +0.037 C 
ATOM     13  N   UNL     1      -5.069  -7.309   0.000  0.00  0.00    -0.318 N 
ATOM     14  C   UNL     1      -5.632  -7.824   1.258  0.00  0.00    +0.088 C 
ATOM     15  C   UNL     1      -7.123  -7.477   1.300  0.00  0.00    -0.059 C 
ATOM     16  N   UNL     1      -7.779  -7.987   0.089  0.00  0.00    +0.387 N 
ATOM     17  C   UNL     1      -7.247  -7.299  -1.094  0.00  0.00    -0.059 C 
ATOM     18  C   UNL     1      -5.764  -7.633  -1.255  0.00  0.00    +0.088 C 
ATOM     19  H   UNL     1      -7.606  -8.977   0.006  0.00  0.00    -0.081 HD
ENDROOT
BRANCH   1  20
ATOM     20  S   UNL     1      -3.095  -2.720   0.432  0.00  0.00    -0.086 S 
BRANCH  20  21
ATOM     21  C   UNL     1      -1.396  -2.087   0.354  0.00  0.00    +0.077 C 
BRANCH  21  22
ATOM     22  C   UNL     1      -1.408  -0.570   0.556  0.00  0.00    +0.011 C 
BRANCH  22  24
ATOM     23  C   UNL     1       0.013   1.480   0.693  0.00  0.00    +0.004 C 
ATOM     24  C   UNL     1       0.024  -0.036   0.490  0.00  0.00    -0.003 C 
ENDBRANCH  22  24
ENDBRANCH  21  22
ENDBRANCH  20  21
ENDBRANCH   1  20
BRANCH  16  25
ATOM     25  C   UNL     1      -9.226  -7.751   0.181  0.00  0.00    +0.018 C 
BRANCH  25  26
ATOM     26  C   UNL     1      -9.913  -8.382  -1.002  0.00  0.00    +0.194 C 
ATOM     27  O   UNL     1      -9.262  -8.970  -1.840  0.00  0.00    -0.278 OA
ATOM     28  N   UNL     1     -11.252  -8.292  -1.130  0.00  0.00    -0.331 N 
ATOM     29  H   UNL     1     -11.773  -7.822  -0.460  0.00  0.00    +0.145 HD
ATOM     30  H   UNL     1     -11.695  -8.698  -1.892  0.00  0.00    +0.145 HD
ENDBRANCH  25  26
ENDBRANCH  16  25
TORSDOF 6
