REMARK  Name = ZINC09504167
REMARK  6 active torsions:
REMARK  status: ('A' for Active; 'I' for Inactive)
REMARK    1  A    between atoms: C_1  and  C_2
REMARK    2  A    between atoms: C_5  and  C_9
REMARK    3  A    between atoms: C_6  and  C_8
REMARK    4  A    between atoms: C_9  and  C_11
REMARK    5  A    between atoms: C_11  and  N_12
REMARK    6  A    between atoms: C_20  and  C_22
REMARK                            x       y       z     vdW  Elec       q    Type
REMARK                         _______ _______ _______ _____ _____    ______ ____
ROOT
ATOM      1  N   UNL     1      -4.012   5.723   0.321  0.00  0.00    -0.217 N 
ATOM      2  C   UNL     1      -4.750   5.827   1.446  0.00  0.00    +0.247 C 
ATOM      3  O   UNL     1      -4.396   5.589   2.580  0.00  0.00    -0.273 OA
ATOM      4  C   UNL     1      -6.110   6.304   0.993  0.00  0.00    +0.115 C 
ATOM      5  C   UNL     1      -7.179   5.277   1.349  0.00  0.00    +0.035 C 
ATOM      6  C   UNL     1      -7.269   5.138   2.871  0.00  0.00    +0.003 C 
ATOM      7  C   UNL     1      -7.617   6.495   3.486  0.00  0.00    +0.000 C 
ATOM      8  C   UNL     1      -6.525   7.510   3.138  0.00  0.00    +0.006 C 
ATOM      9  C   UNL     1      -6.434   7.657   1.617  0.00  0.00    +0.018 C 
ATOM     10  C   UNL     1      -5.329   8.657   1.268  0.00  0.00    +0.010 C 
ATOM     11  N   UNL     1      -5.979   6.427  -0.464  0.00  0.00    -0.285 N 
ATOM     12  C   UNL     1      -4.715   6.071  -0.764  0.00  0.00    +0.310 C 
ATOM     13  O   UNL     1      -4.264   6.063  -1.893  0.00  0.00    -0.252 OA
ATOM     14  H   UNL     1      -6.665   6.713  -1.088  0.00  0.00    +0.151 HD
ENDROOT
BRANCH   1  15
ATOM     15  C   UNL     1      -2.613   5.289   0.291  0.00  0.00    +0.197 C 
BRANCH  15  16
ATOM     16  C   UNL     1      -2.555   3.791   0.129  0.00  0.00    +0.181 C 
ATOM     17  O   UNL     1      -3.581   3.150   0.046  0.00  0.00    -0.290 OA
BRANCH  16  22
ATOM     18  C   UNL     1       2.530   1.119  -0.099  0.00  0.00    +0.044 C 
ATOM     19  C   UNL     1       1.197   1.820  -0.039  0.00  0.00    -0.050 A 
ATOM     20  C   UNL     1       1.143   3.176   0.233  0.00  0.00    +0.004 A 
ATOM     21  C   UNL     1      -0.072   3.824   0.289  0.00  0.00    +0.012 A 
ATOM     22  C   UNL     1      -1.253   3.107   0.071  0.00  0.00    +0.022 A 
ATOM     23  C   UNL     1      -1.191   1.739  -0.210  0.00  0.00    -0.040 A 
ATOM     24  C   UNL     1       0.033   1.104  -0.258  0.00  0.00    +0.007 A 
ATOM     25  C   UNL     1      -2.457   0.959  -0.454  0.00  0.00    +0.044 C 
ENDBRANCH  16  22
ENDBRANCH  15  16
ENDBRANCH   1  15
TORSDOF 3
