REMARK  Name = ZINC16529156
REMARK  11 active torsions:
REMARK  status: ('A' for Active; 'I' for Inactive)
REMARK    1  A    between atoms: C_1  and  C_2
REMARK    2  A    between atoms: C_7  and  C_8
REMARK    3  A    between atoms: C_18  and  C_20
REMARK    4  A    between atoms: C_20  and  N_21
REMARK    5  A    between atoms: N_21  and  C_22
REMARK    6  A    between atoms: C_22  and  C_23
REMARK    7  A    between atoms: C_23  and  C_24
REMARK    8  A    between atoms: C_23  and  C_25
REMARK    9  A    between atoms: C_26  and  C_28
REMARK   10  A    between atoms: C_29  and  C_30
REMARK   11  A    between atoms: C_33  and  N_36
REMARK                            x       y       z     vdW  Elec       q    Type
REMARK                         _______ _______ _______ _____ _____    ______ ____
ROOT
ATOM      1  C   UNL     1      -1.438   5.594   1.117  0.00  0.00    +0.204 C 
ENDROOT
BRANCH   1  11
ATOM      2  C   UNL     1       1.160   3.491  -0.765  0.00  0.00    +0.138 C 
ATOM      3  C   UNL     1       1.257   3.615  -2.284  0.00  0.00    -0.012 A 
ATOM      4  C   UNL     1       2.430   3.373  -2.997  0.00  0.00    +0.013 A 
ATOM      5  C   UNL     1       2.442   3.498  -4.344  0.00  0.00    +0.046 A 
ATOM      6  S   UNL     1       0.754   3.976  -4.683  0.00  0.00    -0.101 S 
ATOM      7  C   UNL     1       0.164   3.974  -3.011  0.00  0.00    -0.003 A 
ATOM      8  C   UNL     1      -1.207   4.295  -2.510  0.00  0.00    +0.062 C 
ATOM      9  C   UNL     1      -1.339   3.775  -1.070  0.00  0.00    +0.114 C 
ATOM     10  N   UNL     1      -0.105   4.108  -0.344  0.00  0.00    -0.289 N 
ATOM     11  C   UNL     1      -0.134   4.968   0.694  0.00  0.00    +0.234 C 
ATOM     12  O   UNL     1       0.889   5.237   1.287  0.00  0.00    -0.274 OA
BRANCH   2  19
ATOM     13  C   UNL     1       2.348   2.690   1.744  0.00  0.00    +0.044 C 
ATOM     14  C   UNL     1       1.744   1.654   0.831  0.00  0.00    -0.045 A 
ATOM     15  C   UNL     1       1.758   0.320   1.195  0.00  0.00    +0.004 A 
ATOM     16  C   UNL     1       1.204  -0.630   0.357  0.00  0.00    +0.000 A 
ATOM     17  C   UNL     1       0.636  -0.247  -0.843  0.00  0.00    +0.000 A 
ATOM     18  C   UNL     1       0.622   1.087  -1.206  0.00  0.00    +0.006 A 
ATOM     19  C   UNL     1       1.176   2.037  -0.369  0.00  0.00    -0.020 A 
ENDBRANCH   2  19
ENDBRANCH   1  11
BRANCH   1  20
ATOM     20  N   UNL     1      -1.205   6.483   2.258  0.00  0.00    -0.289 N 
ATOM     21  C   UNL     1      -0.907   7.781   2.051  0.00  0.00    +0.240 C 
ATOM     22  O   UNL     1      -0.832   8.215   0.917  0.00  0.00    -0.271 OA
BRANCH  21  23
ATOM     23  C   UNL     1      -0.674   8.669   3.192  0.00  0.00    +0.068 C 
ATOM     24  C   UNL     1      -0.377   9.968   2.985  0.00  0.00    +0.013 C 
BRANCH  24  25
ATOM     25  C   UNL     1      -0.143  10.861   4.132  0.00  0.00    -0.025 A 
ATOM     26  C   UNL     1      -0.234  10.367   5.437  0.00  0.00    +0.010 A 
ATOM     27  C   UNL     1      -0.008  11.209   6.506  0.00  0.00    +0.033 A 
ATOM     28  C   UNL     1       0.297  12.542   6.290  0.00  0.00    +0.126 A 
ATOM     29  C   UNL     1       0.384  13.039   5.001  0.00  0.00    +0.033 A 
ATOM     30  C   UNL     1       0.166  12.209   3.922  0.00  0.00    +0.010 A 
BRANCH  28  31
ATOM     31  N   UNL     1       0.531  13.440   7.443  0.00  0.00    +0.056 N 
ATOM     32  O   UNL     1       0.800  14.613   7.256  0.00  0.00    -0.126 OA
ATOM     33  O   UNL     1       0.456  13.006   8.578  0.00  0.00    -0.126 OA
ENDBRANCH  28  31
ENDBRANCH  24  25
ENDBRANCH  21  23
BRANCH  20  34
ATOM     34  C   UNL     1      -1.295   5.961   3.624  0.00  0.00    +0.111 C 
BRANCH  34  35
ATOM     35  C   UNL     1       0.078   5.452   4.067  0.00  0.00    +0.000 C 
ATOM     36  C   UNL     1       1.056   6.626   4.147  0.00  0.00    +0.009 C 
ATOM     37  C   UNL     1      -0.041   4.794   5.443  0.00  0.00    +0.009 C 
ENDBRANCH  34  35
ENDBRANCH  20  34
ENDBRANCH   1  20
TORSDOF 8
