REMARK  Name = ZINC01059706
REMARK  8 active torsions:
REMARK  status: ('A' for Active; 'I' for Inactive)
REMARK    1  A    between atoms: C_1  and  C_2
REMARK    2  A    between atoms: C_2  and  O_3
REMARK    3  A    between atoms: O_3  and  C_4
REMARK    4  A    between atoms: C_4  and  C_6
REMARK    5  A    between atoms: C_7  and  C_21
REMARK    6  A    between atoms: C_12  and  C_14
REMARK    7  A    between atoms: C_21  and  S_22
REMARK    8  A    between atoms: S_22  and  C_23
REMARK                            x       y       z     vdW  Elec       q    Type
REMARK                         _______ _______ _______ _____ _____    ______ ____
ROOT
ATOM      1  C   UNL     1       2.124   4.362   1.163  0.00  0.00    +0.079 C 
ATOM      2  C   UNL     1       1.972   3.718  -0.014  0.00  0.00    +0.034 C 
ATOM      3  N   UNL     1       1.816   4.411  -1.181  0.00  0.00    -0.272 N 
ATOM      4  C   UNL     1       1.790   5.747  -1.253  0.00  0.00    +0.304 C 
ATOM      5  O   UNL     1       1.640   6.275  -2.338  0.00  0.00    -0.252 OA
ATOM      6  N   UNL     1       1.929   6.527  -0.163  0.00  0.00    -0.288 N 
ATOM      7  C   UNL     1       2.109   5.877   1.146  0.00  0.00    +0.144 C 
ATOM      8  H   UNL     1       1.714   3.906  -2.003  0.00  0.00    +0.156 HD
ATOM      9  H   UNL     1       1.910   7.494  -0.238  0.00  0.00    +0.151 HD
ENDROOT
BRANCH   7  10
ATOM     10  C   UNL     1       3.411   6.361   1.730  0.00  0.00    -0.022 A 
ATOM     11  C   UNL     1       4.554   6.374   0.953  0.00  0.00    +0.007 A 
ATOM     12  C   UNL     1       5.748   6.823   1.487  0.00  0.00    +0.020 A 
ATOM     13  C   UNL     1       5.800   7.250   2.802  0.00  0.00    +0.041 A 
ATOM     14  C   UNL     1       4.657   7.231   3.581  0.00  0.00    +0.020 A 
ATOM     15  C   UNL     1       3.463   6.787   3.044  0.00  0.00    +0.007 A 
ATOM     16 CL   UNL     1       7.300   7.808   3.475  0.00  0.00    -0.084 Cl
ENDBRANCH   7  10
BRANCH   1  17
ATOM     17  C   UNL     1       2.291   3.645   2.372  0.00  0.00    +0.339 C 
ATOM     18  O   UNL     1       1.349   3.501   3.128  0.00  0.00    -0.245 OA
BRANCH  17  19
ATOM     19  O   UNL     1       3.495   3.123   2.685  0.00  0.00    -0.462 OA
BRANCH  19  21
ATOM     20  C   UNL     1       5.021   1.897   4.103  0.00  0.00    +0.048 C 
ATOM     21  C   UNL     1       3.592   2.412   3.921  0.00  0.00    +0.229 C 
ENDBRANCH  19  21
ENDBRANCH  17  19
ENDBRANCH   1  17
BRANCH   2  22
ATOM     22  C   UNL     1       1.982   2.211  -0.043  0.00  0.00    +0.125 C 
BRANCH  22  23
ATOM     23  S   UNL     1       0.289   1.600  -0.262  0.00  0.00    -0.119 S 
BRANCH  23  24
ATOM     24  C   UNL     1       0.467  -0.153  -0.274  0.00  0.00    +0.008 A 
ATOM     25  C   UNL     1       1.725  -0.726  -0.137  0.00  0.00    +0.016 A 
ATOM     26  C   UNL     1       1.861  -2.100  -0.142  0.00  0.00    +0.021 A 
ATOM     27  C   UNL     1       0.746  -2.906  -0.294  0.00  0.00    +0.041 A 
ATOM     28  C   UNL     1      -0.508  -2.339  -0.437  0.00  0.00    +0.021 A 
ATOM     29  C   UNL     1      -0.651  -0.965  -0.427  0.00  0.00    +0.016 A 
ATOM     30 CL   UNL     1       0.922  -4.634  -0.306  0.00  0.00    -0.084 Cl
ENDBRANCH  23  24
ENDBRANCH  22  23
ENDBRANCH   2  22
TORSDOF 7
