REMARK  Name = ZINC50208621
REMARK  5 active torsions:
REMARK  status: ('A' for Active; 'I' for Inactive)
REMARK    1  A    between atoms: C_1  and  C_2
REMARK    2  A    between atoms: C_2  and  C_3
REMARK    3  A    between atoms: C_6  and  C_9
REMARK    4  A    between atoms: C_11  and  C_14
REMARK    5  A    between atoms: C_19  and  N_20
REMARK                            x       y       z     vdW  Elec       q    Type
REMARK                         _______ _______ _______ _____ _____    ______ ____
ROOT
ATOM      1  C   UNL     1       2.521  -1.412  -5.521  0.00  0.00    +0.202 A 
ATOM      2  N   UNL     1       3.832  -1.685  -5.430  0.00  0.00    -0.187 NA
ATOM      3  C   UNL     1       4.229  -2.331  -6.503  0.00  0.00    +0.261 A 
ATOM      4  O   UNL     1       3.169  -2.490  -7.315  0.00  0.00    -0.332 OA
ATOM      5  N   UNL     1       2.066  -1.889  -6.654  0.00  0.00    -0.056 NA
ENDROOT
BRANCH   3   6
ATOM      6  C   UNL     1       5.602  -2.801  -6.770  0.00  0.00    +0.061 A 
ATOM      7  C   UNL     1       6.689  -1.950  -6.561  0.00  0.00    +0.030 A 
ATOM      8  C   UNL     1       7.970  -2.395  -6.813  0.00  0.00    +0.019 A 
ATOM      9  C   UNL     1       8.184  -3.685  -7.273  0.00  0.00    +0.017 A 
ATOM     10  C   UNL     1       7.119  -4.537  -7.484  0.00  0.00    +0.024 A 
ATOM     11  C   UNL     1       5.823  -4.108  -7.230  0.00  0.00    +0.037 A 
ATOM     12 BR   UNL     1       9.440  -1.240  -6.530  0.00  0.00    -0.050 Br
BRANCH  11  13
ATOM     13  N   UNL     1       4.749  -4.968  -7.436  0.00  0.00    -0.357 N 
ATOM     14  H   UNL     1       3.854  -4.697  -7.176  0.00  0.00    +0.142 HD
ATOM     15  H   UNL     1       4.894  -5.838  -7.839  0.00  0.00    +0.142 HD
ENDBRANCH  11  13
ENDBRANCH   3   6
BRANCH   1  19
ATOM     16  C   UNL     1       0.214   0.644  -2.599  0.00  0.00    -0.048 A 
ATOM     17  C   UNL     1      -0.389   0.191  -3.758  0.00  0.00    +0.004 A 
ATOM     18  C   UNL     1       0.355  -0.477  -4.710  0.00  0.00    +0.012 A 
ATOM     19  C   UNL     1       1.716  -0.694  -4.501  0.00  0.00    +0.022 A 
ATOM     20  C   UNL     1       2.318  -0.234  -3.332  0.00  0.00    +0.012 A 
ATOM     21  C   UNL     1       1.565   0.437  -2.389  0.00  0.00    +0.004 A 
BRANCH  16  23
ATOM     22  C   UNL     1      -0.586   2.873  -1.863  0.00  0.00    +0.009 C 
ATOM     23  C   UNL     1      -0.603   1.373  -1.563  0.00  0.00    +0.032 C 
ENDBRANCH  16  23
ENDBRANCH   1  19
TORSDOF 4
