REMARK  Name = ZINC64042771
REMARK  6 active torsions:
REMARK  status: ('A' for Active; 'I' for Inactive)
REMARK    1  A    between atoms: C_1  and  C_2
REMARK    2  A    between atoms: C_2  and  C_13
REMARK    3  A    between atoms: N_15  and  C_16
REMARK    4  A    between atoms: C_16  and  C_17
REMARK    5  A    between atoms: C_17  and  C_19
REMARK    6  A    between atoms: C_17  and  C_25
REMARK                            x       y       z     vdW  Elec       q    Type
REMARK                         _______ _______ _______ _____ _____    ______ ____
ROOT
ATOM      1  C   UNL     1       2.736  -1.073  -2.455  0.00  0.00    +0.117 C 
ENDROOT
BRANCH   1   4
ATOM      2  C   UNL     1       0.707  -0.490  -1.238  0.00  0.00    +0.257 C 
ATOM      3  O   UNL     1       0.066  -0.782  -2.225  0.00  0.00    -0.271 OA
ATOM      4  N   UNL     1       2.050  -0.601  -1.250  0.00  0.00    -0.311 N 
ATOM      5  H   UNL     1       2.563  -0.367  -0.460  0.00  0.00    +0.149 HD
BRANCH   2   7
ATOM      6  C   UNL     1      -0.019   1.526   0.010  0.00  0.00    +0.066 C 
ATOM      7  C   UNL     1       0.002  -0.004   0.002  0.00  0.00    +0.190 C 
ATOM      8  C   UNL     1      -1.433  -0.533   0.014  0.00  0.00    +0.093 C 
ATOM      9  C   UNL     1      -2.076  -0.264   1.348  0.00  0.00    -0.029 A 
ATOM     10  C   UNL     1      -3.452  -0.246   1.462  0.00  0.00    +0.004 A 
ATOM     11  C   UNL     1      -4.043  -0.001   2.689  0.00  0.00    +0.000 A 
ATOM     12  C   UNL     1      -3.265   0.228   3.810  0.00  0.00    +0.001 A 
ATOM     13  C   UNL     1      -1.888   0.215   3.711  0.00  0.00    +0.015 A 
ATOM     14  C   UNL     1      -1.289  -0.031   2.477  0.00  0.00    +0.062 A 
ATOM     15  C   UNL     1       0.186  -0.042   2.344  0.00  0.00    +0.340 C 
ATOM     16  O   UNL     1       0.908   0.323   3.250  0.00  0.00    -0.245 OA
ATOM     17  O   UNL     1       0.696  -0.479   1.164  0.00  0.00    -0.445 OA
ENDBRANCH   2   7
ENDBRANCH   1   4
BRANCH   1  18
ATOM     18  C   UNL     1       4.245  -1.106  -2.204  0.00  0.00    +0.064 C 
BRANCH  18  19
ATOM     19  C   UNL     1       4.958  -1.474  -3.480  0.00  0.00    -0.033 C 
ATOM     20  C   UNL     1       5.880  -0.734  -4.139  0.00  0.00    -0.000 A 
ATOM     21  C   UNL     1       6.470   0.584  -3.875  0.00  0.00    +0.010 A 
ATOM     22  C   UNL     1       7.390   1.074  -4.736  0.00  0.00    +0.001 A 
ATOM     23  C   UNL     1       7.793   0.357  -5.871  0.00  0.00    +0.002 A 
ATOM     24  C   UNL     1       7.296  -0.859  -6.180  0.00  0.00    +0.026 A 
ATOM     25  C   UNL     1       6.322  -1.471  -5.344  0.00  0.00    +0.043 A 
ATOM     26  N   UNL     1       5.699  -2.621  -5.427  0.00  0.00    -0.380 N 
ATOM     27  C   UNL     1       4.794  -2.747  -4.279  0.00  0.00    +0.145 C 
ATOM     28  H   UNL     1       5.819  -3.281  -6.128  0.00  0.00    +0.160 HD
ENDBRANCH  18  19
BRANCH  18  29
ATOM     29  C   UNL     1       4.555  -2.129  -1.142  0.00  0.00    -0.039 A 
ATOM     30  C   UNL     1       4.226  -3.456  -1.344  0.00  0.00    +0.004 A 
ATOM     31  C   UNL     1       4.511  -4.394  -0.369  0.00  0.00    +0.000 A 
ATOM     32  C   UNL     1       5.126  -4.005   0.806  0.00  0.00    +0.000 A 
ATOM     33  C   UNL     1       5.456  -2.678   1.007  0.00  0.00    +0.000 A 
ATOM     34  C   UNL     1       5.175  -1.740   0.031  0.00  0.00    +0.004 A 
ENDBRANCH  18  29
ENDBRANCH   1  18
TORSDOF 5
