REMARK  Name = ZINC20884609
REMARK  7 active torsions:
REMARK  status: ('A' for Active; 'I' for Inactive)
REMARK    1  A    between atoms: C_1  and  C_2
REMARK    2  A    between atoms: C_10  and  C_13
REMARK    3  A    between atoms: C_18  and  C_23
REMARK    4  A    between atoms: C_25  and  O_31
REMARK    5  A    between atoms: C_28  and  O_29
REMARK    6  A    between atoms: O_29  and  C_30
REMARK    7  A    between atoms: O_31  and  C_32
REMARK                            x       y       z     vdW  Elec       q    Type
REMARK                         _______ _______ _______ _____ _____    ______ ____
ROOT
ATOM      1  C   UNL     1       2.428   1.012  -0.045  0.00  0.00    +0.143 C 
ATOM      2  C   UNL     1       1.126   1.770   0.063  0.00  0.00    +0.037 C 
ATOM      3  C   UNL     1       0.992   3.107   0.086  0.00  0.00    +0.017 C 
ATOM      4  C   UNL     1      -0.384   3.742   0.203  0.00  0.00    +0.060 C 
ATOM      5  C   UNL     1      -1.428   2.856  -0.474  0.00  0.00    +0.036 C 
ATOM      6  C   UNL     1      -1.406   1.491   0.218  0.00  0.00    +0.088 C 
ATOM      7  C   UNL     1      -0.015   0.937   0.139  0.00  0.00    +0.163 C 
ATOM      8  O   UNL     1       0.137  -0.269   0.134  0.00  0.00    -0.292 OA
ATOM      9  N   UNL     1       2.020   3.993   0.029  0.00  0.00    -0.316 N 
ATOM     10  C   UNL     1       3.078   3.930  -0.872  0.00  0.00    +0.052 A 
ATOM     11  C   UNL     1       3.315   4.920  -1.808  0.00  0.00    +0.025 A 
ATOM     12  C   UNL     1       4.436   4.834  -2.617  0.00  0.00    +0.002 A 
ATOM     13  C   UNL     1       5.307   3.767  -2.489  0.00  0.00    +0.002 A 
ATOM     14  C   UNL     1       5.057   2.764  -1.569  0.00  0.00    +0.025 A 
ATOM     15  C   UNL     1       3.926   2.837  -0.770  0.00  0.00    +0.049 A 
ATOM     16  N   UNL     1       3.611   1.826   0.134  0.00  0.00    -0.331 N 
ATOM     17  H   UNL     1       2.056   4.839   0.731  0.00  0.00    +0.152 HD
ATOM     18  H   UNL     1       4.276   1.649   0.992  0.00  0.00    +0.147 HD
ENDROOT
BRANCH   1  28
ATOM     19  C   UNL     1       5.176  -3.963  -4.994  0.00  0.00    +0.044 C 
ATOM     20  C   UNL     1       4.248  -2.836  -4.620  0.00  0.00    -0.050 A 
ATOM     21  C   UNL     1       3.370  -2.322  -5.564  0.00  0.00    +0.007 A 
ATOM     22  C   UNL     1       2.514  -1.291  -5.242  0.00  0.00    +0.047 A 
ATOM     23  C   UNL     1       2.526  -0.756  -3.959  0.00  0.00    +0.138 A 
ATOM     24  C   UNL     1       3.415  -1.277  -3.005  0.00  0.00    +0.065 A 
ATOM     25  C   UNL     1       4.276  -2.320  -3.343  0.00  0.00    +0.018 A 
ATOM     26  C   UNL     1       3.408  -0.693  -1.650  0.00  0.00    +0.198 A 
ATOM     27  O   UNL     1       4.155  -1.101  -0.778  0.00  0.00    -0.287 OA
ATOM     28  C   UNL     1       2.493   0.366  -1.405  0.00  0.00    +0.059 A 
ATOM     29  C   UNL     1       1.681   0.784  -2.392  0.00  0.00    +0.205 A 
ATOM     30  O   UNL     1       1.697   0.252  -3.619  0.00  0.00    -0.462 OA
ENDBRANCH   1  28
BRANCH   5  31
ATOM     31  C   UNL     1      -2.793   3.480  -0.336  0.00  0.00    +0.002 A 
ATOM     32  C   UNL     1      -3.325   3.707   0.919  0.00  0.00    +0.053 A 
ATOM     33  C   UNL     1      -4.579   4.285   1.046  0.00  0.00    +0.121 A 
ATOM     34  C   UNL     1      -5.304   4.625  -0.086  0.00  0.00    +0.049 A 
ATOM     35  C   UNL     1      -4.775   4.394  -1.341  0.00  0.00    +0.049 A 
ATOM     36  C   UNL     1      -3.518   3.820  -1.468  0.00  0.00    +0.124 A 
BRANCH  36  37
ATOM     37  O   UNL     1      -2.997   3.592  -2.703  0.00  0.00    -0.495 OA
ATOM     38  C   UNL     1      -3.799   3.967  -3.825  0.00  0.00    +0.277 C 
ENDBRANCH  36  37
BRANCH  33  39
ATOM     39  O   UNL     1      -5.100   4.513   2.281  0.00  0.00    -0.495 OA
ATOM     40  C   UNL     1      -6.399   5.106   2.338  0.00  0.00    +0.277 C 
ENDBRANCH  33  39
ENDBRANCH   5  31
TORSDOF 4
