REMARK  Name = ZINC23741194
REMARK  7 active torsions:
REMARK  status: ('A' for Active; 'I' for Inactive)
REMARK    1  A    between atoms: C_1  and  C_2
REMARK    2  A    between atoms: C_4  and  C_23
REMARK    3  A    between atoms: N_9  and  N_10
REMARK    4  A    between atoms: N_10  and  C_11
REMARK    5  A    between atoms: C_11  and  N_13
REMARK    6  A    between atoms: N_13  and  C_14
REMARK    7  A    between atoms: C_20  and  O_22
REMARK                            x       y       z     vdW  Elec       q    Type
REMARK                         _______ _______ _______ _____ _____    ______ ____
ROOT
ATOM      1  C   UNL     1      -0.193   0.163   0.387  0.00  0.00    +0.044 C 
ATOM      2  C   UNL     1      -0.846   0.919   1.516  0.00  0.00    -0.049 A 
ATOM      3  C   UNL     1      -2.199   1.215   1.458  0.00  0.00    +0.008 A 
ATOM      4  C   UNL     1      -2.816   1.899   2.483  0.00  0.00    -0.024 A 
ATOM      5  C   UNL     1      -2.074   2.314   3.593  0.00  0.00    +0.080 A 
ATOM      6  C   UNL     1      -0.697   2.014   3.640  0.00  0.00    +0.033 A 
ATOM      7  C   UNL     1      -0.093   1.318   2.603  0.00  0.00    +0.015 A 
ATOM      8  C   UNL     1      -0.211   2.579   4.920  0.00  0.00    +0.152 C 
ATOM      9  N   UNL     1       1.009   2.548   5.404  0.00  0.00    -0.175 NA
ATOM     10  C   UNL     1      -1.412   3.186   5.526  0.00  0.00    +0.241 C 
ATOM     11  N   UNL     1      -2.421   2.994   4.717  0.00  0.00    -0.211 NA
ATOM     12  C   UNL     1      -4.289   2.205   2.404  0.00  0.00    +0.046 C 
ENDROOT
BRANCH   9  13
ATOM     13  N   UNL     1       1.974   2.076   4.691  0.00  0.00    -0.218 N 
ATOM     14  H   UNL     1       1.795   1.789   3.644  0.00  0.00    +0.176 HD
BRANCH  13  15
ATOM     15  C   UNL     1       3.203   1.934   5.227  0.00  0.00    +0.150 C 
ATOM     16  S   UNL     1       4.484   1.308   4.280  0.00  0.00    -0.017 S 
BRANCH  15  17
ATOM     17  N   UNL     1       3.422   2.286   6.510  0.00  0.00    -0.322 N 
ATOM     18  H   UNL     1       2.599   2.688   7.119  0.00  0.00    +0.148 HD
BRANCH  17  19
ATOM     19  C   UNL     1       4.757   2.132   7.093  0.00  0.00    +0.072 C 
ATOM     20  C   UNL     1       4.926   0.701   7.610  0.00  0.00    +0.022 C 
ATOM     21  C   UNL     1       6.320   0.541   8.219  0.00  0.00    +0.002 C 
ATOM     22  C   UNL     1       6.486   1.525   9.379  0.00  0.00    +0.000 C 
ATOM     23  C   UNL     1       6.317   2.955   8.862  0.00  0.00    +0.002 C 
ATOM     24  C   UNL     1       4.923   3.116   8.253  0.00  0.00    +0.022 C 
ENDBRANCH  17  19
ENDBRANCH  15  17
ENDBRANCH  13  15
ENDBRANCH   9  13
BRANCH  10  25
ATOM     25  O   UNL     1      -1.460   3.831   6.716  0.00  0.00    -0.491 OA
ATOM     26  H   UNL     1      -2.411   4.248   7.077  0.00  0.00    +0.294 HD
ENDBRANCH  10  25
TORSDOF 5
