REMARK  Name = ZINC29801355
REMARK  8 active torsions:
REMARK  status: ('A' for Active; 'I' for Inactive)
REMARK    1  A    between atoms: C_5  and  C_7
REMARK    2  A    between atoms: C_7  and  C_9
REMARK    3  A    between atoms: C_7  and  N_27
REMARK    4  A    between atoms: C_9  and  N_10
REMARK    5  A    between atoms: C_11  and  C_13
REMARK    6  A    between atoms: C_13  and  N_14
REMARK    7  A    between atoms: N_17  and  C_20
REMARK    8  A    between atoms: C_25  and  O_26
REMARK                            x       y       z     vdW  Elec       q    Type
REMARK                         _______ _______ _______ _____ _____    ______ ____
ROOT
ATOM      1  N   UNL     1       0.980  -4.190   1.374  0.00  0.00    -0.315 N 
ATOM      2  C   UNL     1       0.865  -4.880   2.526  0.00  0.00    +0.227 C 
ATOM      3  O   UNL     1       1.006  -4.314   3.589  0.00  0.00    -0.274 OA
ATOM      4  H   UNL     1       0.868  -4.643   0.524  0.00  0.00    +0.149 HD
ENDROOT
BRANCH   1   5
ATOM      5  C   UNL     1       1.275  -2.755   1.407  0.00  0.00    +0.093 C 
BRANCH   5   6
ATOM      6  C   UNL     1       1.232  -2.193  -0.016  0.00  0.00    -0.019 C 
BRANCH   6  11
ATOM      7  C   UNL     1      -1.823  -3.479  -1.823  0.00  0.00    +0.000 A 
ATOM      8  C   UNL     1      -2.746  -2.487  -1.546  0.00  0.00    +0.001 A 
ATOM      9  C   UNL     1      -2.382  -1.400  -0.774  0.00  0.00    +0.020 A 
ATOM     10  C   UNL     1      -1.094  -1.305  -0.278  0.00  0.00    +0.043 A 
ATOM     11  C   UNL     1      -0.171  -2.297  -0.555  0.00  0.00    -0.041 A 
ATOM     12  C   UNL     1      -0.536  -3.384  -1.328  0.00  0.00    +0.003 A 
ATOM     13 CL   UNL     1      -0.636   0.061   0.691  0.00  0.00    -0.083 Cl
ENDBRANCH   6  11
BRANCH   6  14
ATOM     14  N   UNL     1       2.144  -2.962  -0.873  0.00  0.00    +0.385 N 
ATOM     15  C   UNL     1       2.199  -2.363  -2.231  0.00  0.00    -0.078 C 
ATOM     16  C   UNL     1       3.544  -2.884  -2.795  0.00  0.00    -0.020 C 
ATOM     17  C   UNL     1       4.471  -2.856  -1.559  0.00  0.00    -0.020 C 
ATOM     18  C   UNL     1       3.524  -2.889  -0.345  0.00  0.00    -0.078 C 
ATOM     19  H   UNL     1       1.843  -3.924  -0.928  0.00  0.00    -0.081 HD
ENDBRANCH   6  14
ENDBRANCH   5   6
ENDBRANCH   1   5
BRANCH   2  20
ATOM     20  C   UNL     1       0.562  -6.356   2.493  0.00  0.00    +0.180 C 
BRANCH  20  21
ATOM     21  N   UNL     1       0.488  -6.872   3.866  0.00  0.00    -0.291 NA
ATOM     22  C   UNL     1       1.796  -6.791   4.530  0.00  0.00    +0.104 C 
ATOM     23  C   UNL     1       1.639  -7.166   6.008  0.00  0.00    +0.120 C 
ATOM     24  N   UNL     1       0.980  -8.478   6.090  0.00  0.00    -0.325 N 
ATOM     25  C   UNL     1      -0.268  -8.678   5.337  0.00  0.00    +0.120 C 
ATOM     26  C   UNL     1      -0.036  -8.244   3.886  0.00  0.00    +0.104 C 
BRANCH  24  27
ATOM     27  C   UNL     1       1.525  -9.509   6.864  0.00  0.00    +0.072 A 
ATOM     28  C   UNL     1       1.159  -9.648   8.194  0.00  0.00    +0.027 A 
ATOM     29  C   UNL     1       1.699 -10.667   8.957  0.00  0.00    +0.002 A 
ATOM     30  C   UNL     1       2.603 -11.549   8.396  0.00  0.00    +0.004 A 
ATOM     31  C   UNL     1       2.973 -11.417   7.070  0.00  0.00    +0.047 A 
ATOM     32  C   UNL     1       2.433 -10.402   6.298  0.00  0.00    +0.138 A 
BRANCH  32  33
ATOM     33  O   UNL     1       2.791 -10.274   4.992  0.00  0.00    -0.505 OA
ATOM     34  H   UNL     1       3.562  -9.708   4.850  0.00  0.00    +0.292 HD
ENDBRANCH  32  33
ENDBRANCH  24  27
ENDBRANCH  20  21
ENDBRANCH   2  20
TORSDOF 8
