REMARK  Name = ZINC08838127
REMARK  10 active torsions:
REMARK  status: ('A' for Active; 'I' for Inactive)
REMARK    1  A    between atoms: C_1  and  C_2
REMARK    2  A    between atoms: C_2  and  C_4
REMARK    3  A    between atoms: C_2  and  N_14
REMARK    4  A    between atoms: N_14  and  C_15
REMARK    5  A    between atoms: C_17  and  N_24
REMARK    6  A    between atoms: C_20  and  N_21
REMARK    7  A    between atoms: C_30  and  C_32
REMARK    8  A    between atoms: C_35  and  C_38
REMARK    9  A    between atoms: C_38  and  C_39
REMARK   10  A    between atoms: C_38  and  C_40
REMARK                            x       y       z     vdW  Elec       q    Type
REMARK                         _______ _______ _______ _____ _____    ______ ____
ROOT
ATOM      1  C   UNL     1       1.788   0.517   0.761  0.00  0.00    +0.060 A 
ATOM      2  C   UNL     1       2.560   0.506  -0.392  0.00  0.00    +0.048 A 
ATOM      3  C   UNL     1       3.942   0.590  -0.299  0.00  0.00    +0.032 A 
ATOM      4  C   UNL     1       4.548   0.684   0.948  0.00  0.00    +0.025 A 
ATOM      5  C   UNL     1       3.777   0.693   2.094  0.00  0.00    +0.036 A 
ATOM      6  C   UNL     1       2.400   0.617   2.005  0.00  0.00    +0.147 A 
ENDROOT
BRANCH   3   7
ATOM      7  N   UNL     1       4.722   0.579  -1.457  0.00  0.00    -0.327 N 
ATOM      8  C   UNL     1       6.189   0.610  -1.371  0.00  0.00    +0.124 C 
ATOM      9  C   UNL     1       6.751  -0.591  -2.141  0.00  0.00    +0.127 C 
ATOM     10  N   UNL     1       6.120  -0.634  -3.468  0.00  0.00    -0.295 N 
ATOM     11  C   UNL     1       4.654  -0.665  -3.554  0.00  0.00    +0.127 C 
ATOM     12  C   UNL     1       4.092   0.530  -2.784  0.00  0.00    +0.124 C 
ATOM     13  C   UNL     1       6.874  -0.644  -4.586  0.00  0.00    +0.247 C 
ATOM     14  O   UNL     1       6.346  -0.773  -5.673  0.00  0.00    -0.270 OA
BRANCH  13  15
ATOM     15  C   UNL     1       8.342  -0.500  -4.489  0.00  0.00    +0.037 A 
ATOM     16  C   UNL     1       9.062  -1.257  -3.564  0.00  0.00    +0.013 A 
ATOM     17  C   UNL     1      10.431  -1.118  -3.479  0.00  0.00    +0.004 A 
ATOM     18  C   UNL     1      11.092  -0.229  -4.308  0.00  0.00    -0.045 A 
ATOM     19  C   UNL     1      10.384   0.526  -5.227  0.00  0.00    +0.004 A 
ATOM     20  C   UNL     1       9.015   0.391  -5.326  0.00  0.00    +0.013 A 
BRANCH  18  21
ATOM     21  C   UNL     1      12.588  -0.081  -4.209  0.00  0.00    +0.013 C 
ATOM     22  C   UNL     1      13.226  -0.439  -5.553  0.00  0.00    +0.012 C 
ATOM     23  C   UNL     1      12.936   1.365  -3.849  0.00  0.00    +0.012 C 
ENDBRANCH  18  21
ENDBRANCH  13  15
ENDBRANCH   3   7
BRANCH   6  24
ATOM     24  N   UNL     1       1.577   0.634   3.235  0.00  0.00    +0.058 N 
ATOM     25  O   UNL     1       0.522   1.225   3.248  0.00  0.00    -0.126 OA
ATOM     26  O   UNL     1       1.960   0.058   4.226  0.00  0.00    -0.126 OA
ENDBRANCH   6  24
BRANCH   1  27
ATOM     27  N   UNL     1       0.396   0.433   0.672  0.00  0.00    -0.339 N 
ATOM     28  H   UNL     1      -0.137   0.342   1.477  0.00  0.00    +0.146 HD
BRANCH  27  30
ATOM     29  C   UNL     1      -0.466   1.940  -1.050  0.00  0.00    +0.028 C 
ATOM     30  C   UNL     1      -0.258   0.481  -0.638  0.00  0.00    +0.074 C 
BRANCH  30  31
ATOM     31  C   UNL     1      -1.613  -0.224  -0.558  0.00  0.00    -0.010 C 
ATOM     32  C   UNL     1      -2.493   0.478   0.478  0.00  0.00    +0.012 C 
ATOM     33  C   UNL     1      -3.848  -0.228   0.559  0.00  0.00    -0.010 C 
ATOM     34  C   UNL     1      -4.532  -0.177  -0.809  0.00  0.00    +0.007 C 
ATOM     35  C   UNL     1      -3.651  -0.879  -1.845  0.00  0.00    -0.010 C 
ATOM     36  C   UNL     1      -2.296  -0.173  -1.926  0.00  0.00    +0.012 C 
ATOM     37  C   UNL     1      -3.443  -2.338  -1.433  0.00  0.00    +0.007 C 
ATOM     38  C   UNL     1      -2.760  -2.389  -0.065  0.00  0.00    -0.010 C 
ATOM     39  C   UNL     1      -3.640  -1.687   0.971  0.00  0.00    +0.007 C 
ATOM     40  C   UNL     1      -1.405  -1.683  -0.145  0.00  0.00    +0.012 C 
ENDBRANCH  30  31
ENDBRANCH  27  30
ENDBRANCH   1  27
TORSDOF 7
