REMARK  Name = ZINC36024550
REMARK  7 active torsions:
REMARK  status: ('A' for Active; 'I' for Inactive)
REMARK    1  A    between atoms: C_1  and  C_2
REMARK    2  A    between atoms: C_2  and  C_3
REMARK    3  A    between atoms: C_2  and  C_4
REMARK    4  A    between atoms: N_8  and  C_27
REMARK    5  A    between atoms: N_13  and  S_16
REMARK    6  A    between atoms: S_16  and  C_19
REMARK    7  A    between atoms: C_27  and  C_28
REMARK                            x       y       z     vdW  Elec       q    Type
REMARK                         _______ _______ _______ _____ _____    ______ ____
ROOT
ATOM      1  C   UNL     1       0.877  -1.000   1.242  0.00  0.00    +0.022 C 
ATOM      2  C   UNL     1       0.140  -0.397   2.418  0.00  0.00    +0.201 C 
ATOM      3  O   UNL     1      -0.256   0.747   2.495  0.00  0.00    -0.277 OA
ATOM      4  N   UNL     1      -0.003  -1.346   3.367  0.00  0.00    -0.311 N 
ATOM      5  C   UNL     1       0.611  -2.594   2.906  0.00  0.00    +0.006 C 
ATOM      6  N   UNL     1       0.774  -2.466   1.441  0.00  0.00    +0.401 N 
ATOM      7  C   UNL     1      -0.299  -3.779   3.224  0.00  0.00    +0.023 C 
ATOM      8  C   UNL     1      -0.490  -3.881   4.741  0.00  0.00    +0.109 C 
ATOM      9  N   UNL     1       0.831  -3.933   5.381  0.00  0.00    -0.177 NA
ATOM     10  C   UNL     1       1.806  -2.876   5.080  0.00  0.00    +0.109 C 
ATOM     11  C   UNL     1       1.978  -2.784   3.560  0.00  0.00    +0.023 C 
ATOM     12  H   UNL     1      -0.033  -2.836   0.959  0.00  0.00    -0.082 HD
ATOM     13  H   UNL     1       1.617  -2.928   1.133  0.00  0.00    -0.082 HD
ENDROOT
BRANCH   1  15
ATOM     14  C   UNL     1       0.291   0.926  -0.237  0.00  0.00    +0.006 C 
ATOM     15  C   UNL     1       0.207  -0.592  -0.072  0.00  0.00    -0.023 C 
ATOM     16  C   UNL     1       0.922  -1.272  -1.241  0.00  0.00    +0.006 C 
ENDBRANCH   1  15
BRANCH   9  17
ATOM     17  S   UNL     1       1.214  -5.161   6.424  0.00  0.00    +0.061 S 
ATOM     18  O   UNL     1       2.247  -4.670   7.268  0.00  0.00    -0.153 OA
ATOM     19  O   UNL     1      -0.015  -5.659   6.934  0.00  0.00    -0.153 OA
BRANCH  17  20
ATOM     20  C   UNL     1       1.923  -6.458   5.464  0.00  0.00    +0.107 A 
ATOM     21  C   UNL     1       1.113  -7.439   4.922  0.00  0.00    +0.030 A 
ATOM     22  C   UNL     1       1.667  -8.456   4.169  0.00  0.00    +0.023 A 
ATOM     23  C   UNL     1       3.034  -8.494   3.957  0.00  0.00    +0.059 A 
ATOM     24  C   UNL     1       3.845  -7.512   4.498  0.00  0.00    +0.061 A 
ATOM     25  C   UNL     1       3.288  -6.491   5.248  0.00  0.00    +0.050 A 
ATOM     26 CL   UNL     1       5.560  -7.558   4.233  0.00  0.00    -0.082 Cl
ATOM     27 CL   UNL     1       3.731  -9.772   3.011  0.00  0.00    -0.082 Cl
ENDBRANCH  17  20
ENDBRANCH   9  17
BRANCH   4  28
ATOM     28  C   UNL     1      -0.669  -1.157   4.658  0.00  0.00    +0.137 C 
BRANCH  28  29
ATOM     29  C   UNL     1      -2.163  -1.452   4.509  0.00  0.00    +0.136 C 
ATOM     30  C   UNL     1      -2.879  -1.304   5.875  0.00  0.00    +0.035 C 
ATOM     31  C   UNL     1      -4.330  -0.996   5.415  0.00  0.00    +0.031 C 
ATOM     32  C   UNL     1      -4.098  -0.176   4.127  0.00  0.00    +0.160 C 
ATOM     33  O   UNL     1      -2.780  -0.479   3.652  0.00  0.00    -0.375 OA
ENDBRANCH  28  29
ENDBRANCH   4  28
TORSDOF 5
