REMARK  Name = ZINC03211260
REMARK  5 active torsions:
REMARK  status: ('A' for Active; 'I' for Inactive)
REMARK    1  A    between atoms: C_8  and  C_10
REMARK    2  A    between atoms: C_12  and  N_17
REMARK    3  A    between atoms: C_15  and  O_16
REMARK    4  A    between atoms: C_18  and  C_19
REMARK    5  A    between atoms: C_22  and  C_24
REMARK                            x       y       z     vdW  Elec       q    Type
REMARK                         _______ _______ _______ _____ _____    ______ ____
ROOT
ATOM      1  C   UNL     1       2.983  -4.021  -0.048  0.00  0.00    +0.051 A 
ATOM      2  C   UNL     1       4.324  -4.397  -0.057  0.00  0.00    +0.042 A 
ATOM      3  C   UNL     1       4.664  -5.750  -0.067  0.00  0.00    +0.065 A 
ATOM      4  C   UNL     1       3.658  -6.722  -0.068  0.00  0.00    +0.031 A 
ATOM      5  C   UNL     1       2.332  -6.348  -0.059  0.00  0.00    +0.048 A 
ATOM      6  C   UNL     1       1.985  -5.004  -0.043  0.00  0.00    +0.127 A 
ENDROOT
BRANCH   1  14
ATOM      7  C   UNL     1      -0.016   1.355   0.009  0.00  0.00    +0.002 A 
ATOM      8  C   UNL     1       1.155   2.100   0.002  0.00  0.00    +0.001 A 
ATOM      9  C   UNL     1       2.373   1.447  -0.013  0.00  0.00    +0.017 A 
ATOM     10  C   UNL     1       2.403   0.074  -0.021  0.00  0.00    +0.040 A 
ATOM     11  C   UNL     1       1.227  -0.713  -0.013  0.00  0.00    +0.079 A 
ATOM     12  C   UNL     1       0.002  -0.004   0.002  0.00  0.00    +0.029 A 
ATOM     13  N   UNL     1       1.417  -2.047  -0.022  0.00  0.00    -0.239 NA
ATOM     14  C   UNL     1       2.615  -2.590  -0.037  0.00  0.00    +0.113 A 
ATOM     15  S   UNL     1       3.683  -1.157  -0.039  0.00  0.00    -0.067 S 
ENDBRANCH   1  14
BRANCH   6  16
ATOM     16  O   UNL     1       0.676  -4.642  -0.028  0.00  0.00    -0.506 OA
ATOM     17  H   UNL     1       0.289  -4.532  -0.907  0.00  0.00    +0.292 HD
ENDBRANCH   6  16
BRANCH   3  18
ATOM     18  N   UNL     1       5.978  -6.125  -0.077  0.00  0.00    -0.252 NA
ATOM     19  C   UNL     1       6.392  -7.080   0.717  0.00  0.00    +0.157 C 
BRANCH  19  20
ATOM     20  C   UNL     1       7.754  -7.469   0.707  0.00  0.00    +0.147 A 
ATOM     21  C   UNL     1       8.320  -8.460   1.484  0.00  0.00    +0.051 A 
ATOM     22  C   UNL     1       9.677  -8.507   1.152  0.00  0.00    +0.050 A 
ATOM     23  C   UNL     1       9.890  -7.555   0.196  0.00  0.00    +0.136 A 
ATOM     24  O   UNL     1       8.724  -6.940  -0.068  0.00  0.00    -0.454 OA
BRANCH  23  25
ATOM     25  C   UNL     1      11.186  -7.254  -0.445  0.00  0.00    +0.018 A 
ATOM     26  C   UNL     1      12.328  -7.976  -0.090  0.00  0.00    +0.011 A 
ATOM     27  C   UNL     1      13.535  -7.690  -0.693  0.00  0.00    +0.002 A 
ATOM     28  C   UNL     1      13.617  -6.692  -1.648  0.00  0.00    +0.015 A 
ATOM     29  C   UNL     1      12.489  -5.973  -2.005  0.00  0.00    +0.019 A 
ATOM     30  C   UNL     1      11.273  -6.252  -1.414  0.00  0.00    +0.026 A 
ATOM     31 BR   UNL     1      12.612  -4.610  -3.310  0.00  0.00    -0.050 Br
ENDBRANCH  23  25
ENDBRANCH  19  20
ENDBRANCH   3  18
TORSDOF 5
