REMARK  Name = ZINC36029039
REMARK  9 active torsions:
REMARK  status: ('A' for Active; 'I' for Inactive)
REMARK    1  A    between atoms: C_1  and  C_2
REMARK    2  A    between atoms: C_2  and  C_3
REMARK    3  A    between atoms: C_3  and  C_5
REMARK    4  A    between atoms: C_3  and  C_6
REMARK    5  A    between atoms: N_10  and  C_28
REMARK    6  A    between atoms: N_15  and  C_18
REMARK    7  A    between atoms: C_18  and  N_20
REMARK    8  A    between atoms: N_20  and  C_21
REMARK    9  A    between atoms: C_28  and  C_29
REMARK                            x       y       z     vdW  Elec       q    Type
REMARK                         _______ _______ _______ _____ _____    ______ ____
ROOT
ATOM      1  C   UNL     1      -2.019  -2.482  -1.085  0.00  0.00    +0.022 C 
ATOM      2  C   UNL     1      -1.308  -2.924   0.176  0.00  0.00    +0.201 C 
ATOM      3  O   UNL     1      -0.283  -2.446   0.616  0.00  0.00    -0.277 OA
ATOM      4  N   UNL     1      -2.005  -3.939   0.727  0.00  0.00    -0.310 N 
ATOM      5  C   UNL     1      -3.178  -4.233  -0.100  0.00  0.00    +0.006 C 
ATOM      6  N   UNL     1      -3.382  -3.056  -0.973  0.00  0.00    +0.401 N 
ATOM      7  C   UNL     1      -2.922  -5.471  -0.958  0.00  0.00    +0.025 C 
ATOM      8  C   UNL     1      -2.672  -6.678  -0.047  0.00  0.00    +0.107 C 
ATOM      9  N   UNL     1      -3.796  -6.803   0.890  0.00  0.00    -0.312 N 
ATOM     10  C   UNL     1      -4.170  -5.641   1.708  0.00  0.00    +0.107 C 
ATOM     11  C   UNL     1      -4.407  -4.443   0.782  0.00  0.00    +0.025 C 
ATOM     12  H   UNL     1      -4.012  -2.397  -0.541  0.00  0.00    -0.082 HD
ATOM     13  H   UNL     1      -3.725  -3.338  -1.879  0.00  0.00    -0.082 HD
ENDROOT
BRANCH   1  14
ATOM     14  C   UNL     1      -2.088  -0.955  -1.149  0.00  0.00    -0.020 C 
ATOM     15  C   UNL     1      -2.674  -0.415   0.157  0.00  0.00    +0.006 C 
BRANCH  14  17
ATOM     16  C   UNL     1      -0.763   1.127  -1.540  0.00  0.00    +0.004 C 
ATOM     17  C   UNL     1      -0.681  -0.389  -1.350  0.00  0.00    -0.001 C 
ENDBRANCH  14  17
ENDBRANCH   1  14
BRANCH   9  18
ATOM     18  C   UNL     1      -4.473  -7.964   0.998  0.00  0.00    +0.137 C 
ATOM     19  S   UNL     1      -3.952  -9.343   0.128  0.00  0.00    -0.018 S 
BRANCH  18  20
ATOM     20  N   UNL     1      -5.561  -8.039   1.791  0.00  0.00    -0.295 N 
ATOM     21  H   UNL     1      -6.445  -8.102   1.397  0.00  0.00    +0.154 HD
BRANCH  20  22
ATOM     22  C   UNL     1      -5.414  -8.025   3.183  0.00  0.00    +0.068 A 
ATOM     23  C   UNL     1      -4.147  -8.051   3.750  0.00  0.00    +0.026 A 
ATOM     24  C   UNL     1      -4.005  -8.037   5.124  0.00  0.00    +0.002 A 
ATOM     25  C   UNL     1      -5.123  -7.996   5.936  0.00  0.00    +0.003 A 
ATOM     26  C   UNL     1      -6.388  -7.970   5.377  0.00  0.00    +0.040 A 
ATOM     27  C   UNL     1      -6.537  -7.978   4.002  0.00  0.00    +0.144 A 
ATOM     28  F   UNL     1      -7.772  -7.947   3.455  0.00  0.00    -0.204 F 
ENDBRANCH  20  22
ENDBRANCH  18  20
ENDBRANCH   9  18
BRANCH   4  29
ATOM     29  C   UNL     1      -1.644  -4.640   1.963  0.00  0.00    +0.132 C 
BRANCH  29  30
ATOM     30  C   UNL     1      -2.184  -3.880   3.147  0.00  0.00    -0.016 C 
ATOM     31  C   UNL     1      -2.889  -4.502   4.059  0.00  0.00    +0.005 C 
ENDBRANCH  29  30
ENDBRANCH   4  29
TORSDOF 7
