REMARK  Name = ZINC37281481
REMARK  5 active torsions:
REMARK  status: ('A' for Active; 'I' for Inactive)
REMARK    1  A    between atoms: C_1  and  C_2
REMARK    2  A    between atoms: C_9  and  N_14
REMARK    3  A    between atoms: N_14  and  C_15
REMARK    4  A    between atoms: C_15  and  C_17
REMARK    5  A    between atoms: C_15  and  C_18
REMARK                            x       y       z     vdW  Elec       q    Type
REMARK                         _______ _______ _______ _____ _____    ______ ____
ROOT
ATOM      1  C   UNL     1      -0.019   1.526   0.010  0.00  0.00    +0.062 C 
ATOM      2  C   UNL     1       0.002  -0.004   0.002  0.00  0.00    +0.256 C 
ATOM      3  C   UNL     1      -1.413  -0.525   0.011  0.00  0.00    +0.258 C 
ATOM      4  O   UNL     1      -2.306   0.131  -0.480  0.00  0.00    -0.271 OA
ATOM      5  N   UNL     1      -1.680  -1.726   0.568  0.00  0.00    -0.279 N 
ATOM      6  C   UNL     1      -0.635  -2.449   1.161  0.00  0.00    +0.077 A 
ATOM      7  C   UNL     1      -0.783  -3.795   1.452  0.00  0.00    +0.050 A 
ATOM      8  C   UNL     1       0.264  -4.493   2.039  0.00  0.00    +0.030 A 
ATOM      9  C   UNL     1       1.455  -3.842   2.333  0.00  0.00    +0.026 A 
ATOM     10  C   UNL     1       1.603  -2.498   2.041  0.00  0.00    +0.049 A 
ATOM     11  C   UNL     1       0.562  -1.799   1.455  0.00  0.00    +0.143 A 
ATOM     12  O   UNL     1       0.695  -0.477   1.160  0.00  0.00    -0.478 OA
ATOM     13  H   UNL     1      -2.582  -2.083   0.559  0.00  0.00    +0.155 HD
ENDROOT
BRANCH   8  14
ATOM     14  N   UNL     1       0.118  -5.852   2.336  0.00  0.00    -0.337 N 
ATOM     15  H   UNL     1      -0.714  -6.307   2.132  0.00  0.00    +0.147 HD
BRANCH  14  16
ATOM     16  C   UNL     1       1.222  -6.589   2.956  0.00  0.00    +0.105 C 
ATOM     17  C   UNL     1       2.182  -7.079   1.870  0.00  0.00    +0.033 C 
BRANCH  16  18
ATOM     18  C   UNL     1       0.675  -7.771   3.714  0.00  0.00    +0.024 A 
ATOM     19  C   UNL     1       0.990  -8.207   4.958  0.00  0.00    +0.030 A 
ATOM     20  C   UNL     1       0.352  -9.329   5.456  0.00  0.00    +0.023 A 
ATOM     21  C   UNL     1      -0.569  -9.958   4.686  0.00  0.00    +0.046 A 
ATOM     22  S   UNL     1      -0.561  -8.956   3.208  0.00  0.00    -0.099 S 
ATOM     23 BR   UNL     1       2.281  -7.297   5.997  0.00  0.00    -0.049 Br
ENDBRANCH  16  18
ENDBRANCH  14  16
ENDBRANCH   8  14
TORSDOF 3
