REMARK  Name = ZINC37722135
REMARK  11 active torsions:
REMARK  status: ('A' for Active; 'I' for Inactive)
REMARK    1  A    between atoms: C_1  and  C_2
REMARK    2  A    between atoms: C_2  and  C_3
REMARK    3  A    between atoms: C_3  and  C_5
REMARK    4  A    between atoms: C_3  and  N_6
REMARK    5  A    between atoms: C_7  and  C_9
REMARK    6  A    between atoms: C_9  and  C_11
REMARK    7  A    between atoms: C_9  and  O_12
REMARK    8  A    between atoms: O_12  and  C_13
REMARK    9  A    between atoms: C_14  and  C_21
REMARK   10  A    between atoms: C_21  and  C_22
REMARK   11  A    between atoms: C_22  and  N_23
REMARK                            x       y       z     vdW  Elec       q    Type
REMARK                         _______ _______ _______ _____ _____    ______ ____
ROOT
ATOM      1  C   UNL     1      -6.171   0.087  -3.500  0.00  0.00    +0.143 A 
ATOM      2  C   UNL     1      -6.744  -1.172  -3.607  0.00  0.00    -0.005 A 
ATOM      3  C   UNL     1      -7.615  -1.448  -4.643  0.00  0.00    +0.027 A 
ATOM      4  C   UNL     1      -7.916  -0.471  -5.575  0.00  0.00    +0.043 A 
ATOM      5  C   UNL     1      -7.346   0.785  -5.472  0.00  0.00    +0.043 A 
ATOM      6  C   UNL     1      -6.478   1.068  -4.433  0.00  0.00    +0.084 A 
ATOM      7 CL   UNL     1      -5.769   2.647  -4.298  0.00  0.00    -0.080 Cl
ATOM      8 CL   UNL     1      -9.009  -0.822  -6.877  0.00  0.00    -0.083 Cl
ENDROOT
BRANCH   1   9
ATOM      9  O   UNL     1      -5.314   0.360  -2.481  0.00  0.00    -0.478 OA
BRANCH   9  10
ATOM     10  C   UNL     1      -3.949  -0.021  -2.661  0.00  0.00    +0.256 C 
ATOM     11  C   UNL     1      -3.167   1.149  -3.259  0.00  0.00    +0.062 C 
BRANCH  10  13
ATOM     12  N   UNL     1      -2.099  -0.887  -1.265  0.00  0.00    -0.310 N 
ATOM     13  C   UNL     1      -3.353  -0.396  -1.328  0.00  0.00    +0.254 C 
ATOM     14  O   UNL     1      -4.000  -0.254  -0.313  0.00  0.00    -0.272 OA
ATOM     15  H   UNL     1      -1.581  -1.000  -2.077  0.00  0.00    +0.149 HD
BRANCH  12  16
ATOM     16  C   UNL     1      -1.519  -1.250   0.030  0.00  0.00    +0.070 C 
ATOM     17  C   UNL     1      -1.939  -2.676   0.395  0.00  0.00    +0.028 C 
BRANCH  16  19
ATOM     18  C   UNL     1       0.432   0.275  -0.296  0.00  0.00    +0.005 C 
ATOM     19  C   UNL     1       0.006  -1.174  -0.055  0.00  0.00    +0.018 C 
ENDBRANCH  16  19
ENDBRANCH  12  16
ENDBRANCH  10  13
ENDBRANCH   9  10
ENDBRANCH   1   9
BRANCH   2  20
ATOM     20  C   UNL     1      -6.417  -2.237  -2.592  0.00  0.00    +0.019 C 
BRANCH  20  21
ATOM     21  C   UNL     1      -7.348  -2.096  -1.386  0.00  0.00    -0.082 C 
BRANCH  21  22
ATOM     22  N   UNL     1      -6.973  -3.079  -0.361  0.00  0.00    +0.378 N 
ATOM     23  H   UNL     1      -7.587  -2.986   0.435  0.00  0.00    -0.090 HD
ATOM     24  H   UNL     1      -7.054  -4.010  -0.741  0.00  0.00    -0.090 HD
ATOM     25  H   UNL     1      -6.020  -2.916  -0.071  0.00  0.00    -0.090 HD
ENDBRANCH  21  22
ENDBRANCH  20  21
ENDBRANCH   2  20
TORSDOF 8
