REMARK  Name = ZINC19946608
REMARK  8 active torsions:
REMARK  status: ('A' for Active; 'I' for Inactive)
REMARK    1  A    between atoms: C_1  and  C_2
REMARK    2  A    between atoms: C_3  and  C_12
REMARK    3  A    between atoms: C_12  and  C_14
REMARK    4  A    between atoms: C_12  and  O_29
REMARK    5  A    between atoms: C_14  and  N_15
REMARK    6  A    between atoms: N_18  and  C_21
REMARK    7  A    between atoms: C_26  and  O_27
REMARK    8  A    between atoms: O_27  and  C_28
REMARK                            x       y       z     vdW  Elec       q    Type
REMARK                         _______ _______ _______ _____ _____    ______ ____
ROOT
ATOM      1  C   UNL     1      -1.409   0.215  -2.884  0.00  0.00    +0.120 C 
ENDROOT
BRANCH   1   2
ATOM      2  N   UNL     1      -1.344   0.526  -4.318  0.00  0.00    -0.297 NA
ATOM      3  C   UNL     1      -0.377   1.599  -4.581  0.00  0.00    +0.103 C 
ATOM      4  C   UNL     1      -0.206   1.768  -6.095  0.00  0.00    +0.120 C 
ATOM      5  N   UNL     1      -1.534   1.967  -6.696  0.00  0.00    -0.325 N 
ATOM      6  C   UNL     1      -2.597   1.005  -6.367  0.00  0.00    +0.120 C 
ATOM      7  C   UNL     1      -2.674   0.865  -4.843  0.00  0.00    +0.103 C 
BRANCH   5   8
ATOM      8  C   UNL     1      -1.779   3.042  -7.557  0.00  0.00    +0.072 A 
ATOM      9  C   UNL     1      -1.583   2.897  -8.923  0.00  0.00    +0.027 A 
ATOM     10  C   UNL     1      -1.827   3.961  -9.772  0.00  0.00    +0.002 A 
ATOM     11  C   UNL     1      -2.265   5.169  -9.264  0.00  0.00    +0.004 A 
ATOM     12  C   UNL     1      -2.462   5.321  -7.903  0.00  0.00    +0.047 A 
ATOM     13  C   UNL     1      -2.226   4.259  -7.046  0.00  0.00    +0.141 A 
BRANCH  13  14
ATOM     14  O   UNL     1      -2.424   4.405  -5.709  0.00  0.00    -0.493 OA
ATOM     15  C   UNL     1      -2.883   5.680  -5.256  0.00  0.00    +0.277 C 
ENDBRANCH  13  14
ENDBRANCH   5   8
ENDBRANCH   1   2
BRANCH   1  16
ATOM     16  C   UNL     1      -2.003  -1.181  -2.691  0.00  0.00    +0.161 C 
BRANCH  16  19
ATOM     17  C   UNL     1       0.382  -1.941  -0.856  0.00  0.00    +0.063 C 
ATOM     18  C   UNL     1      -1.055  -1.824  -0.417  0.00  0.00    +0.020 A 
ATOM     19  C   UNL     1      -2.081  -1.495  -1.219  0.00  0.00    +0.010 A 
ATOM     20  C   UNL     1      -3.289  -1.500  -0.391  0.00  0.00    +0.006 A 
ATOM     21  C   UNL     1      -4.639  -1.244  -0.642  0.00  0.00    +0.010 A 
ATOM     22  C   UNL     1      -5.547  -1.335   0.374  0.00  0.00    +0.001 A 
ATOM     23  C   UNL     1      -5.139  -1.678   1.656  0.00  0.00    +0.002 A 
ATOM     24  C   UNL     1      -3.813  -1.934   1.926  0.00  0.00    +0.026 A 
ATOM     25  C   UNL     1      -2.871  -1.848   0.906  0.00  0.00    +0.047 A 
ATOM     26  N   UNL     1      -1.509  -2.043   0.855  0.00  0.00    -0.358 N 
ATOM     27  H   UNL     1      -0.953  -2.297   1.609  0.00  0.00    +0.166 HD
ENDBRANCH  16  19
BRANCH  16  28
ATOM     28  O   UNL     1      -1.174  -2.147  -3.341  0.00  0.00    -0.386 OA
ATOM     29  H   UNL     1      -0.267  -2.174  -3.007  0.00  0.00    +0.210 HD
ENDBRANCH  16  28
ENDBRANCH   1  16
TORSDOF 6
