REMARK  Name = ZINC07435306
REMARK  3 active torsions:
REMARK  status: ('A' for Active; 'I' for Inactive)
REMARK    1  A    between atoms: C_11  and  C_16
REMARK    2  A    between atoms: C_16  and  N_45
REMARK    3  A    between atoms: C_19  and  C_22
REMARK                            x       y       z     vdW  Elec       q    Type
REMARK                         _______ _______ _______ _____ _____    ______ ____
ROOT
ATOM      1  C   UNL     1      -1.306   1.876  -0.238  0.00  0.00    +0.001 A 
ATOM      2  C   UNL     1      -0.110   1.171  -0.172  0.00  0.00    +0.001 A 
ATOM      3  C   UNL     1       1.089   1.825  -0.121  0.00  0.00    +0.009 A 
ATOM      4  C   UNL     1       1.136   3.219  -0.111  0.00  0.00    -0.007 A 
ATOM      5  C   UNL     1      -0.095   3.922  -0.004  0.00  0.00    -0.017 A 
ATOM      6  C   UNL     1      -1.308   3.236  -0.167  0.00  0.00    +0.008 A 
ATOM      7  C   UNL     1      -0.086   5.293   0.319  0.00  0.00    +0.012 A 
ATOM      8  C   UNL     1       1.083   5.969   0.428  0.00  0.00    +0.047 A 
ATOM      9  C   UNL     1       2.308   5.361   0.142  0.00  0.00    +0.140 A 
ATOM     10  C   UNL     1       2.361   4.005  -0.230  0.00  0.00    +0.027 A 
ATOM     11  C   UNL     1       3.572   3.519  -0.771  0.00  0.00    -0.046 A 
ATOM     12  C   UNL     1       4.705   4.270  -0.634  0.00  0.00    +0.094 A 
ATOM     13  C   UNL     1       4.638   5.538  -0.030  0.00  0.00    +0.337 A 
ATOM     14  O   UNL     1       5.660   6.154   0.209  0.00  0.00    -0.245 OA
ATOM     15  O   UNL     1       3.445   6.077   0.270  0.00  0.00    -0.422 OA
ENDROOT
BRANCH  11  16
ATOM     16  C   UNL     1       3.679   2.216  -1.520  0.00  0.00    -0.042 C 
BRANCH  16  22
ATOM     17  C   UNL     1       3.401   3.598  -3.488  0.00  0.00    -0.078 C 
ATOM     18  C   UNL     1       2.585   3.768  -4.771  0.00  0.00    -0.006 C 
ATOM     19  C   UNL     1       2.846   2.578  -5.698  0.00  0.00    +0.071 C 
ATOM     20  C   UNL     1       2.484   1.282  -4.966  0.00  0.00    -0.006 C 
ATOM     21  C   UNL     1       3.303   1.184  -3.677  0.00  0.00    -0.078 C 
ATOM     22  N   UNL     1       2.988   2.346  -2.819  0.00  0.00    +0.382 N 
ATOM     23  H   UNL     1       1.975   2.375  -2.656  0.00  0.00    -0.081 HD
BRANCH  19  24
ATOM     24  C   UNL     1       2.000   2.709  -6.938  0.00  0.00    +0.213 C 
ATOM     25  O   UNL     1       1.186   1.852  -7.210  0.00  0.00    -0.276 OA
ATOM     26  N   UNL     1       2.147   3.779  -7.744  0.00  0.00    -0.329 N 
ATOM     27  H   UNL     1       2.798   4.465  -7.526  0.00  0.00    +0.145 HD
ATOM     28  H   UNL     1       1.602   3.864  -8.542  0.00  0.00    +0.145 HD
ENDBRANCH  19  24
ENDBRANCH  16  22
ENDBRANCH  11  16
TORSDOF 3
