REMARK  Name = ZINC16195489
REMARK  10 active torsions:
REMARK  status: ('A' for Active; 'I' for Inactive)
REMARK    1  A    between atoms: C_1  and  O_2
REMARK    2  A    between atoms: O_2  and  C_3
REMARK    3  A    between atoms: C_5  and  C_19
REMARK    4  A    between atoms: C_8  and  O_9
REMARK    5  A    between atoms: O_9  and  C_10
REMARK    6  A    between atoms: C_10  and  C_11
REMARK    7  A    between atoms: C_19  and  N_54
REMARK    8  A    between atoms: C_20  and  C_21
REMARK    9  A    between atoms: C_20  and  N_54
REMARK   10  A    between atoms: C_21  and  C_22
REMARK                            x       y       z     vdW  Elec       q    Type
REMARK                         _______ _______ _______ _____ _____    ______ ____
ROOT
ATOM      1  C   UNL     1      -0.787   2.893   1.346  0.00  0.00    +0.163 A 
ATOM      2  C   UNL     1      -0.259   3.751   0.395  0.00  0.00    +0.051 A 
ATOM      3  C   UNL     1      -0.367   5.119   0.561  0.00  0.00    -0.059 A 
ATOM      4  C   UNL     1      -1.002   5.635   1.676  0.00  0.00    +0.025 A 
ATOM      5  C   UNL     1      -1.531   4.784   2.629  0.00  0.00    +0.086 A 
ATOM      6  C   UNL     1      -1.431   3.411   2.465  0.00  0.00    +0.181 A 
ATOM      7 CL   UNL     1      -2.327   5.436   4.028  0.00  0.00    -0.080 Cl
ENDROOT
BRANCH   1   9
ATOM      8  C   UNL     1      -0.013   1.086   0.008  0.00  0.00    +0.277 C 
ATOM      9  O   UNL     1      -0.682   1.547   1.184  0.00  0.00    -0.491 OA
ENDBRANCH   1   9
BRANCH   6  10
ATOM     10  O   UNL     1      -1.956   2.573   3.399  0.00  0.00    -0.482 OA
BRANCH  10  11
ATOM     11  C   UNL     1      -1.101   2.184   4.476  0.00  0.00    +0.264 C 
BRANCH  11  12
ATOM     12  C   UNL     1      -1.850   1.261   5.403  0.00  0.00    -0.010 A 
ATOM     13  C   UNL     1      -2.561   1.781   6.468  0.00  0.00    +0.008 A 
ATOM     14  C   UNL     1      -3.252   0.936   7.316  0.00  0.00    +0.020 A 
ATOM     15  C   UNL     1      -3.223  -0.431   7.105  0.00  0.00    +0.041 A 
ATOM     16  C   UNL     1      -2.506  -0.951   6.042  0.00  0.00    +0.020 A 
ATOM     17  C   UNL     1      -1.820  -0.104   5.191  0.00  0.00    +0.008 A 
ATOM     18 CL   UNL     1      -4.085  -1.494   8.173  0.00  0.00    -0.084 Cl
ENDBRANCH  11  12
ENDBRANCH  10  11
ENDBRANCH   6  10
BRANCH   3  19
ATOM     19  C   UNL     1       0.208   6.050  -0.475  0.00  0.00    -0.047 C 
BRANCH  19  20
ATOM     20  N   UNL     1      -0.821   6.336  -1.493  0.00  0.00    +0.382 N 
ATOM     21  H   UNL     1      -1.631   6.775  -1.041  0.00  0.00    -0.085 HD
ATOM     22  H   UNL     1      -1.111   5.457  -1.937  0.00  0.00    -0.085 HD
BRANCH  20  23
ATOM     23  C   UNL     1      -0.284   7.247  -2.522  0.00  0.00    -0.077 C 
BRANCH  23  24
ATOM     24  C   UNL     1      -1.371   7.524  -3.561  0.00  0.00    +0.018 C 
BRANCH  24  25
ATOM     25  C   UNL     1      -0.831   8.455  -4.617  0.00  0.00    -0.024 A 
ATOM     26  C   UNL     1      -0.966   9.790  -4.649  0.00  0.00    +0.087 A 
ATOM     27  N   UNL     1      -0.342  10.295  -5.757  0.00  0.00    -0.360 N 
ATOM     28  H   UNL     1      -0.301  11.235  -5.994  0.00  0.00    +0.165 HD
ATOM     29  C   UNL     1       0.217   9.271  -6.487  0.00  0.00    +0.047 A 
ATOM     30  C   UNL     1      -0.065   8.073  -5.805  0.00  0.00    +0.003 A 
ATOM     31  C   UNL     1       0.385   6.856  -6.320  0.00  0.00    +0.010 A 
ATOM     32  C   UNL     1       1.098   6.834  -7.486  0.00  0.00    +0.001 A 
ATOM     33  C   UNL     1       1.378   8.013  -8.162  0.00  0.00    +0.002 A 
ATOM     34  C   UNL     1       0.944   9.225  -7.672  0.00  0.00    +0.026 A 
ENDBRANCH  24  25
ENDBRANCH  23  24
ENDBRANCH  20  23
ENDBRANCH  19  20
ENDBRANCH   3  19
TORSDOF 9
