REMARK  Name = ZINC08673573
REMARK  5 active torsions:
REMARK  status: ('A' for Active; 'I' for Inactive)
REMARK    1  A    between atoms: C_1  and  C_2
REMARK    2  A    between atoms: C_4  and  O_10
REMARK    3  A    between atoms: C_6  and  C_9
REMARK    4  A    between atoms: O_10  and  C_11
REMARK    5  A    between atoms: C_11  and  C_12
REMARK                            x       y       z     vdW  Elec       q    Type
REMARK                         _______ _______ _______ _____ _____    ______ ____
ROOT
ATOM      1  C   UNL     1       0.049  -4.746  -3.712  0.00  0.00    +0.256 C 
ATOM      2  O   UNL     1       0.034  -4.003  -4.671  0.00  0.00    -0.272 OA
ATOM      3  N   UNL     1       0.067  -6.082  -3.895  0.00  0.00    -0.262 N 
ATOM      4  C   UNL     1       0.067  -6.607  -5.181  0.00  0.00    +0.165 A 
ATOM      5  N   UNL     1       0.058  -5.963  -6.327  0.00  0.00    -0.229 NA
ATOM      6  C   UNL     1       0.060  -6.602  -7.494  0.00  0.00    +0.054 A 
ATOM      7  C   UNL     1       0.072  -7.957  -7.402  0.00  0.00    +0.014 A 
ATOM      8  S   UNL     1       0.087  -8.226  -5.652  0.00  0.00    -0.057 S 
ATOM      9  C   UNL     1       0.076  -8.946  -8.518  0.00  0.00    +0.044 C 
ATOM     10  C   UNL     1      -0.306  -8.209  -9.812  0.00  0.00    +0.006 C 
ATOM     11  C   UNL     1       0.518  -6.922  -9.910  0.00  0.00    +0.006 C 
ATOM     12  C   UNL     1       0.052  -5.918  -8.853  0.00  0.00    +0.056 C 
ATOM     13  H   UNL     1       0.079  -6.676  -3.128  0.00  0.00    +0.157 HD
ENDROOT
BRANCH   1  14
ATOM     14  C   UNL     1       0.049  -4.176  -2.317  0.00  0.00    +0.324 C 
BRANCH  14  15
ATOM     15  O   UNL     1       0.028  -2.749  -2.386  0.00  0.00    -0.483 OA
BRANCH  15  19
ATOM     16  C   UNL     1      -0.018   1.503   0.010  0.00  0.00    +0.045 C 
ATOM     17  C   UNL     1       0.002  -0.004   0.002  0.00  0.00    -0.028 A 
ATOM     18  C   UNL     1       0.006  -0.688  -1.198  0.00  0.00    +0.050 A 
ATOM     19  C   UNL     1       0.025  -2.075  -1.206  0.00  0.00    +0.122 A 
ATOM     20  C   UNL     1       0.041  -2.773  -0.007  0.00  0.00    +0.050 A 
ATOM     21  C   UNL     1       0.037  -2.085   1.192  0.00  0.00    -0.028 A 
ATOM     22  C   UNL     1       0.023  -0.702   1.197  0.00  0.00    +0.047 A 
ATOM     23 CL   UNL     1       0.025   0.160   2.704  0.00  0.00    -0.083 Cl
ATOM     24  C   UNL     1       0.054  -2.843   2.494  0.00  0.00    +0.045 C 
ENDBRANCH  15  19
ENDBRANCH  14  15
ENDBRANCH   1  14
TORSDOF 3
