REMARK  Name = ZINC12368115
REMARK  5 active torsions:
REMARK  status: ('A' for Active; 'I' for Inactive)
REMARK    1  A    between atoms: C_4  and  C_8
REMARK    2  A    between atoms: C_9  and  N_13
REMARK    3  A    between atoms: C_14  and  O_16
REMARK    4  A    between atoms: O_16  and  N_17
REMARK    5  A    between atoms: C_18  and  C_19
REMARK                            x       y       z     vdW  Elec       q    Type
REMARK                         _______ _______ _______ _____ _____    ______ ____
ROOT
ATOM      1  N   UNL     1      -1.214   2.056   0.841  0.00  0.00    -0.247 N 
ATOM      2  C   UNL     1      -0.051   1.436   1.120  0.00  0.00    +0.430 C 
ATOM      3  O   UNL     1       1.000   2.036   1.006  0.00  0.00    -0.224 OA
ATOM      4  H   UNL     1      -2.045   1.556   0.852  0.00  0.00    +0.158 HD
ENDROOT
BRANCH   1   6
ATOM      5  C   UNL     1      -2.404   4.110   0.255  0.00  0.00    +0.104 A 
ATOM      6  C   UNL     1      -1.224   3.429   0.534  0.00  0.00    +0.071 A 
ATOM      7  C   UNL     1      -0.079   4.165   0.501  0.00  0.00    +0.090 A 
ATOM      8  S   UNL     1      -0.663   5.741   0.082  0.00  0.00    +0.006 S 
ATOM      9  N   UNL     1      -2.333   5.397  -0.024  0.00  0.00    -0.208 NA
BRANCH   5  13
ATOM     10  C   UNL     1      -6.148   2.092   0.293  0.00  0.00    +0.003 A 
ATOM     11  C   UNL     1      -5.933   3.161   1.143  0.00  0.00    +0.021 A 
ATOM     12  C   UNL     1      -4.719   3.821   1.136  0.00  0.00    +0.052 A 
ATOM     13  C   UNL     1      -3.709   3.406   0.268  0.00  0.00    +0.039 A 
ATOM     14  C   UNL     1      -3.933   2.330  -0.590  0.00  0.00    +0.052 A 
ATOM     15  C   UNL     1      -5.150   1.676  -0.570  0.00  0.00    +0.021 A 
ATOM     16 CL   UNL     1      -2.684   1.810  -1.678  0.00  0.00    -0.083 Cl
ATOM     17 CL   UNL     1      -4.452   5.163   2.204  0.00  0.00    -0.083 Cl
ENDBRANCH   5  13
ENDBRANCH   1   6
BRANCH   2  18
ATOM     18  O   UNL     1      -0.052   0.151   1.518  0.00  0.00    -0.297 OA
BRANCH  18  19
ATOM     19  N   UNL     1       1.031  -0.357   1.751  0.00  0.00    -0.057 NA
ATOM     20  C   UNL     1       1.097  -1.598   2.140  0.00  0.00    +0.166 C 
ATOM     21  N   UNL     1       2.327  -2.174   2.404  0.00  0.00    -0.340 N 
ATOM     22  H   UNL     1       3.139  -1.655   2.299  0.00  0.00    +0.144 HD
ATOM     23  H   UNL     1       2.377  -3.099   2.695  0.00  0.00    +0.144 HD
BRANCH  20  24
ATOM     24  C   UNL     1      -0.141  -2.391   2.300  0.00  0.00    +0.054 A 
ATOM     25  C   UNL     1      -0.805  -2.414   3.528  0.00  0.00    +0.053 A 
ATOM     26  C   UNL     1      -1.964  -3.152   3.669  0.00  0.00    +0.021 A 
ATOM     27  C   UNL     1      -2.461  -3.876   2.600  0.00  0.00    +0.003 A 
ATOM     28  C   UNL     1      -1.806  -3.862   1.383  0.00  0.00    +0.021 A 
ATOM     29  C   UNL     1      -0.649  -3.123   1.226  0.00  0.00    +0.053 A 
ATOM     30 CL   UNL     1       0.172  -3.106  -0.304  0.00  0.00    -0.083 Cl
ATOM     31 CL   UNL     1      -0.179  -1.512   4.873  0.00  0.00    -0.083 Cl
ENDBRANCH  20  24
ENDBRANCH  18  19
ENDBRANCH   2  18
TORSDOF 5
