REMARK  Name = ZINC40611707
REMARK  11 active torsions:
REMARK  status: ('A' for Active; 'I' for Inactive)
REMARK    1  A    between atoms: C_1  and  C_2
REMARK    2  A    between atoms: C_2  and  N_3
REMARK    3  A    between atoms: N_3  and  C_4
REMARK    4  A    between atoms: N_3  and  S_6
REMARK    5  A    between atoms: C_4  and  C_5
REMARK    6  A    between atoms: S_6  and  C_9
REMARK    7  A    between atoms: C_12  and  N_15
REMARK    8  A    between atoms: C_17  and  N_35
REMARK    9  A    between atoms: C_18  and  N_22
REMARK   10  A    between atoms: C_25  and  C_28
REMARK   11  A    between atoms: C_28  and  C_29
REMARK                            x       y       z     vdW  Elec       q    Type
REMARK                         _______ _______ _______ _____ _____    ______ ____
ROOT
ATOM      1  N   UNL     1       5.332   4.065   2.401  0.00  0.00    -0.297 N 
ATOM      2  C   UNL     1       5.596   4.394   3.722  0.00  0.00    +0.159 A 
ATOM      3  C   UNL     1       6.222   5.596   4.040  0.00  0.00    +0.206 A 
ATOM      4  C   UNL     1       6.465   5.878   5.380  0.00  0.00    +0.157 A 
ATOM      5  N   UNL     1       6.093   4.995   6.305  0.00  0.00    -0.218 NA
ATOM      6  C   UNL     1       5.503   3.868   5.964  0.00  0.00    +0.225 A 
ATOM      7  N   UNL     1       5.250   3.566   4.707  0.00  0.00    -0.218 NA
ATOM      8  H   UNL     1       5.506   4.710   1.697  0.00  0.00    +0.154 HD
ENDROOT
BRANCH   1  12
ATOM      9  C   UNL     1       3.793   0.313   1.455  0.00  0.00    +0.106 A 
ATOM     10  C   UNL     1       3.395   1.423   0.733  0.00  0.00    +0.030 A 
ATOM     11  C   UNL     1       3.903   2.669   1.045  0.00  0.00    +0.025 A 
ATOM     12  C   UNL     1       4.815   2.806   2.083  0.00  0.00    +0.033 A 
ATOM     13  C   UNL     1       5.213   1.688   2.806  0.00  0.00    +0.025 A 
ATOM     14  C   UNL     1       4.696   0.446   2.493  0.00  0.00    +0.030 A 
BRANCH   9  15
ATOM     15  S   UNL     1       3.141  -1.275   1.055  0.00  0.00    +0.061 S 
ATOM     16  O   UNL     1       4.081  -2.230   1.527  0.00  0.00    -0.153 OA
ATOM     17  O   UNL     1       2.733  -1.216  -0.305  0.00  0.00    -0.153 OA
BRANCH  15  18
ATOM     18  N   UNL     1       1.765  -1.480   1.954  0.00  0.00    -0.177 NA
BRANCH  18  20
ATOM     19  C   UNL     1       0.149   0.356   1.919  0.00  0.00    +0.022 C 
ATOM     20  C   UNL     1       0.470  -1.054   1.418  0.00  0.00    +0.106 C 
ENDBRANCH  18  20
BRANCH  18  21
ATOM     21  C   UNL     1       1.843  -2.088   3.284  0.00  0.00    +0.106 C 
ATOM     22  C   UNL     1       1.559  -3.587   3.178  0.00  0.00    +0.022 C 
ENDBRANCH  18  21
ENDBRANCH  15  18
ENDBRANCH   9  15
ENDBRANCH   1  12
BRANCH   4  23
ATOM     23  N   UNL     1       7.085   7.062   5.748  0.00  0.00    -0.313 N 
ATOM     24  C   UNL     1       6.300   8.288   5.950  0.00  0.00    +0.107 C 
ATOM     25  C   UNL     1       6.616   8.852   7.339  0.00  0.00    +0.023 C 
ATOM     26  C   UNL     1       8.128   9.044   7.475  0.00  0.00    -0.004 C 
ATOM     27  C   UNL     1       8.831   7.693   7.332  0.00  0.00    +0.023 C 
ATOM     28  C   UNL     1       8.540   7.114   5.949  0.00  0.00    +0.107 C 
BRANCH  26  29
ATOM     29  C   UNL     1       8.444   9.640   8.849  0.00  0.00    +0.038 C 
BRANCH  29  30
ATOM     30  C   UNL     1       9.918   9.944   8.937  0.00  0.00    -0.047 A 
ATOM     31  C   UNL     1      10.795   8.982   9.403  0.00  0.00    +0.003 A 
ATOM     32  C   UNL     1      12.146   9.261   9.484  0.00  0.00    +0.000 A 
ATOM     33  C   UNL     1      12.621  10.501   9.099  0.00  0.00    +0.000 A 
ATOM     34  C   UNL     1      11.744  11.462   8.633  0.00  0.00    +0.000 A 
ATOM     35  C   UNL     1      10.393  11.182   8.547  0.00  0.00    +0.003 A 
ENDBRANCH  29  30
ENDBRANCH  26  29
ENDBRANCH   4  23
BRANCH   3  36
ATOM     36  N   UNL     1       6.619   6.548   2.978  0.00  0.00    +0.063 N 
ATOM     37  O   UNL     1       5.877   7.452   2.668  0.00  0.00    -0.126 OA
ATOM     38  O   UNL     1       7.685   6.424   2.422  0.00  0.00    -0.126 OA
ENDBRANCH   3  36
TORSDOF 9
