REMARK  Name = ZINC09460287
REMARK  7 active torsions:
REMARK  status: ('A' for Active; 'I' for Inactive)
REMARK    1  A    between atoms: C_1  and  C_2
REMARK    2  A    between atoms: C_2  and  C_26
REMARK    3  A    between atoms: N_5  and  C_9
REMARK    4  A    between atoms: C_9  and  C_10
REMARK    5  A    between atoms: C_17  and  C_18
REMARK    6  A    between atoms: C_17  and  N_66
REMARK    7  A    between atoms: C_19  and  C_20
REMARK                            x       y       z     vdW  Elec       q    Type
REMARK                         _______ _______ _______ _____ _____    ______ ____
ROOT
ATOM      1  C   UNL     1       8.781   0.002  -8.188  0.00  0.00    +0.047 C 
ATOM      2  C   UNL     1       7.281  -0.169  -8.436  0.00  0.00    +0.135 C 
ATOM      3  C   UNL     1       6.482   0.832  -7.625  0.00  0.00    +0.251 C 
ATOM      4  O   UNL     1       6.529   2.041  -7.702  0.00  0.00    -0.272 OA
ATOM      5  N   UNL     1       5.710   0.098  -6.799  0.00  0.00    -0.215 N 
ATOM      6  C   UNL     1       5.903  -1.214  -6.979  0.00  0.00    +0.310 C 
ATOM      7  O   UNL     1       5.317  -2.075  -6.353  0.00  0.00    -0.252 OA
ATOM      8  N   UNL     1       6.818  -1.473  -7.930  0.00  0.00    -0.281 N 
ATOM      9  H   UNL     1       7.115  -2.348  -8.226  0.00  0.00    +0.152 HD
ENDROOT
BRANCH   2  10
ATOM     10  C   UNL     1       6.968  -0.027  -9.903  0.00  0.00    -0.015 A 
ATOM     11  C   UNL     1       6.687   1.234 -10.426  0.00  0.00    +0.007 A 
ATOM     12  C   UNL     1       6.406   1.397 -11.748  0.00  0.00    +0.009 A 
ATOM     13  C   UNL     1       6.386   0.279 -12.598  0.00  0.00    -0.018 A 
ATOM     14  C   UNL     1       6.094   0.407 -13.966  0.00  0.00    +0.008 A 
ATOM     15  C   UNL     1       6.084  -0.699 -14.760  0.00  0.00    +0.001 A 
ATOM     16  C   UNL     1       6.359  -1.960 -14.235  0.00  0.00    +0.001 A 
ATOM     17  C   UNL     1       6.647  -2.123 -12.915  0.00  0.00    +0.008 A 
ATOM     18  C   UNL     1       6.666  -1.004 -12.065  0.00  0.00    -0.018 A 
ATOM     19  C   UNL     1       6.958  -1.133 -10.696  0.00  0.00    +0.014 A 
ENDBRANCH   2  10
BRANCH   5  20
ATOM     20  C   UNL     1       4.771   0.666  -5.829  0.00  0.00    +0.213 C 
BRANCH  20  21
ATOM     21  C   UNL     1       5.474   0.878  -4.513  0.00  0.00    +0.233 C 
ATOM     22  O   UNL     1       6.645   0.583  -4.397  0.00  0.00    -0.274 OA
ATOM     23  N   UNL     1       4.802   1.394  -3.465  0.00  0.00    -0.304 N 
ATOM     24  C   UNL     1       5.470   1.609  -2.172  0.00  0.00    +0.089 C 
ATOM     25  C   UNL     1       4.619   0.965  -1.073  0.00  0.00    -0.059 C 
ATOM     26  C   UNL     1       2.614   1.109  -2.429  0.00  0.00    -0.059 C 
ATOM     27  C   UNL     1       3.383   1.759  -3.584  0.00  0.00    +0.089 C 
ATOM     28  N   UNL     1       3.247   1.509  -1.153  0.00  0.00    +0.384 N 
ATOM     29  H   UNL     1       3.292   2.534  -1.112  0.00  0.00    -0.081 HD
BRANCH  28  30
ATOM     30  C   UNL     1       2.442   1.018  -0.016  0.00  0.00    -0.051 C 
BRANCH  30  31
ATOM     31  C   UNL     1       1.126   1.754   0.001  0.00  0.00    -0.045 C 
ATOM     32  C   UNL     1      -0.013   1.076   0.008  0.00  0.00    +0.002 C 
BRANCH  32  33
ATOM     33  C   UNL     1      -1.303   1.797   0.018  0.00  0.00    -0.025 A 
ATOM     34  C   UNL     1      -1.325   3.192   0.032  0.00  0.00    +0.008 A 
ATOM     35  C   UNL     1      -2.532   3.860   0.035  0.00  0.00    +0.001 A 
ATOM     36  C   UNL     1      -3.719   3.149   0.037  0.00  0.00    +0.000 A 
ATOM     37  C   UNL     1      -3.704   1.766   0.029  0.00  0.00    +0.001 A 
ATOM     38  C   UNL     1      -2.503   1.086   0.020  0.00  0.00    +0.008 A 
ENDBRANCH  32  33
ENDBRANCH  30  31
ENDBRANCH  28  30
ENDBRANCH  20  21
ENDBRANCH   5  20
TORSDOF 6
