REMARK  Name = ZINC67066733
REMARK  7 active torsions:
REMARK  status: ('A' for Active; 'I' for Inactive)
REMARK    1  A    between atoms: C_1  and  C_2
REMARK    2  A    between atoms: C_2  and  C_3
REMARK    3  A    between atoms: C_2  and  C_4
REMARK    4  A    between atoms: C_2  and  C_5
REMARK    5  A    between atoms: N_16  and  C_17
REMARK    6  A    between atoms: N_20  and  C_23
REMARK    7  A    between atoms: C_23  and  C_24
REMARK                            x       y       z     vdW  Elec       q    Type
REMARK                         _______ _______ _______ _____ _____    ______ ____
ROOT
ATOM      1  C   UNL     1       0.115   1.254  -1.268  0.00  0.00    +0.221 C 
ATOM      2  O   UNL     1       0.783   2.120  -1.790  0.00  0.00    -0.275 OA
ATOM      3  N   UNL     1       0.083   0.015  -1.799  0.00  0.00    -0.299 N 
ATOM      4  C   UNL     1       0.776  -0.294  -3.001  0.00  0.00    +0.109 C 
ATOM      5  C   UNL     1      -0.002   0.058  -4.311  0.00  0.00    +0.038 C 
ATOM      6  C   UNL     1      -1.510  -0.272  -4.058  0.00  0.00    +0.111 C 
ATOM      7  N   UNL     1      -1.739  -1.442  -3.285  0.00  0.00    -0.284 N 
ATOM      8  C   UNL     1      -1.960  -1.256  -1.827  0.00  0.00    +0.128 C 
ATOM      9  C   UNL     1      -0.672  -1.087  -1.152  0.00  0.00    +0.126 C 
ATOM     10  C   UNL     1      -1.755  -2.666  -3.849  0.00  0.00    +0.302 C 
ATOM     11  O   UNL     1      -1.572  -2.787  -5.044  0.00  0.00    -0.253 OA
ATOM     12  N   UNL     1      -1.976  -3.756  -3.087  0.00  0.00    -0.297 N 
ATOM     13  H   UNL     1      -2.122  -3.659  -2.133  0.00  0.00    +0.151 HD
ENDROOT
BRANCH  12  14
ATOM     14  C   UNL     1      -1.993  -5.086  -3.700  0.00  0.00    +0.071 C 
ATOM     15  C   UNL     1      -3.393  -5.379  -4.248  0.00  0.00    +0.004 C 
ATOM     16  C   UNL     1      -3.426  -6.800  -4.815  0.00  0.00    -0.077 C 
ATOM     17  N   UNL     1      -3.103  -7.761  -3.754  0.00  0.00    +0.380 N 
ATOM     18  C   UNL     1      -1.735  -7.532  -3.274  0.00  0.00    -0.077 C 
ATOM     19  C   UNL     1      -1.637  -6.140  -2.647  0.00  0.00    +0.004 C 
ATOM     20  H   UNL     1      -3.751  -7.647  -2.989  0.00  0.00    -0.082 HD
BRANCH  17  21
ATOM     21  C   UNL     1      -3.212  -9.127  -4.284  0.00  0.00    -0.075 C 
BRANCH  21  22
ATOM     22  C   UNL     1      -4.670  -9.419  -4.645  0.00  0.00    -0.028 C 
ATOM     23  C   UNL     1      -5.537  -9.434  -3.369  0.00  0.00    +0.002 C 
ATOM     24  C   UNL     1      -6.566 -10.565  -3.622  0.00  0.00    +0.000 C 
ATOM     25  C   UNL     1      -5.722 -11.636  -4.356  0.00  0.00    +0.000 C 
ATOM     26  C   UNL     1      -4.787 -10.819  -5.272  0.00  0.00    +0.002 C 
ENDBRANCH  21  22
ENDBRANCH  17  21
ENDBRANCH  12  14
BRANCH   1  28
ATOM     27  C   UNL     1      -0.659   3.069   0.234  0.00  0.00    +0.020 C 
ATOM     28  C   UNL     1      -0.680   1.561  -0.025  0.00  0.00    +0.039 C 
ATOM     29  C   UNL     1      -0.062   0.830   1.169  0.00  0.00    +0.020 C 
ATOM     30  C   UNL     1      -2.125   1.096  -0.216  0.00  0.00    +0.020 C 
ENDBRANCH   1  28
TORSDOF 4
