REMARK  Name = ZINC10755687
REMARK  11 active torsions:
REMARK  status: ('A' for Active; 'I' for Inactive)
REMARK    1  A    between atoms: C_1  and  N_2
REMARK    2  A    between atoms: N_2  and  C_3
REMARK    3  A    between atoms: N_2  and  C_4
REMARK    4  A    between atoms: C_7  and  C_10
REMARK    5  A    between atoms: C_10  and  C_12
REMARK    6  A    between atoms: C_10  and  N_62
REMARK    7  A    between atoms: C_12  and  N_13
REMARK    8  A    between atoms: C_14  and  C_16
REMARK    9  A    between atoms: N_18  and  C_19
REMARK   10  A    between atoms: C_19  and  C_20
REMARK   11  A    between atoms: C_20  and  C_21
REMARK                            x       y       z     vdW  Elec       q    Type
REMARK                         _______ _______ _______ _____ _____    ______ ____
ROOT
ATOM      1  C   UNL     1      -2.974   0.971   1.440  0.00  0.00    +0.094 C 
ENDROOT
BRANCH   1   2
ATOM      2  N   UNL     1      -2.096   0.120   2.247  0.00  0.00    -0.309 N 
ATOM      3  C   UNL     1      -2.390  -0.119   3.540  0.00  0.00    +0.299 C 
ATOM      4  O   UNL     1      -3.383   0.371   4.037  0.00  0.00    -0.265 OA
ATOM      5  H   UNL     1      -1.303  -0.272   1.849  0.00  0.00    +0.149 HD
BRANCH   3   6
ATOM      6  C   UNL     1      -1.494  -0.988   4.362  0.00  0.00    +0.299 C 
ATOM      7  O   UNL     1      -0.502  -1.478   3.865  0.00  0.00    -0.265 OA
ATOM      8  N   UNL     1      -1.789  -1.226   5.656  0.00  0.00    -0.307 N 
ATOM      9  H   UNL     1      -2.582  -0.834   6.053  0.00  0.00    +0.149 HD
BRANCH   8  10
ATOM     10  C   UNL     1      -0.910  -2.078   6.462  0.00  0.00    +0.109 C 
BRANCH  10  11
ATOM     11  C   UNL     1      -1.468  -2.185   7.883  0.00  0.00    +0.054 C 
BRANCH  11  12
ATOM     12  C   UNL     1      -0.564  -3.061   8.712  0.00  0.00    -0.046 A 
ATOM     13  C   UNL     1      -0.790  -4.423   8.774  0.00  0.00    +0.005 A 
ATOM     14  C   UNL     1       0.042  -5.228   9.530  0.00  0.00    +0.020 A 
ATOM     15  C   UNL     1       1.094  -4.668  10.233  0.00  0.00    +0.041 A 
ATOM     16  C   UNL     1       1.315  -3.304  10.175  0.00  0.00    +0.020 A 
ATOM     17  C   UNL     1       0.486  -2.501   9.414  0.00  0.00    +0.005 A 
ATOM     18 CL   UNL     1       2.135  -5.677  11.188  0.00  0.00    -0.084 Cl
ENDBRANCH  11  12
ENDBRANCH  10  11
ENDBRANCH   8  10
ENDBRANCH   3   6
ENDBRANCH   1   2
BRANCH   1  19
ATOM     19  C   UNL     1      -2.484   0.983  -0.009  0.00  0.00    -0.020 C 
BRANCH  19  23
ATOM     20  C   UNL     1       1.348   2.866  -0.205  0.00  0.00    +0.029 A 
ATOM     21  C   UNL     1       1.252   1.480  -0.212  0.00  0.00    +0.023 A 
ATOM     22  C   UNL     1       0.013   0.875  -0.144  0.00  0.00    +0.004 A 
ATOM     23  C   UNL     1      -1.132   1.647  -0.076  0.00  0.00    -0.059 A 
ATOM     24  C   UNL     1      -1.040   3.027  -0.063  0.00  0.00    +0.004 A 
ATOM     25  C   UNL     1       0.196   3.639  -0.131  0.00  0.00    +0.023 A 
BRANCH  20  27
ATOM     26  C   UNL     1       3.819   2.670  -0.223  0.00  0.00    +0.129 C 
ATOM     27  N   UNL     1       2.600   3.481  -0.274  0.00  0.00    -0.336 N 
ATOM     28  C   UNL     1       2.695   4.938  -0.398  0.00  0.00    +0.129 C 
ENDBRANCH  20  27
ENDBRANCH  19  23
BRANCH  19  33
ATOM     29  C   UNL     1      -2.993   1.760  -2.259  0.00  0.00    -0.078 C 
ATOM     30  C   UNL     1      -4.297   2.082  -3.032  0.00  0.00    -0.020 C 
ATOM     31  C   UNL     1      -5.368   1.291  -2.247  0.00  0.00    -0.020 C 
ATOM     32  C   UNL     1      -4.761   1.070  -0.849  0.00  0.00    -0.078 C 
ATOM     33  N   UNL     1      -3.455   1.730  -0.863  0.00  0.00    +0.385 N 
ATOM     34  H   UNL     1      -3.548   2.689  -0.508  0.00  0.00    -0.081 HD
ENDBRANCH  19  33
ENDBRANCH   1  19
TORSDOF 9
