REMARK  Name = ZINC01107298
REMARK  12 active torsions:
REMARK  status: ('A' for Active; 'I' for Inactive)
REMARK    1  A    between atoms: C_1  and  C_2
REMARK    2  A    between atoms: C_3  and  C_34
REMARK    3  A    between atoms: C_4  and  C_33
REMARK    4  A    between atoms: N_5  and  C_7
REMARK    5  A    between atoms: C_7  and  C_8
REMARK    6  A    between atoms: C_10  and  C_16
REMARK    7  A    between atoms: C_13  and  O_14
REMARK    8  A    between atoms: O_14  and  C_15
REMARK    9  A    between atoms: C_18  and  C_31
REMARK   10  A    between atoms: C_19  and  N_30
REMARK   11  A    between atoms: C_26  and  C_28
REMARK   12  A    between atoms: C_26  and  C_29
REMARK                            x       y       z     vdW  Elec       q    Type
REMARK                         _______ _______ _______ _____ _____    ______ ____
ROOT
ATOM      1  C   UNL     1      -1.529  -1.299  -1.346  0.00  0.00    +0.016 A 
ATOM      2  C   UNL     1      -1.229  -2.569  -1.801  0.00  0.00    +0.013 A 
ATOM      3  C   UNL     1      -1.569  -2.941  -3.088  0.00  0.00    -0.034 A 
ATOM      4  C   UNL     1      -2.200  -2.041  -3.927  0.00  0.00    +0.008 A 
ATOM      5  C   UNL     1      -2.497  -0.769  -3.479  0.00  0.00    +0.046 A 
ATOM      6  C   UNL     1      -2.162  -0.394  -2.186  0.00  0.00    +0.125 A 
ENDROOT
BRANCH   3   7
ATOM      7  C   UNL     1      -1.246  -4.329  -3.579  0.00  0.00    +0.101 C 
ATOM      8  C   UNL     1      -2.518  -5.029  -3.968  0.00  0.00    +0.098 C 
ATOM      9  C   UNL     1      -2.868  -5.142  -5.272  0.00  0.00    +0.198 C 
ATOM     10  O   UNL     1      -2.099  -4.634  -6.248  0.00  0.00    -0.445 OA
ATOM     11  C   UNL     1      -0.794  -4.399  -6.018  0.00  0.00    +0.115 C 
ATOM     12  C   UNL     1      -0.324  -4.236  -4.771  0.00  0.00    +0.046 C 
ATOM     13  C   UNL     1       1.039  -3.972  -4.535  0.00  0.00    +0.164 C 
ATOM     14  O   UNL     1       1.433  -3.844  -3.393  0.00  0.00    -0.292 OA
ATOM     15  C   UNL     1       2.017  -3.847  -5.672  0.00  0.00    +0.086 C 
ATOM     16  C   UNL     1       1.270  -3.355  -6.916  0.00  0.00    -0.021 C 
ATOM     17  C   UNL     1       0.134  -4.327  -7.208  0.00  0.00    +0.081 C 
ATOM     18  C   UNL     1       0.704  -1.957  -6.656  0.00  0.00    +0.012 C 
ATOM     19  C   UNL     1       2.230  -3.307  -8.106  0.00  0.00    +0.012 C 
BRANCH   9  20
ATOM     20  N   UNL     1      -4.033  -5.789  -5.602  0.00  0.00    -0.328 N 
ATOM     21  H   UNL     1      -4.596  -6.159  -4.905  0.00  0.00    +0.145 HD
ATOM     22  H   UNL     1      -4.293  -5.875  -6.533  0.00  0.00    +0.145 HD
ENDBRANCH   9  20
BRANCH   8  23
ATOM     23  C   UNL     1      -3.366  -5.579  -2.954  0.00  0.00    +0.101 C 
ATOM     24  N   UNL     1      -4.039  -6.016  -2.149  0.00  0.00    -0.191 NA
ENDBRANCH   8  23
ENDBRANCH   3   7
BRANCH   6  25
ATOM     25  O   UNL     1      -2.453   0.857  -1.742  0.00  0.00    -0.495 OA
ATOM     26  C   UNL     1      -3.105   1.735  -2.662  0.00  0.00    +0.277 C 
ENDBRANCH   6  25
BRANCH   1  27
ATOM     27  C   UNL     1      -1.163  -0.895   0.059  0.00  0.00    +0.182 C 
BRANCH  27  32
ATOM     28  C   UNL     1       2.096   2.903  -0.336  0.00  0.00    +0.068 C 
ATOM     29  C   UNL     1       1.502   1.532  -0.138  0.00  0.00    +0.064 A 
ATOM     30  C   UNL     1       2.216   0.363   0.148  0.00  0.00    +0.006 A 
ATOM     31  C   UNL     1       1.327  -0.652   0.252  0.00  0.00    +0.041 A 
ATOM     32  N   UNL     1       0.095  -0.144   0.039  0.00  0.00    -0.264 N 
ATOM     33  N   UNL     1       0.231   1.229  -0.203  0.00  0.00    -0.176 NA
ATOM     34  C   UNL     1       1.654  -2.092   0.556  0.00  0.00    +0.065 C 
BRANCH  30  35
ATOM     35  C   UNL     1       3.710   0.253   0.311  0.00  0.00    +0.118 C 
ATOM     36 BR   UNL     1       4.533  -0.132  -1.432  0.00  0.00    -0.087 Br
ENDBRANCH  30  35
ENDBRANCH  27  32
ENDBRANCH   1  27
TORSDOF 7
