REMARK  Name = ZINC56793036
REMARK  8 active torsions:
REMARK  status: ('A' for Active; 'I' for Inactive)
REMARK    1  A    between atoms: C_1  and  N_2
REMARK    2  A    between atoms: N_2  and  C_3
REMARK    3  A    between atoms: N_2  and  C_4
REMARK    4  A    between atoms: C_4  and  C_6
REMARK    5  A    between atoms: C_4  and  C_22
REMARK    6  A    between atoms: C_6  and  N_7
REMARK    7  A    between atoms: C_13  and  C_16
REMARK    8  A    between atoms: N_18  and  C_19
REMARK                            x       y       z     vdW  Elec       q    Type
REMARK                         _______ _______ _______ _____ _____    ______ ____
ROOT
ATOM      1  N   UNL     1      -3.531   1.550  -3.378  0.00  0.00    -0.300 N 
ATOM      2  C   UNL     1      -2.957   2.294  -2.413  0.00  0.00    +0.302 C 
ATOM      3  O   UNL     1      -2.269   1.762  -1.563  0.00  0.00    -0.253 OA
ATOM      4  N   UNL     1      -3.145   3.628  -2.389  0.00  0.00    -0.286 N 
ATOM      5  C   UNL     1      -2.431   4.468  -1.417  0.00  0.00    +0.110 C 
ATOM      6  C   UNL     1      -3.454   5.312  -0.650  0.00  0.00    +0.032 C 
ATOM      7  C   UNL     1      -4.313   6.095  -1.645  0.00  0.00    +0.078 C 
ATOM      8  C   UNL     1      -5.072   5.118  -2.546  0.00  0.00    +0.032 C 
ATOM      9  C   UNL     1      -4.064   4.272  -3.338  0.00  0.00    +0.110 C 
ATOM     10  H   UNL     1      -4.018   1.981  -4.098  0.00  0.00    +0.150 HD
ENDROOT
BRANCH   7  11
ATOM     11  C   UNL     1      -5.298   6.953  -0.893  0.00  0.00    +0.216 C 
ATOM     12  O   UNL     1      -5.311   6.939   0.319  0.00  0.00    -0.276 OA
ATOM     13  N   UNL     1      -6.163   7.735  -1.568  0.00  0.00    -0.312 N 
ATOM     14  H   UNL     1      -6.153   7.745  -2.538  0.00  0.00    +0.149 HD
BRANCH  13  15
ATOM     15  C   UNL     1      -7.121   8.569  -0.837  0.00  0.00    +0.073 C 
ATOM     16  C   UNL     1      -8.562   8.606  -1.350  0.00  0.00    +0.024 C 
ATOM     17  C   UNL     1      -7.650   9.819  -1.541  0.00  0.00    +0.024 C 
ENDBRANCH  13  15
ENDBRANCH   7  11
BRANCH   1  18
ATOM     18  C   UNL     1      -3.420   0.089  -3.340  0.00  0.00    +0.095 C 
BRANCH  18  19
ATOM     19  C   UNL     1      -4.256  -0.515  -4.470  0.00  0.00    -0.014 C 
BRANCH  19  20
ATOM     20  C   UNL     1      -3.670  -0.113  -5.799  0.00  0.00    -0.022 A 
ATOM     21  C   UNL     1      -4.065   0.870  -6.644  0.00  0.00    +0.009 A 
ATOM     22  C   UNL     1      -3.368   1.061  -7.823  0.00  0.00    +0.008 A 
ATOM     23  C   UNL     1      -2.311   0.259  -8.099  0.00  0.00    +0.045 A 
ATOM     24  S   UNL     1      -2.269  -0.804  -6.665  0.00  0.00    -0.103 S 
ENDBRANCH  19  20
BRANCH  19  26
ATOM     25  C   UNL     1      -4.921  -2.375  -3.109  0.00  0.00    -0.096 C 
ATOM     26  N   UNL     1      -4.250  -1.979  -4.355  0.00  0.00    +0.382 N 
ATOM     27  C   UNL     1      -4.960  -2.564  -5.500  0.00  0.00    -0.096 C 
ATOM     28  H   UNL     1      -3.297  -2.312  -4.344  0.00  0.00    -0.082 HD
ENDBRANCH  19  26
ENDBRANCH  18  19
ENDBRANCH   1  18
TORSDOF 6
