REMARK  Name = ZINC01123595
REMARK  10 active torsions:
REMARK  status: ('A' for Active; 'I' for Inactive)
REMARK    1  A    between atoms: C_1  and  C_2
REMARK    2  A    between atoms: C_2  and  C_4
REMARK    3  A    between atoms: C_2  and  N_12
REMARK    4  A    between atoms: C_4  and  C_5
REMARK    5  A    between atoms: C_5  and  C_6
REMARK    6  A    between atoms: C_13  and  C_15
REMARK    7  A    between atoms: C_15  and  S_16
REMARK    8  A    between atoms: S_16  and  C_17
REMARK    9  A    between atoms: C_28  and  C_30
REMARK   10  A    between atoms: C_28  and  C_31
REMARK                            x       y       z     vdW  Elec       q    Type
REMARK                         _______ _______ _______ _____ _____    ______ ____
ROOT
ATOM      1  C   UNL     1       4.055   1.972  -0.339  0.00  0.00    +0.191 A 
ATOM      2  N   UNL     1       3.804   3.276  -0.324  0.00  0.00    -0.207 NA
ATOM      3  C   UNL     1       4.734   4.166  -0.021  0.00  0.00    +0.129 A 
ATOM      4  C   UNL     1       6.050   3.721   0.290  0.00  0.00    +0.051 A 
ATOM      5  C   UNL     1       7.225   4.514   0.645  0.00  0.00    -0.020 A 
ATOM      6  C   UNL     1       8.368   3.841   0.897  0.00  0.00    +0.021 A 
ATOM      7  S   UNL     1       7.955   2.133   0.678  0.00  0.00    -0.071 S 
ATOM      8  C   UNL     1       6.244   2.326   0.249  0.00  0.00    +0.115 A 
ATOM      9  N   UNL     1       5.262   1.500  -0.058  0.00  0.00    -0.214 NA
ATOM     10  C   UNL     1       9.685   4.443   1.276  0.00  0.00    +0.203 C 
ATOM     11  O   UNL     1       9.617   5.854   1.020  0.00  0.00    -0.368 OA
ATOM     12  C   UNL     1       8.440   6.473   1.546  0.00  0.00    +0.068 C 
ATOM     13  C   UNL     1       7.212   6.038   0.742  0.00  0.00    +0.071 C 
ATOM     14  C   UNL     1       8.261   6.062   3.009  0.00  0.00    +0.041 C 
ATOM     15  C   UNL     1       8.586   7.994   1.461  0.00  0.00    +0.041 C 
ATOM     16  N   UNL     1       4.431   5.516  -0.011  0.00  0.00    -0.343 N 
ATOM     17  H   UNL     1       5.143   6.172   0.059  0.00  0.00    +0.144 HD
ATOM     18  H   UNL     1       3.508   5.807  -0.074  0.00  0.00    +0.144 HD
ENDROOT
BRANCH   1  19
ATOM     19  S   UNL     1       2.760   0.848  -0.746  0.00  0.00    -0.077 S 
BRANCH  19  20
ATOM     20  C   UNL     1       1.405   2.015  -1.020  0.00  0.00    +0.173 C 
BRANCH  20  22
ATOM     21  N   UNL     1      -0.986   1.925  -1.648  0.00  0.00    -0.312 N 
ATOM     22  C   UNL     1       0.156   1.257  -1.391  0.00  0.00    +0.224 C 
ATOM     23  O   UNL     1       0.181   0.047  -1.464  0.00  0.00    -0.275 OA
ATOM     24  H   UNL     1      -1.006   2.893  -1.590  0.00  0.00    +0.149 HD
BRANCH  21  26
ATOM     25  C   UNL     1      -2.922   0.733  -0.746  0.00  0.00    +0.028 C 
ATOM     26  C   UNL     1      -2.198   1.188  -2.015  0.00  0.00    +0.070 C 
BRANCH  26  27
ATOM     27  C   UNL     1      -3.120   2.097  -2.829  0.00  0.00    +0.026 C 
BRANCH  27  28
ATOM     28  C   UNL     1      -2.445   2.452  -4.156  0.00  0.00    +0.037 C 
BRANCH  28  29
ATOM     29  C   UNL     1      -3.353   3.347  -4.958  0.00  0.00    -0.047 A 
ATOM     30  C   UNL     1      -4.264   2.796  -5.841  0.00  0.00    +0.003 A 
ATOM     31  C   UNL     1      -5.101   3.618  -6.573  0.00  0.00    +0.000 A 
ATOM     32  C   UNL     1      -5.020   4.990  -6.431  0.00  0.00    +0.000 A 
ATOM     33  C   UNL     1      -4.106   5.541  -5.553  0.00  0.00    +0.000 A 
ATOM     34  C   UNL     1      -3.273   4.720  -4.816  0.00  0.00    +0.003 A 
ENDBRANCH  28  29
ENDBRANCH  27  28
ENDBRANCH  26  27
ENDBRANCH  21  26
ENDBRANCH  20  22
ENDBRANCH  19  20
ENDBRANCH   1  19
TORSDOF 7
