REMARK  Name = ZINC19626648
REMARK  6 active torsions:
REMARK  status: ('A' for Active; 'I' for Inactive)
REMARK    1  A    between atoms: C_1  and  C_2
REMARK    2  A    between atoms: C_2  and  C_4
REMARK    3  A    between atoms: C_4  and  N_5
REMARK    4  A    between atoms: C_14  and  C_24
REMARK    5  A    between atoms: C_14  and  C_28
REMARK    6  A    between atoms: C_16  and  C_18
REMARK                            x       y       z     vdW  Elec       q    Type
REMARK                         _______ _______ _______ _____ _____    ______ ____
ROOT
ATOM      1  N   UNL     1      -1.213  -0.368  -1.590  0.00  0.00    -0.305 N 
ATOM      2  C   UNL     1      -1.851   0.403  -2.529  0.00  0.00    +0.118 A 
ATOM      3  C   UNL     1      -3.134   0.107  -2.887  0.00  0.00    +0.100 A 
ATOM      4  C   UNL     1      -3.778  -0.983  -2.277  0.00  0.00    +0.260 A 
ATOM      5  O   UNL     1      -4.926  -1.265  -2.576  0.00  0.00    -0.267 OA
ATOM      6  N   UNL     1      -3.116  -1.714  -1.357  0.00  0.00    -0.302 N 
ATOM      7  H   UNL     1      -3.613  -2.566  -0.871  0.00  0.00    +0.171 HD
ATOM      8  C   UNL     1      -1.848  -1.412  -1.025  0.00  0.00    +0.162 A 
ATOM      9  S   UNL     1      -1.031  -2.367   0.137  0.00  0.00    -0.013 S 
ATOM     10  C   UNL     1      -3.848   0.928  -3.923  0.00  0.00    +0.285 C 
ATOM     11  N   UNL     1      -3.171   2.198  -4.152  0.00  0.00    -0.239 NA
ATOM     12  C   UNL     1      -1.957   2.429  -3.772  0.00  0.00    +0.128 C 
ATOM     13  N   UNL     1      -1.214   1.474  -3.107  0.00  0.00    -0.285 N 
ATOM     14  H   UNL     1      -0.119   1.565  -3.039  0.00  0.00    +0.155 HD
ENDROOT
BRANCH  12  15
ATOM     15  C   UNL     1      -1.349   3.749  -4.057  0.00  0.00    +0.015 A 
ATOM     16  C   UNL     1      -0.043   4.020  -3.651  0.00  0.00    +0.011 A 
ATOM     17  C   UNL     1       0.520   5.251  -3.924  0.00  0.00    +0.001 A 
ATOM     18  C   UNL     1      -0.213   6.217  -4.589  0.00  0.00    +0.000 A 
ATOM     19  C   UNL     1      -1.511   5.955  -4.990  0.00  0.00    +0.001 A 
ATOM     20  C   UNL     1      -2.083   4.727  -4.728  0.00  0.00    +0.011 A 
ENDBRANCH  12  15
BRANCH  10  21
ATOM     21  C   UNL     1      -3.900   0.144  -5.235  0.00  0.00    +0.428 C 
ATOM     22  F   UNL     1      -4.585  -1.059  -5.034  0.00  0.00    -0.167 F 
ATOM     23  F   UNL     1      -4.564   0.902  -6.206  0.00  0.00    -0.167 F 
ATOM     24  F   UNL     1      -2.597  -0.128  -5.667  0.00  0.00    -0.167 F 
ENDBRANCH  10  21
BRANCH  10  25
ATOM     25  C   UNL     1      -5.277   1.202  -3.447  0.00  0.00    +0.428 C 
ATOM     26  F   UNL     1      -5.256   1.570  -2.097  0.00  0.00    -0.167 F 
ATOM     27  F   UNL     1      -5.830   2.239  -4.205  0.00  0.00    -0.167 F 
ATOM     28  F   UNL     1      -6.050   0.047  -3.603  0.00  0.00    -0.167 F 
ENDBRANCH  10  25
BRANCH   1  29
ATOM     29  C   UNL     1       0.166  -0.057  -1.206  0.00  0.00    +0.155 C 
BRANCH  29  31
ATOM     30  C   UNL     1       0.049   2.387  -0.296  0.00  0.00    +0.040 C 
ATOM     31  C   UNL     1       0.160   0.905  -0.046  0.00  0.00    -0.060 C 
ATOM     32  C   UNL     1       0.252   0.452   1.180  0.00  0.00    +0.009 C 
ENDBRANCH  29  31
ENDBRANCH   1  29
TORSDOF 5
