REMARK  Name = ZINC09312868
REMARK  5 active torsions:
REMARK  status: ('A' for Active; 'I' for Inactive)
REMARK    1  A    between atoms: C_6  and  N_11
REMARK    2  A    between atoms: C_19  and  C_39
REMARK    3  A    between atoms: C_22  and  C_28
REMARK    4  A    between atoms: C_28  and  C_30
REMARK    5  A    between atoms: C_34  and  N_36
REMARK                            x       y       z     vdW  Elec       q    Type
REMARK                         _______ _______ _______ _____ _____    ______ ____
ROOT
ATOM      1  N   UNL     1      -2.875   0.932   2.855  0.00  0.00    -0.210 N 
ATOM      2  C   UNL     1      -4.130   0.422   2.916  0.00  0.00    +0.232 C 
ATOM      3  O   UNL     1      -4.462  -0.620   3.440  0.00  0.00    -0.274 OA
ATOM      4  C   UNL     1      -5.051   1.387   2.200  0.00  0.00    +0.113 C 
ATOM      5  C   UNL     1      -5.925   0.652   1.186  0.00  0.00    +0.093 C 
ATOM      6  C   UNL     1      -6.207  -0.765   1.617  0.00  0.00    +0.013 C 
ATOM      7  C   UNL     1      -6.314  -1.721   0.669  0.00  0.00    +0.051 C 
ATOM      8  C   UNL     1      -6.166  -1.397  -0.763  0.00  0.00    +0.032 C 
ATOM      9  C   UNL     1      -5.576  -0.239  -1.126  0.00  0.00    +0.054 C 
ATOM     10  C   UNL     1      -3.978   1.410   0.010  0.00  0.00    +0.141 C 
ATOM     11  C   UNL     1      -4.061   2.214   1.323  0.00  0.00    +0.116 C 
ATOM     12  C   UNL     1      -2.756   2.020   2.079  0.00  0.00    +0.232 C 
ATOM     13  O   UNL     1      -1.776   2.728   1.994  0.00  0.00    -0.274 OA
ATOM     14  N   UNL     1      -5.366   0.872  -0.124  0.00  0.00    -0.384 NA
ATOM     15  H   UNL     1      -5.912   1.651  -0.511  0.00  0.00    +0.127 HD
ENDROOT
BRANCH   1  21
ATOM     16  C   UNL     1       1.883  -2.491   5.318  0.00  0.00    +0.001 A 
ATOM     17  C   UNL     1       1.298  -3.207   4.275  0.00  0.00    +0.001 A 
ATOM     18  C   UNL     1       0.249  -2.695   3.575  0.00  0.00    +0.008 A 
ATOM     19  C   UNL     1      -0.254  -1.424   3.905  0.00  0.00    -0.016 A 
ATOM     20  C   UNL     1      -1.334  -0.864   3.205  0.00  0.00    +0.032 A 
ATOM     21  C   UNL     1      -1.797   0.374   3.554  0.00  0.00    +0.044 A 
ATOM     22  C   UNL     1      -1.204   1.093   4.598  0.00  0.00    +0.024 A 
ATOM     23  C   UNL     1      -0.160   0.575   5.299  0.00  0.00    +0.010 A 
ATOM     24  C   UNL     1       0.342  -0.696   4.966  0.00  0.00    -0.018 A 
ATOM     25  C   UNL     1       1.422  -1.258   5.666  0.00  0.00    +0.008 A 
ENDBRANCH   1  21
BRANCH  10  26
ATOM     26  C   UNL     1      -2.748   0.538   0.024  0.00  0.00    +0.183 C 
ATOM     27  O   UNL     1      -2.854  -0.656   0.212  0.00  0.00    -0.290 OA
BRANCH  26  28
ATOM     28  C   UNL     1      -1.421   1.134  -0.192  0.00  0.00    +0.021 A 
ATOM     29  C   UNL     1      -1.294   2.511  -0.404  0.00  0.00    +0.011 A 
ATOM     30  C   UNL     1      -0.047   3.061  -0.610  0.00  0.00    +0.003 A 
ATOM     31  C   UNL     1       1.079   2.256  -0.602  0.00  0.00    +0.033 A 
ATOM     32  C   UNL     1       0.963   0.894  -0.388  0.00  0.00    +0.127 A 
ATOM     33  C   UNL     1      -0.278   0.328  -0.180  0.00  0.00    +0.044 A 
BRANCH  32  34
ATOM     34  N   UNL     1       2.173   0.042  -0.381  0.00  0.00    +0.056 N 
ATOM     35  O   UNL     1       2.073  -1.157  -0.193  0.00  0.00    -0.126 OA
ATOM     36  O   UNL     1       3.269   0.540  -0.565  0.00  0.00    -0.126 OA
ENDBRANCH  32  34
ENDBRANCH  26  28
ENDBRANCH  10  26
BRANCH   7  37
ATOM     37  C   UNL     1      -6.575  -3.074   1.061  0.00  0.00    +0.099 C 
ATOM     38  N   UNL     1      -6.783  -4.146   1.371  0.00  0.00    -0.191 NA
ENDBRANCH   7  37
TORSDOF 5
