REMARK  Name = ZINC15188239
REMARK  8 active torsions:
REMARK  status: ('A' for Active; 'I' for Inactive)
REMARK    1  A    between atoms: C_1  and  C_2
REMARK    2  A    between atoms: C_3  and  C_28
REMARK    3  A    between atoms: C_4  and  C_19
REMARK    4  A    between atoms: C_10  and  C_11
REMARK    5  A    between atoms: C_22  and  N_25
REMARK    6  A    between atoms: N_25  and  C_26
REMARK    7  A    between atoms: N_25  and  C_27
REMARK    8  A    between atoms: C_28  and  C_30
REMARK                            x       y       z     vdW  Elec       q    Type
REMARK                         _______ _______ _______ _____ _____    ______ ____
ROOT
ATOM      1  C   UNL     1       2.412  -0.487  -1.047  0.00  0.00    +0.066 C 
ATOM      2  C   UNL     1       1.096  -1.124  -0.680  0.00  0.00    +0.050 C 
ATOM      3  C   UNL     1      -0.014  -0.329  -0.459  0.00  0.00    +0.043 C 
ATOM      4  C   UNL     1      -1.313  -1.014  -0.099  0.00  0.00    +0.158 C 
ATOM      5  N   UNL     1      -1.294  -2.500  -0.005  0.00  0.00    -0.275 N 
ATOM      6  C   UNL     1      -2.336  -3.286   0.299  0.00  0.00    +0.268 A 
ATOM      7  O   UNL     1      -3.433  -2.811   0.533  0.00  0.00    -0.266 OA
ATOM      8  C   UNL     1      -2.121  -4.690   0.341  0.00  0.00    +0.081 A 
ATOM      9  C   UNL     1      -3.005  -5.692   0.622  0.00  0.00    +0.035 C 
ATOM     10  S   UNL     1      -0.388  -4.791  -0.071  0.00  0.00    -0.046 S 
ATOM     11  C   UNL     1      -0.082  -3.097  -0.258  0.00  0.00    +0.178 A 
ATOM     12  N   UNL     1       1.011  -2.440  -0.566  0.00  0.00    -0.228 NA
ENDROOT
BRANCH   4  13
ATOM     13  C   UNL     1      -2.342  -0.628  -1.131  0.00  0.00    -0.020 A 
ATOM     14  C   UNL     1      -2.346  -1.250  -2.366  0.00  0.00    +0.008 A 
ATOM     15  C   UNL     1      -3.291  -0.903  -3.312  0.00  0.00    +0.023 A 
ATOM     16  C   UNL     1      -4.230   0.080  -3.025  0.00  0.00    +0.029 A 
ATOM     17  C   UNL     1      -4.219   0.706  -1.785  0.00  0.00    +0.023 A 
ATOM     18  C   UNL     1      -3.275   0.350  -0.842  0.00  0.00    +0.008 A 
BRANCH  16  19
ATOM     19  N   UNL     1      -5.184   0.437  -3.981  0.00  0.00    -0.336 N 
ATOM     20  C   UNL     1      -6.173   1.473  -3.677  0.00  0.00    +0.129 C 
ATOM     21  C   UNL     1      -5.194  -0.225  -5.288  0.00  0.00    +0.129 C 
ENDBRANCH  16  19
ENDBRANCH   4  13
BRANCH   9  22
ATOM     22  C   UNL     1      -4.383  -5.406   0.746  0.00  0.00    +0.013 A 
ATOM     23  C   UNL     1      -5.341  -6.031   1.538  0.00  0.00    +0.015 A 
ATOM     24  C   UNL     1      -6.621  -5.542   1.468  0.00  0.00    +0.008 A 
ATOM     25  C   UNL     1      -6.890  -4.499   0.638  0.00  0.00    +0.046 A 
ATOM     26  S   UNL     1      -5.349  -4.152  -0.077  0.00  0.00    -0.097 S 
ENDBRANCH   9  22
BRANCH   3  27
ATOM     27  C   UNL     1       0.061   1.058  -0.569  0.00  0.00    +0.160 C 
ATOM     28  O   UNL     1       0.279   1.571  -1.650  0.00  0.00    -0.293 OA
ATOM     29  C   UNL     1      -0.135   1.922   0.650  0.00  0.00    +0.091 C 
ENDBRANCH   3  27
TORSDOF 4
