REMARK  Name = ZINC61699010
REMARK  7 active torsions:
REMARK  status: ('A' for Active; 'I' for Inactive)
REMARK    1  A    between atoms: C_1  and  C_2
REMARK    2  A    between atoms: C_2  and  C_4
REMARK    3  A    between atoms: C_2  and  N_20
REMARK    4  A    between atoms: C_7  and  O_11
REMARK    5  A    between atoms: O_11  and  C_12
REMARK    6  A    between atoms: C_17  and  C_18
REMARK    7  A    between atoms: N_20  and  C_21
REMARK                            x       y       z     vdW  Elec       q    Type
REMARK                         _______ _______ _______ _____ _____    ______ ____
ROOT
ATOM      1  C   UNL     1       0.776  -0.245  -1.305  0.00  0.00    -0.060 A 
ATOM      2  C   UNL     1       0.048  -0.480  -2.457  0.00  0.00    +0.005 A 
ATOM      3  C   UNL     1       0.669  -1.007  -3.573  0.00  0.00    +0.047 A 
ATOM      4  C   UNL     1       2.024  -1.302  -3.537  0.00  0.00    +0.142 A 
ATOM      5  C   UNL     1       2.753  -1.065  -2.380  0.00  0.00    +0.060 A 
ATOM      6  C   UNL     1       2.128  -0.532  -1.268  0.00  0.00    +0.021 A 
ATOM      7 BR   UNL     1       4.600  -1.466  -2.326  0.00  0.00    -0.046 Br
ENDROOT
BRANCH   1   9
ATOM      8  C   UNL     1      -0.061   1.843  -0.261  0.00  0.00    -0.009 C 
ATOM      9  C   UNL     1       0.095   0.330  -0.090  0.00  0.00    -0.044 C 
BRANCH   9  10
ATOM     10  N   UNL     1      -1.230  -0.284   0.067  0.00  0.00    +0.382 N 
ATOM     11  C   UNL     1      -1.844   0.186   1.315  0.00  0.00    -0.100 C 
ATOM     12  H   UNL     1      -1.814  -0.026  -0.714  0.00  0.00    -0.085 HD
ATOM     13  H   UNL     1      -1.133  -1.288   0.097  0.00  0.00    -0.085 HD
ENDBRANCH   9  10
ENDBRANCH   1   9
BRANCH   4  14
ATOM     14  O   UNL     1       2.637  -1.821  -4.633  0.00  0.00    -0.454 OA
BRANCH  14  15
ATOM     15  C   UNL     1       1.913  -1.933  -5.775  0.00  0.00    +0.146 A 
ATOM     16  C   UNL     1       1.264  -3.122  -6.075  0.00  0.00    +0.047 A 
ATOM     17  C   UNL     1       0.527  -3.235  -7.237  0.00  0.00    +0.004 A 
ATOM     18  C   UNL     1       0.428  -2.164  -8.111  0.00  0.00    +0.001 A 
ATOM     19  C   UNL     1       1.066  -0.976  -7.829  0.00  0.00    +0.022 A 
ATOM     20  C   UNL     1       1.811  -0.846  -6.654  0.00  0.00    +0.094 A 
BRANCH  20  21
ATOM     21  C   UNL     1       2.471   0.388  -6.353  0.00  0.00    +0.103 C 
ATOM     22  N   UNL     1       2.995   1.368  -6.114  0.00  0.00    -0.191 NA
ENDBRANCH  20  21
ENDBRANCH  14  15
ENDBRANCH   4  14
TORSDOF 5
