REMARK  Name = ZINC05228717
REMARK  5 active torsions:
REMARK  status: ('A' for Active; 'I' for Inactive)
REMARK    1  A    between atoms: C_4  and  N_7
REMARK    2  A    between atoms: C_11  and  S_13
REMARK    3  A    between atoms: S_13  and  C_14
REMARK    4  A    between atoms: C_14  and  C_15
REMARK    5  A    between atoms: C_20  and  C_21
REMARK                            x       y       z     vdW  Elec       q    Type
REMARK                         _______ _______ _______ _____ _____    ______ ____
ROOT
ATOM      1  N   UNL     1       0.002  -0.004   0.002  0.00  0.00    -0.217 N 
ATOM      2  C   UNL     1       1.201  -0.638  -0.013  0.00  0.00    +0.150 A 
ATOM      3  S   UNL     1       1.544  -2.316  -0.025  0.00  0.00    -0.023 S 
ATOM      4  S   UNL     1       2.325   0.750  -0.016  0.00  0.00    -0.034 S 
ATOM      5  C   UNL     1       1.103   2.051   0.003  0.00  0.00    +0.158 A 
ATOM      6  N   UNL     1      -0.017   1.372   0.010  0.00  0.00    -0.151 NA
ENDROOT
BRANCH   1  10
ATOM      7  C   UNL     1      -3.552  -2.178   0.025  0.00  0.00    +0.000 A 
ATOM      8  C   UNL     1      -3.469  -0.984   0.718  0.00  0.00    +0.002 A 
ATOM      9  C   UNL     1      -2.292  -0.261   0.713  0.00  0.00    +0.028 A 
ATOM     10  C   UNL     1      -1.191  -0.734   0.010  0.00  0.00    +0.067 A 
ATOM     11  C   UNL     1      -1.280  -1.931  -0.690  0.00  0.00    +0.028 A 
ATOM     12  C   UNL     1      -2.457  -2.652  -0.675  0.00  0.00    +0.002 A 
ENDBRANCH   1  10
BRANCH   5  13
ATOM     13  S   UNL     1       1.340   3.797   0.009  0.00  0.00    -0.092 S 
BRANCH  13  14
ATOM     14  C   UNL     1       3.149   3.868  -0.007  0.00  0.00    +0.112 C 
BRANCH  14  15
ATOM     15  C   UNL     1       3.595   5.307  -0.004  0.00  0.00    -0.020 A 
ATOM     16  C   UNL     1       3.794   5.972  -1.197  0.00  0.00    +0.006 A 
ATOM     17  C   UNL     1       4.200   7.294  -1.196  0.00  0.00    +0.000 A 
ATOM     18  C   UNL     1       4.418   7.957  -0.001  0.00  0.00    +0.001 A 
ATOM     19  C   UNL     1       4.228   7.303   1.199  0.00  0.00    +0.019 A 
ATOM     20  C   UNL     1       3.814   5.969   1.205  0.00  0.00    +0.056 A 
BRANCH  20  21
ATOM     21  C   UNL     1       3.615   5.284   2.447  0.00  0.00    +0.099 C 
ATOM     22  N   UNL     1       3.457   4.740   3.432  0.00  0.00    -0.191 NA
ENDBRANCH  20  21
ENDBRANCH  14  15
ENDBRANCH  13  14
ENDBRANCH   5  13
TORSDOF 5
