REMARK  Name = ZINC36755187
REMARK  5 active torsions:
REMARK  status: ('A' for Active; 'I' for Inactive)
REMARK    1  A    between atoms: N_9  and  C_10
REMARK    2  A    between atoms: C_15  and  N_16
REMARK    3  A    between atoms: C_17  and  C_19
REMARK    4  A    between atoms: C_19  and  C_20
REMARK    5  A    between atoms: C_20  and  N_21
REMARK                            x       y       z     vdW  Elec       q    Type
REMARK                         _______ _______ _______ _____ _____    ______ ____
ROOT
ATOM      1  N   UNL     1       4.821  -0.429  -2.468  0.00  0.00    -0.284 N 
ATOM      2  C   UNL     1       5.426  -0.130  -3.634  0.00  0.00    +0.219 C 
ATOM      3  O   UNL     1       6.587   0.222  -3.643  0.00  0.00    -0.275 OA
ATOM      4  H   UNL     1       3.914  -0.772  -2.466  0.00  0.00    +0.155 HD
ENDROOT
BRANCH   1  10
ATOM      5  C   UNL     1       4.809   0.164  -0.119  0.00  0.00    +0.055 A 
ATOM      6  C   UNL     1       5.489   0.339   1.078  0.00  0.00    +0.025 A 
ATOM      7  C   UNL     1       6.851   0.114   1.137  0.00  0.00    +0.002 A 
ATOM      8  C   UNL     1       7.540  -0.286   0.007  0.00  0.00    +0.002 A 
ATOM      9  C   UNL     1       6.871  -0.462  -1.190  0.00  0.00    +0.025 A 
ATOM     10  C   UNL     1       5.503  -0.244  -1.257  0.00  0.00    +0.055 A 
BRANCH   5  19
ATOM     11  C   UNL     1       1.275   3.843  -1.060  0.00  0.00    +0.000 A 
ATOM     12  C   UNL     1       2.655   3.940  -1.079  0.00  0.00    +0.002 A 
ATOM     13  C   UNL     1       3.432   2.838  -0.799  0.00  0.00    +0.024 A 
ATOM     14  C   UNL     1       2.833   1.613  -0.492  0.00  0.00    +0.037 A 
ATOM     15  C   UNL     1       1.450   1.527  -0.475  0.00  0.00    -0.025 A 
ATOM     16  C   UNL     1       0.675   2.635  -0.757  0.00  0.00    +0.005 A 
ATOM     17  C   UNL     1       1.061   0.109  -0.119  0.00  0.00    +0.056 C 
ATOM     18  C   UNL     1       2.400  -0.622   0.071  0.00  0.00    +0.116 C 
ATOM     19  N   UNL     1       3.429   0.390  -0.181  0.00  0.00    -0.298 N 
ENDBRANCH   5  19
ENDBRANCH   1  10
BRANCH   2  20
ATOM     20  C   UNL     1       4.660  -0.232  -4.928  0.00  0.00    +0.115 C 
BRANCH  20  21
ATOM     21  C   UNL     1       5.572   0.160  -6.093  0.00  0.00    +0.127 C 
BRANCH  21  22
ATOM     22  N   UNL     1       4.828   0.060  -7.351  0.00  0.00    -0.224 N 
ATOM     23  C   UNL     1       4.760  -1.056  -8.105  0.00  0.00    +0.247 C 
ATOM     24  O   UNL     1       5.282  -2.127  -7.880  0.00  0.00    -0.273 OA
ATOM     25  C   UNL     1       3.894  -0.691  -9.289  0.00  0.00    +0.113 C 
ATOM     26  C   UNL     1       2.642  -1.561  -9.321  0.00  0.00    +0.035 C 
ATOM     27  C   UNL     1       1.766  -1.155 -10.509  0.00  0.00    +0.003 C 
ATOM     28  C   UNL     1       2.558  -1.323 -11.807  0.00  0.00    +0.000 C 
ATOM     29  C   UNL     1       3.798  -0.427 -11.769  0.00  0.00    +0.003 C 
ATOM     30  C   UNL     1       4.682  -0.830 -10.587  0.00  0.00    +0.035 C 
ATOM     31  N   UNL     1       3.539   0.714  -9.051  0.00  0.00    -0.285 N 
ATOM     32  C   UNL     1       4.127   1.064  -7.891  0.00  0.00    +0.309 C 
ATOM     33  O   UNL     1       4.034   2.169  -7.393  0.00  0.00    -0.252 OA
ATOM     34  H   UNL     1       2.986   1.277  -9.616  0.00  0.00    +0.151 HD
ENDBRANCH  21  22
ENDBRANCH  20  21
ENDBRANCH   2  20
TORSDOF 5
