REMARK  Name = ZINC09329936
REMARK  6 active torsions:
REMARK  status: ('A' for Active; 'I' for Inactive)
REMARK    1  A    between atoms: C_1  and  C_2
REMARK    2  A    between atoms: C_5  and  C_8
REMARK    3  A    between atoms: C_8  and  C_10
REMARK    4  A    between atoms: C_12  and  C_30
REMARK    5  A    between atoms: C_22  and  C_29
REMARK    6  A    between atoms: C_33  and  N_36
REMARK                            x       y       z     vdW  Elec       q    Type
REMARK                         _______ _______ _______ _____ _____    ______ ____
ROOT
ATOM      1  C   UNL     1      -4.656   3.579   1.776  0.00  0.00    +0.069 C 
ATOM      2  C   UNL     1      -5.562   3.054   0.643  0.00  0.00    +0.016 C 
ATOM      3  C   UNL     1      -5.663   1.536   0.871  0.00  0.00    -0.047 C 
ATOM      4  C   UNL     1      -7.093   1.065   0.531  0.00  0.00    +0.052 C 
ATOM      5  S   UNL     1      -7.721   0.537   2.182  0.00  0.00    -0.181 S 
ATOM      6  C   UNL     1      -6.440   1.390   3.203  0.00  0.00    -0.005 C 
ATOM      7  C   UNL     1      -4.300   2.345   2.612  0.00  0.00    +0.052 C 
ATOM      8  C   UNL     1      -2.891   1.892   2.344  0.00  0.00    -0.027 A 
ATOM      9  C   UNL     1      -2.230   1.476   1.210  0.00  0.00    +0.008 A 
ATOM     10  C   UNL     1      -0.898   1.109   1.279  0.00  0.00    -0.050 A 
ATOM     11  C   UNL     1      -0.230   1.171   2.489  0.00  0.00    +0.005 A 
ATOM     12  C   UNL     1      -0.886   1.593   3.626  0.00  0.00    +0.024 A 
ATOM     13  C   UNL     1      -2.229   1.959   3.566  0.00  0.00    +0.036 A 
ATOM     14  N   UNL     1      -3.097   2.411   4.561  0.00  0.00    -0.286 N 
ATOM     15  C   UNL     1      -4.331   2.661   4.085  0.00  0.00    +0.212 C 
ATOM     16  O   UNL     1      -5.284   3.063   4.718  0.00  0.00    -0.277 OA
ATOM     17  C   UNL     1      -0.175   0.649   0.040  0.00  0.00    +0.044 C 
ATOM     18  H   UNL     1      -2.841   2.531   5.489  0.00  0.00    +0.155 HD
ATOM     19  N   UNL     1      -5.259   1.311   2.268  0.00  0.00    +0.401 N 
ATOM     20  H   UNL     1      -4.822   0.385   2.354  0.00  0.00    -0.078 HD
ENDROOT
BRANCH   2  21
ATOM     21  C   UNL     1      -4.938   3.342  -0.699  0.00  0.00    -0.045 A 
ATOM     22  C   UNL     1      -3.562   3.389  -0.826  0.00  0.00    +0.006 A 
ATOM     23  C   UNL     1      -2.990   3.648  -2.057  0.00  0.00    +0.033 A 
ATOM     24  C   UNL     1      -3.794   3.870  -3.159  0.00  0.00    +0.126 A 
ATOM     25  C   UNL     1      -5.169   3.827  -3.032  0.00  0.00    +0.033 A 
ATOM     26  C   UNL     1      -5.742   3.564  -1.801  0.00  0.00    +0.006 A 
BRANCH  24  27
ATOM     27  N   UNL     1      -3.181   4.152  -4.477  0.00  0.00    +0.056 N 
ATOM     28  O   UNL     1      -3.889   4.347  -5.449  0.00  0.00    -0.126 OA
ATOM     29  O   UNL     1      -1.969   4.189  -4.590  0.00  0.00    -0.126 OA
ENDBRANCH  24  27
ENDBRANCH   2  21
BRANCH   1  30
ATOM     30  C   UNL     1      -5.402   4.582   2.618  0.00  0.00    +0.166 C 
ATOM     31  O   UNL     1      -6.612   4.540   2.682  0.00  0.00    -0.292 OA
BRANCH  30  36
ATOM     32  C   UNL     1      -2.507   8.610   5.525  0.00  0.00    +0.044 C 
ATOM     33  C   UNL     1      -3.266   7.554   4.763  0.00  0.00    -0.050 A 
ATOM     34  C   UNL     1      -4.647   7.509   4.838  0.00  0.00    +0.004 A 
ATOM     35  C   UNL     1      -5.348   6.547   4.144  0.00  0.00    +0.011 A 
ATOM     36  C   UNL     1      -4.660   5.613   3.362  0.00  0.00    +0.018 A 
ATOM     37  C   UNL     1      -3.264   5.662   3.295  0.00  0.00    +0.011 A 
ATOM     38  C   UNL     1      -2.578   6.634   3.990  0.00  0.00    +0.004 A 
ENDBRANCH  30  36
ENDBRANCH   1  30
TORSDOF 4
