REMARK  Name = ZINC15953824
REMARK  7 active torsions:
REMARK  status: ('A' for Active; 'I' for Inactive)
REMARK    1  A    between atoms: C_1  and  O_2
REMARK    2  A    between atoms: O_2  and  C_3
REMARK    3  A    between atoms: C_8  and  C_9
REMARK    4  A    between atoms: C_17  and  O_29
REMARK    5  A    between atoms: C_20  and  C_21
REMARK    6  A    between atoms: C_20  and  N_59
REMARK    7  A    between atoms: C_22  and  C_23
REMARK                            x       y       z     vdW  Elec       q    Type
REMARK                         _______ _______ _______ _____ _____    ______ ____
ROOT
ATOM      1  C   UNL     1      -1.906   9.411  -1.247  0.00  0.00    -0.028 C 
ATOM      2  C   UNL     1      -2.645   9.851  -2.514  0.00  0.00    +0.011 C 
ATOM      3  C   UNL     1      -2.053   9.118  -3.720  0.00  0.00    +0.005 C 
ATOM      4  C   UNL     1      -2.803   9.528  -4.989  0.00  0.00    +0.000 C 
ATOM      5  C   UNL     1      -4.280   9.157  -4.849  0.00  0.00    +0.003 C 
ATOM      6  C   UNL     1      -4.876   9.893  -3.647  0.00  0.00    +0.035 C 
ATOM      7  C   UNL     1      -4.127   9.493  -2.377  0.00  0.00    +0.066 C 
ATOM      8  C   UNL     1      -4.261   7.985  -2.150  0.00  0.00    +0.016 C 
ATOM      9  C   UNL     1      -3.470   7.591  -0.900  0.00  0.00    -0.075 C 
ATOM     10  N   UNL     1      -2.049   7.946  -1.097  0.00  0.00    +0.387 N 
ATOM     11  H   UNL     1      -1.707   7.489  -1.951  0.00  0.00    -0.080 HD
ENDROOT
BRANCH   1  17
ATOM     12  C   UNL     1       0.008  11.018  -1.041  0.00  0.00    +0.122 A 
ATOM     13  C   UNL     1       1.357  11.324  -1.155  0.00  0.00    +0.046 A 
ATOM     14  C   UNL     1       2.244  10.370  -1.613  0.00  0.00    +0.004 A 
ATOM     15  C   UNL     1       1.792   9.108  -1.950  0.00  0.00    +0.000 A 
ATOM     16  C   UNL     1       0.450   8.798  -1.831  0.00  0.00    +0.005 A 
ATOM     17  C   UNL     1      -0.443   9.749  -1.375  0.00  0.00    -0.019 A 
BRANCH  12  19
ATOM     18  C   UNL     1      -0.333  13.241  -0.272  0.00  0.00    +0.277 C 
ATOM     19  O   UNL     1      -0.868  11.957  -0.598  0.00  0.00    -0.495 OA
ENDBRANCH  12  19
ENDBRANCH   1  17
BRANCH   7  20
ATOM     20  O   UNL     1      -4.679  10.192  -1.259  0.00  0.00    -0.388 OA
ATOM     21  H   UNL     1      -5.616  10.008  -1.104  0.00  0.00    +0.210 HD
ENDBRANCH   7  20
BRANCH  10  22
ATOM     22  C   UNL     1      -1.248   7.477   0.052  0.00  0.00    -0.050 C 
BRANCH  22  23
ATOM     23  C   UNL     1      -1.227   5.970   0.044  0.00  0.00    -0.045 C 
ATOM     24  C   UNL     1      -0.070   5.323   0.030  0.00  0.00    +0.002 C 
BRANCH  24  25
ATOM     25  C   UNL     1      -0.050   3.845   0.023  0.00  0.00    -0.025 A 
ATOM     26  C   UNL     1       1.166   3.160   0.007  0.00  0.00    +0.008 A 
ATOM     27  C   UNL     1       1.178   1.781   0.000  0.00  0.00    +0.001 A 
ATOM     28  C   UNL     1      -0.013   1.076   0.008  0.00  0.00    +0.000 A 
ATOM     29  C   UNL     1      -1.222   1.748   0.017  0.00  0.00    +0.001 A 
ATOM     30  C   UNL     1      -1.247   3.128   0.031  0.00  0.00    +0.008 A 
ENDBRANCH  24  25
ENDBRANCH  22  23
ENDBRANCH  10  22
TORSDOF 6
