REMARK  Name = ZINC16195601
REMARK  10 active torsions:
REMARK  status: ('A' for Active; 'I' for Inactive)
REMARK    1  A    between atoms: C_1  and  O_2
REMARK    2  A    between atoms: O_2  and  C_3
REMARK    3  A    between atoms: C_5  and  C_20
REMARK    4  A    between atoms: C_8  and  O_9
REMARK    5  A    between atoms: O_9  and  C_10
REMARK    6  A    between atoms: C_10  and  C_11
REMARK    7  A    between atoms: C_20  and  N_41
REMARK    8  A    between atoms: C_21  and  C_22
REMARK    9  A    between atoms: C_21  and  N_41
REMARK   10  A    between atoms: C_22  and  O_23
REMARK                            x       y       z     vdW  Elec       q    Type
REMARK                         _______ _______ _______ _____ _____    ______ ____
ROOT
ATOM      1  C   UNL     1      -0.787   2.893   1.346  0.00  0.00    +0.163 A 
ATOM      2  C   UNL     1      -0.259   3.751   0.395  0.00  0.00    +0.051 A 
ATOM      3  C   UNL     1      -0.368   5.119   0.561  0.00  0.00    -0.060 A 
ATOM      4  C   UNL     1      -1.002   5.635   1.675  0.00  0.00    +0.021 A 
ATOM      5  C   UNL     1      -1.531   4.784   2.629  0.00  0.00    +0.063 A 
ATOM      6  C   UNL     1      -1.431   3.411   2.465  0.00  0.00    +0.176 A 
ATOM      7 BR   UNL     1      -2.398   5.494   4.153  0.00  0.00    -0.046 Br
ENDROOT
BRANCH   1   9
ATOM      8  C   UNL     1      -0.013   1.086   0.008  0.00  0.00    +0.277 C 
ATOM      9  O   UNL     1      -0.682   1.547   1.184  0.00  0.00    -0.491 OA
ENDBRANCH   1   9
BRANCH   6  10
ATOM     10  O   UNL     1      -1.956   2.573   3.399  0.00  0.00    -0.483 OA
BRANCH  10  11
ATOM     11  C   UNL     1      -1.101   2.184   4.476  0.00  0.00    +0.266 C 
BRANCH  11  12
ATOM     12  C   UNL     1      -1.849   1.262   5.403  0.00  0.00    +0.008 A 
ATOM     13  C   UNL     1      -3.163   0.925   5.132  0.00  0.00    +0.010 A 
ATOM     14  C   UNL     1      -3.849   0.079   5.982  0.00  0.00    +0.020 A 
ATOM     15  C   UNL     1      -3.223  -0.432   7.105  0.00  0.00    +0.042 A 
ATOM     16  C   UNL     1      -1.909  -0.096   7.377  0.00  0.00    +0.040 A 
ATOM     17  C   UNL     1      -1.220   0.747   6.523  0.00  0.00    +0.049 A 
ATOM     18 CL   UNL     1       0.431   1.164   6.859  0.00  0.00    -0.083 Cl
ATOM     19 CL   UNL     1      -4.085  -1.494   8.173  0.00  0.00    -0.083 Cl
ENDBRANCH  11  12
ENDBRANCH  10  11
ENDBRANCH   6  10
BRANCH   3  20
ATOM     20  C   UNL     1       0.207   6.050  -0.475  0.00  0.00    -0.047 C 
BRANCH  20  21
ATOM     21  N   UNL     1      -0.823   6.335  -1.492  0.00  0.00    +0.383 N 
ATOM     22  H   UNL     1      -1.633   6.774  -1.040  0.00  0.00    -0.085 HD
ATOM     23  H   UNL     1      -1.113   5.456  -1.936  0.00  0.00    -0.085 HD
BRANCH  21  24
ATOM     24  C   UNL     1      -0.287   7.246  -2.522  0.00  0.00    -0.054 C 
BRANCH  24  25
ATOM     25  C   UNL     1      -1.375   7.524  -3.561  0.00  0.00    +0.137 C 
BRANCH  25  26
ATOM     26  O   UNL     1      -2.452   8.234  -2.946  0.00  0.00    -0.397 OA
ATOM     27  H   UNL     1      -3.179   8.444  -3.547  0.00  0.00    +0.209 HD
ENDBRANCH  25  26
ENDBRANCH  24  25
ENDBRANCH  21  24
ENDBRANCH  20  21
ENDBRANCH   3  20
TORSDOF 9
