REMARK  Name = ZINC63139803
REMARK  7 active torsions:
REMARK  status: ('A' for Active; 'I' for Inactive)
REMARK    1  A    between atoms: C_1  and  C_2
REMARK    2  A    between atoms: C_2  and  C_3
REMARK    3  A    between atoms: C_2  and  C_4
REMARK    4  A    between atoms: C_7  and  C_10
REMARK    5  A    between atoms: N_29  and  C_32
REMARK    6  A    between atoms: C_32  and  C_33
REMARK    7  A    between atoms: C_33  and  C_34
REMARK                            x       y       z     vdW  Elec       q    Type
REMARK                         _______ _______ _______ _____ _____    ______ ____
ROOT
ATOM      1  C   UNL     1       2.797  -1.919   4.683  0.00  0.00    +0.133 C 
ATOM      2  C   UNL     1       2.501  -1.005   5.876  0.00  0.00    +0.131 C 
ATOM      3  C   UNL     1       3.037  -1.712   7.114  0.00  0.00    -0.034 C 
ATOM      4  C   UNL     1       3.876  -0.864   7.696  0.00  0.00    -0.001 A 
ATOM      5  C   UNL     1       4.640  -0.948   8.951  0.00  0.00    +0.010 A 
ATOM      6  C   UNL     1       5.429   0.120   9.246  0.00  0.00    +0.001 A 
ATOM      7  C   UNL     1       5.533   1.248   8.427  0.00  0.00    +0.002 A 
ATOM      8  C   UNL     1       4.863   1.412   7.258  0.00  0.00    +0.026 A 
ATOM      9  C   UNL     1       3.997   0.359   6.844  0.00  0.00    +0.043 A 
ATOM     10  N   UNL     1       3.219   0.267   5.782  0.00  0.00    -0.375 N 
ATOM     11  C   UNL     1       2.670  -3.135   7.455  0.00  0.00    +0.065 C 
ATOM     12  C   UNL     1       2.901  -3.966   6.179  0.00  0.00    +0.167 C 
ATOM     13  N   UNL     1       2.325  -3.278   5.028  0.00  0.00    -0.279 N 
ATOM     14  C   UNL     1       1.374  -3.825   4.261  0.00  0.00    +0.234 C 
ATOM     15  O   UNL     1       0.944  -3.163   3.340  0.00  0.00    -0.274 OA
ATOM     16  C   UNL     1       0.805  -5.190   4.459  0.00  0.00    +0.203 C 
ATOM     17  N   UNL     1       1.408  -5.879   5.588  0.00  0.00    -0.291 N 
ATOM     18  C   UNL     1       2.345  -5.339   6.365  0.00  0.00    +0.237 C 
ATOM     19  O   UNL     1       2.777  -6.007   7.281  0.00  0.00    -0.274 OA
ATOM     20  H   UNL     1       3.135   0.914   5.065  0.00  0.00    +0.160 HD
ENDROOT
BRANCH   1  24
ATOM     21  C   UNL     1       0.731  -0.499   1.224  0.00  0.00    -0.045 A 
ATOM     22  C   UNL     1       0.175  -0.332   2.479  0.00  0.00    +0.004 A 
ATOM     23  C   UNL     1       0.844  -0.791   3.598  0.00  0.00    +0.006 A 
ATOM     24  C   UNL     1       2.068  -1.419   3.463  0.00  0.00    -0.025 A 
ATOM     25  C   UNL     1       2.623  -1.587   2.208  0.00  0.00    +0.006 A 
ATOM     26  C   UNL     1       1.953  -1.132   1.089  0.00  0.00    +0.004 A 
BRANCH  21  28
ATOM     27  C   UNL     1      -1.360  -0.687  -0.095  0.00  0.00    +0.012 C 
ATOM     28  C   UNL     1       0.003   0.002   0.004  0.00  0.00    +0.013 C 
ATOM     29  C   UNL     1      -0.197   1.514   0.115  0.00  0.00    +0.012 C 
ENDBRANCH  21  28
ENDBRANCH   1  24
BRANCH  17  30
ATOM     30  C   UNL     1       0.959  -7.240   5.888  0.00  0.00    +0.112 C 
BRANCH  30  31
ATOM     31  C   UNL     1       1.824  -8.244   5.124  0.00  0.00    +0.049 C 
BRANCH  31  32
ATOM     32  C   UNL     1       1.362  -9.645   5.433  0.00  0.00    -0.072 C 
ATOM     33  C   UNL     1       0.526 -10.202   4.617  0.00  0.00    -0.028 C 
ATOM     34  C   UNL     1      -0.030 -11.584   4.797  0.00  0.00    +0.027 C 
ATOM     35  C   UNL     1       0.823 -12.370   5.795  0.00  0.00    +0.004 C 
ATOM     36  C   UNL     1       1.027 -11.505   7.046  0.00  0.00    +0.005 C 
ATOM     37  C   UNL     1       1.903 -10.308   6.665  0.00  0.00    +0.030 C 
ENDBRANCH  31  32
ENDBRANCH  30  31
ENDBRANCH  17  30
TORSDOF 5
