REMARK  Name = ZINC41512413
REMARK  7 active torsions:
REMARK  status: ('A' for Active; 'I' for Inactive)
REMARK    1  A    between atoms: C_1  and  C_2
REMARK    2  A    between atoms: N_7  and  C_9
REMARK    3  A    between atoms: C_9  and  C_10
REMARK    4  A    between atoms: C_11  and  O_30
REMARK    5  A    between atoms: C_18  and  C_19
REMARK    6  A    between atoms: C_24  and  O_25
REMARK    7  A    between atoms: O_25  and  C_26
REMARK                            x       y       z     vdW  Elec       q    Type
REMARK                         _______ _______ _______ _____ _____    ______ ____
ROOT
ATOM      1  C   UNL     1       1.264  -3.996   1.522  0.00  0.00    +0.020 A 
ATOM      2  C   UNL     1       0.141  -4.786   1.709  0.00  0.00    +0.122 A 
ATOM      3  C   UNL     1       0.158  -6.134   1.361  0.00  0.00    +0.046 A 
ATOM      4  C   UNL     1       1.286  -6.691   0.829  0.00  0.00    +0.019 A 
ATOM      5  C   UNL     1       2.424  -5.907   0.634  0.00  0.00    +0.068 A 
ATOM      6  C   UNL     1       2.417  -4.545   0.977  0.00  0.00    +0.144 A 
ATOM      7  O   UNL     1       3.620  -3.999   0.694  0.00  0.00    -0.451 OA
ATOM      8  C   UNL     1       4.473  -4.907   0.164  0.00  0.00    +0.176 C 
ATOM      9  C   UNL     1       5.753  -4.673  -0.225  0.00  0.00    +0.061 C 
ATOM     10  C   UNL     1       3.767  -6.194   0.098  0.00  0.00    +0.231 C 
ATOM     11  O   UNL     1       4.192  -7.257  -0.320  0.00  0.00    -0.283 OA
ENDROOT
BRANCH   9  12
ATOM     12  C   UNL     1       6.614  -5.791  -0.625  0.00  0.00    +0.021 A 
ATOM     13  C   UNL     1       6.603  -6.986   0.106  0.00  0.00    +0.027 A 
ATOM     14  C   UNL     1       7.415  -8.032  -0.277  0.00  0.00    +0.019 A 
ATOM     15  C   UNL     1       8.242  -7.907  -1.382  0.00  0.00    +0.019 A 
ATOM     16  C   UNL     1       8.263  -6.735  -2.113  0.00  0.00    +0.047 A 
ATOM     17  C   UNL     1       7.451  -5.673  -1.748  0.00  0.00    +0.127 A 
ATOM     18 BR   UNL     1       7.400  -9.644   0.711  0.00  0.00    -0.050 Br
BRANCH  17  19
ATOM     19  O   UNL     1       7.466  -4.524  -2.468  0.00  0.00    -0.495 OA
ATOM     20  C   UNL     1       8.342  -4.477  -3.597  0.00  0.00    +0.277 C 
ENDBRANCH  17  19
ENDBRANCH   9  12
BRANCH   2  21
ATOM     21  O   UNL     1      -0.985  -4.242   2.237  0.00  0.00    -0.506 OA
ATOM     22  H   UNL     1      -1.592  -3.877   1.579  0.00  0.00    +0.292 HD
ENDBRANCH   2  21
BRANCH   1  23
ATOM     23  C   UNL     1       1.231  -2.538   1.903  0.00  0.00    -0.036 C 
BRANCH  23  29
ATOM     24  C   UNL     1       0.560   2.008   0.215  0.00  0.00    +0.005 C 
ATOM     25  C   UNL     1       0.467   0.521  -0.133  0.00  0.00    -0.031 C 
ATOM     26  C   UNL     1      -0.971   0.178  -0.532  0.00  0.00    -0.001 C 
ATOM     27  C   UNL     1      -1.071  -1.326  -0.802  0.00  0.00    -0.018 C 
ATOM     28  C   UNL     1      -0.616  -2.093   0.442  0.00  0.00    -0.078 C 
ATOM     29  N   UNL     1       0.774  -1.742   0.756  0.00  0.00    +0.383 N 
ATOM     30  C   UNL     1       0.866  -0.315   1.086  0.00  0.00    -0.075 C 
ATOM     31  H   UNL     1       1.359  -1.939  -0.042  0.00  0.00    -0.081 HD
ENDBRANCH  23  29
ENDBRANCH   1  23
TORSDOF 5
