REMARK  Name = ZINC35644408
REMARK  9 active torsions:
REMARK  status: ('A' for Active; 'I' for Inactive)
REMARK    1  A    between atoms: C_1  and  C_2
REMARK    2  A    between atoms: C_5  and  C_12
REMARK    3  A    between atoms: C_6  and  C_7
REMARK    4  A    between atoms: C_6  and  C_8
REMARK    5  A    between atoms: C_12  and  O_14
REMARK    6  A    between atoms: O_14  and  C_15
REMARK    7  A    between atoms: N_23  and  C_34
REMARK    8  A    between atoms: C_28  and  O_31
REMARK    9  A    between atoms: O_31  and  C_32
REMARK                            x       y       z     vdW  Elec       q    Type
REMARK                         _______ _______ _______ _____ _____    ______ ____
ROOT
ATOM      1  C   UNL     1       1.996  -5.483   1.563  0.00  0.00    +0.203 C 
ATOM      2  C   UNL     1       2.946  -6.304   0.715  0.00  0.00    +0.094 C 
ATOM      3  C   UNL     1       3.275  -7.649   1.304  0.00  0.00    +0.192 C 
ATOM      4  C   UNL     1       2.055  -8.456   1.751  0.00  0.00    +0.053 C 
ATOM      5  C   UNL     1       1.597  -9.386   0.650  0.00  0.00    +0.001 C 
ATOM      6  C   UNL     1       0.444 -10.247   1.073  0.00  0.00    -0.077 C 
ATOM      7  N   UNL     1       0.806 -11.408   1.835  0.00  0.00    +0.381 N 
ATOM      8  C   UNL     1       0.932 -11.175   3.262  0.00  0.00    -0.043 C 
ATOM      9  C   UNL     1       2.114 -10.315   3.601  0.00  0.00    -0.056 A 
ATOM     10  C   UNL     1       2.603  -9.239   2.933  0.00  0.00    +0.013 A 
ATOM     11  C   UNL     1       3.790  -8.590   3.298  0.00  0.00    +0.167 A 
ATOM     12  C   UNL     1       4.526  -9.027   4.407  0.00  0.00    +0.162 A 
ATOM     13  C   UNL     1       3.996 -10.093   5.125  0.00  0.00    +0.049 A 
ATOM     14  C   UNL     1       2.833 -10.715   4.741  0.00  0.00    +0.006 A 
ATOM     15  O   UNL     1       4.047  -7.535   2.508  0.00  0.00    -0.484 OA
ATOM     16  C   UNL     1      -0.214 -12.443   1.621  0.00  0.00    -0.096 C 
ATOM     17  C   UNL     1       0.936  -7.587   2.228  0.00  0.00    -0.013 C 
ATOM     18  C   UNL     1       0.888  -6.318   2.121  0.00  0.00    +0.014 C 
ATOM     19  H   UNL     1       1.688 -11.757   1.489  0.00  0.00    -0.082 HD
ENDROOT
BRANCH  12  20
ATOM     20  O   UNL     1       5.699  -8.439   4.763  0.00  0.00    -0.491 OA
ATOM     21  C   UNL     1       6.366  -8.965   5.912  0.00  0.00    +0.277 C 
ENDBRANCH  12  20
BRANCH   1  22
ATOM     22  O   UNL     1       1.435  -4.443   0.759  0.00  0.00    -0.454 OA
BRANCH  22  23
ATOM     23  C   UNL     1       1.121  -3.295   1.380  0.00  0.00    +0.353 C 
ATOM     24  O   UNL     1       1.316  -3.177   2.567  0.00  0.00    -0.246 OA
BRANCH  23  29
ATOM     25  C   UNL     1      -0.019   1.526   0.010  0.00  0.00    +0.023 C 
ATOM     26  C   UNL     1       0.002  -0.004   0.002  0.00  0.00    +0.074 C 
ATOM     27  C   UNL     1      -1.384  -0.725   0.038  0.00  0.00    +0.023 C 
ATOM     28  C   UNL     1      -1.024  -2.181   0.421  0.00  0.00    +0.061 C 
ATOM     29  C   UNL     1       0.526  -2.153   0.598  0.00  0.00    +0.215 C 
ATOM     30  C   UNL     1       0.724  -0.717   1.204  0.00  0.00    +0.031 C 
ATOM     31  C   UNL     1      -0.034  -0.552   2.523  0.00  0.00    +0.016 C 
ATOM     32  C   UNL     1       2.193  -0.311   1.329  0.00  0.00    +0.016 C 
ATOM     33  O   UNL     1       1.040  -1.948  -0.747  0.00  0.00    -0.446 OA
ATOM     34  C   UNL     1       0.753  -0.681  -1.156  0.00  0.00    +0.315 C 
ATOM     35  O   UNL     1       1.013  -0.186  -2.227  0.00  0.00    -0.250 OA
ENDBRANCH  23  29
ENDBRANCH  22  23
ENDBRANCH   1  22
TORSDOF 4
