REMARK  Name = ZINC03173474
REMARK  6 active torsions:
REMARK  status: ('A' for Active; 'I' for Inactive)
REMARK    1  A    between atoms: C_2  and  C_8
REMARK    2  A    between atoms: N_9  and  N_10
REMARK    3  A    between atoms: C_11  and  C_13
REMARK    4  A    between atoms: C_13  and  C_14
REMARK    5  A    between atoms: N_16  and  N_17
REMARK    6  A    between atoms: C_18  and  C_19
REMARK                            x       y       z     vdW  Elec       q    Type
REMARK                         _______ _______ _______ _____ _____    ______ ____
ROOT
ATOM      1  C   UNL     1       3.428   7.811   0.010  0.00  0.00    +0.194 C 
ENDROOT
BRANCH   1   3
ATOM      2  N   UNL     1       2.279   5.620   0.009  0.00  0.00    -0.207 N 
ATOM      3  C   UNL     1       3.441   6.304   0.002  0.00  0.00    +0.241 C 
ATOM      4  O   UNL     1       4.496   5.707  -0.011  0.00  0.00    -0.274 OA
ATOM      5  H   UNL     1       1.435   6.098   0.020  0.00  0.00    +0.177 HD
BRANCH   2   7
ATOM      6  C   UNL     1       1.173   3.561   0.009  0.00  0.00    +0.138 C 
ATOM      7  N   UNL     1       2.291   4.220   0.002  0.00  0.00    -0.188 NA
BRANCH   6   9
ATOM      8  C   UNL     1      -0.017   1.375   0.010  0.00  0.00    +0.010 A 
ATOM      9  C   UNL     1       1.185   2.087   0.002  0.00  0.00    -0.005 A 
ATOM     10  C   UNL     1       2.399   1.395  -0.013  0.00  0.00    +0.010 A 
ATOM     11  C   UNL     1       2.404   0.016  -0.021  0.00  0.00    +0.016 A 
ATOM     12  C   UNL     1       1.209  -0.683  -0.014  0.00  0.00    +0.018 A 
ATOM     13  C   UNL     1       0.002  -0.004   0.002  0.00  0.00    +0.016 A 
ATOM     14 BR   UNL     1       1.225  -2.574  -0.025  0.00  0.00    -0.050 Br
ENDBRANCH   6   9
ENDBRANCH   2   7
ENDBRANCH   1   3
BRANCH   1  15
ATOM     15  C   UNL     1       4.845   8.325  -0.001  0.00  0.00    +0.241 C 
ATOM     16  O   UNL     1       5.773   7.545  -0.013  0.00  0.00    -0.274 OA
ATOM     17  N   UNL     1       5.080   9.653   0.004  0.00  0.00    -0.207 N 
ATOM     18  H   UNL     1       4.337  10.277   0.014  0.00  0.00    +0.177 HD
BRANCH  17  19
ATOM     19  N   UNL     1       6.396  10.131  -0.006  0.00  0.00    -0.188 NA
ATOM     20  C   UNL     1       6.623  11.409  -0.002  0.00  0.00    +0.138 C 
BRANCH  20  21
ATOM     21  C   UNL     1       8.009  11.912  -0.012  0.00  0.00    -0.005 A 
ATOM     22  C   UNL     1       9.081  11.016  -0.033  0.00  0.00    +0.010 A 
ATOM     23  C   UNL     1      10.374  11.493  -0.043  0.00  0.00    +0.016 A 
ATOM     24  C   UNL     1      10.613  12.857  -0.033  0.00  0.00    +0.018 A 
ATOM     25  C   UNL     1       9.555  13.751  -0.013  0.00  0.00    +0.016 A 
ATOM     26  C   UNL     1       8.256  13.287  -0.008  0.00  0.00    +0.010 A 
ATOM     27 BR   UNL     1      12.390  13.503  -0.046  0.00  0.00    -0.050 Br
ENDBRANCH  20  21
ENDBRANCH  17  19
ENDBRANCH   1  15
TORSDOF 6
