REMARK  Name = ZINC14044259
REMARK  7 active torsions:
REMARK  status: ('A' for Active; 'I' for Inactive)
REMARK    1  A    between atoms: C_1  and  C_2
REMARK    2  A    between atoms: C_2  and  C_3
REMARK    3  A    between atoms: C_10  and  C_12
REMARK    4  A    between atoms: C_15  and  S_18
REMARK    5  A    between atoms: N_16  and  C_17
REMARK    6  A    between atoms: S_18  and  C_19
REMARK    7  A    between atoms: C_19  and  C_20
REMARK                            x       y       z     vdW  Elec       q    Type
REMARK                         _______ _______ _______ _____ _____    ______ ____
ROOT
ATOM      1  C   UNL     1       5.489   7.735  -0.014  0.00  0.00    +0.171 A 
ATOM      2  N   UNL     1       5.864   6.475  -0.024  0.00  0.00    -0.128 NA
ATOM      3  N   UNL     1       4.831   5.710  -0.017  0.00  0.00    -0.122 NA
ATOM      4  C   UNL     1       3.733   6.431  -0.002  0.00  0.00    +0.192 A 
ATOM      5  N   UNL     1       4.111   7.745  -0.005  0.00  0.00    -0.305 N 
ATOM      6  C   UNL     1       3.235   8.919   0.003  0.00  0.00    +0.153 C 
ENDROOT
BRANCH   1  13
ATOM      7  C   UNL     1      10.120  11.857  -0.853  0.00  0.00    -0.007 C 
ATOM      8  C   UNL     1       9.585  12.732   0.284  0.00  0.00    +0.009 C 
ATOM      9  C   UNL     1       8.049  12.711   0.239  0.00  0.00    +0.043 C 
ATOM     10  C   UNL     1       7.602  11.292   0.102  0.00  0.00    -0.006 A 
ATOM     11  C   UNL     1       8.359  10.213  -0.248  0.00  0.00    -0.036 A 
ATOM     12  C   UNL     1       7.709   8.986  -0.305  0.00  0.00    +0.023 A 
ATOM     13  C   UNL     1       6.373   8.911  -0.017  0.00  0.00    +0.057 A 
ATOM     14  S   UNL     1       5.981  10.616   0.346  0.00  0.00    -0.090 S 
ATOM     15  C   UNL     1       9.845  10.383  -0.555  0.00  0.00    +0.039 C 
BRANCH   7  17
ATOM     16  C   UNL     1      12.146  11.295  -2.203  0.00  0.00    +0.004 C 
ATOM     17  C   UNL     1      11.629  12.071  -0.990  0.00  0.00    +0.000 C 
ENDBRANCH   7  17
ENDBRANCH   1  13
BRANCH   4  18
ATOM     18  S   UNL     1       2.081   5.819   0.012  0.00  0.00    -0.078 S 
BRANCH  18  19
ATOM     19  C   UNL     1       2.405   4.039  -0.001  0.00  0.00    +0.151 C 
BRANCH  19  20
ATOM     20  C   UNL     1       1.097   3.290   0.009  0.00  0.00    +0.121 A 
ATOM     21  N   UNL     1       1.132   1.932   0.002  0.00  0.00    -0.310 N 
ATOM     22  H   UNL     1       1.987   1.473  -0.009  0.00  0.00    +0.170 HD
ATOM     23  C   UNL     1      -0.014   1.213   0.009  0.00  0.00    +0.259 A 
ATOM     24  O   UNL     1       0.002  -0.004   0.002  0.00  0.00    -0.267 OA
ATOM     25  C   UNL     1      -1.281   1.960   0.019  0.00  0.00    +0.065 A 
ATOM     26  C   UNL     1      -2.517   1.315   0.033  0.00  0.00    +0.015 A 
ATOM     27  C   UNL     1      -3.673   2.064   0.048  0.00  0.00    +0.001 A 
ATOM     28  C   UNL     1      -3.615   3.452   0.055  0.00  0.00    +0.002 A 
ATOM     29  C   UNL     1      -2.405   4.108   0.047  0.00  0.00    +0.028 A 
ATOM     30  C   UNL     1      -1.219   3.371   0.032  0.00  0.00    +0.078 A 
ATOM     31  N   UNL     1      -0.005   3.976   0.023  0.00  0.00    -0.233 NA
ENDBRANCH  19  20
ENDBRANCH  18  19
ENDBRANCH   4  18
TORSDOF 5
