REMARK  Name = ZINC39922312
REMARK  10 active torsions:
REMARK  status: ('A' for Active; 'I' for Inactive)
REMARK    1  A    between atoms: C_1  and  C_2
REMARK    2  A    between atoms: C_2  and  O_3
REMARK    3  A    between atoms: O_3  and  C_4
REMARK    4  A    between atoms: C_4  and  C_6
REMARK    5  A    between atoms: C_10  and  N_11
REMARK    6  A    between atoms: C_12  and  C_14
REMARK    7  A    between atoms: C_14  and  S_15
REMARK    8  A    between atoms: S_15  and  C_16
REMARK    9  A    between atoms: C_21  and  C_28
REMARK   10  A    between atoms: C_22  and  C_27
REMARK                            x       y       z     vdW  Elec       q    Type
REMARK                         _______ _______ _______ _____ _____    ______ ____
ROOT
ATOM      1  N   UNL     1      -3.033  -2.524   2.498  0.00  0.00    -0.279 N 
ATOM      2  C   UNL     1      -3.808  -2.867   3.546  0.00  0.00    +0.228 C 
ATOM      3  O   UNL     1      -4.910  -3.337   3.357  0.00  0.00    -0.275 OA
ATOM      4  H   UNL     1      -2.152  -2.147   2.650  0.00  0.00    +0.155 HD
ENDROOT
BRANCH   1   9
ATOM      5  C   UNL     1      -2.842  -2.416   0.016  0.00  0.00    +0.091 A 
ATOM      6  C   UNL     1      -3.548  -2.714  -1.219  0.00  0.00    -0.021 A 
ATOM      7  C   UNL     1      -4.777  -3.242  -1.039  0.00  0.00    -0.004 A 
ATOM      8  S   UNL     1      -4.974  -3.335   0.716  0.00  0.00    -0.077 S 
ATOM      9  C   UNL     1      -3.495  -2.708   1.205  0.00  0.00    +0.086 A 
ATOM     10  C   UNL     1      -5.745  -3.651  -2.106  0.00  0.00    +0.043 C 
ATOM     11  C   UNL     1      -5.287  -3.033  -3.435  0.00  0.00    +0.005 C 
ATOM     12  C   UNL     1      -3.790  -3.300  -3.616  0.00  0.00    +0.005 C 
ATOM     13  C   UNL     1      -2.988  -2.468  -2.612  0.00  0.00    +0.037 C 
BRANCH   5  14
ATOM     14  C   UNL     1      -1.497  -1.838   0.006  0.00  0.00    +0.342 C 
ATOM     15  O   UNL     1      -0.523  -2.566  -0.007  0.00  0.00    -0.245 OA
BRANCH  14  16
ATOM     16  O   UNL     1      -1.339  -0.499   0.012  0.00  0.00    -0.461 OA
BRANCH  16  18
ATOM     17  C   UNL     1      -0.019   1.526   0.010  0.00  0.00    +0.048 C 
ATOM     18  C   UNL     1       0.002  -0.004   0.002  0.00  0.00    +0.229 C 
ENDBRANCH  16  18
ENDBRANCH  14  16
ENDBRANCH   5  14
ENDBRANCH   1   9
BRANCH   2  19
ATOM     19  C   UNL     1      -3.306  -2.666   4.953  0.00  0.00    +0.173 C 
BRANCH  19  20
ATOM     20  S   UNL     1      -4.570  -3.220   6.131  0.00  0.00    -0.079 S 
BRANCH  20  21
ATOM     21  C   UNL     1      -3.841  -2.924   7.708  0.00  0.00    +0.182 C 
ATOM     22  N   UNL     1      -2.629  -2.398   7.752  0.00  0.00    -0.151 NA
ATOM     23  C   UNL     1      -1.998  -2.139   8.897  0.00  0.00    +0.272 C 
ATOM     24  O   UNL     1      -0.879  -1.653   8.901  0.00  0.00    -0.268 OA
ATOM     25  C   UNL     1      -2.705  -2.461  10.179  0.00  0.00    +0.071 C 
ATOM     26  C   UNL     1      -2.268  -2.286  11.432  0.00  0.00    -0.045 C 
ATOM     27  C   UNL     1      -3.183  -2.696  12.562  0.00  0.00    +0.076 C 
ATOM     28  S   UNL     1      -4.650  -3.322  11.646  0.00  0.00    -0.098 S 
ATOM     29  C   UNL     1      -4.054  -3.044   9.997  0.00  0.00    +0.112 C 
ATOM     30  N   UNL     1      -4.542  -3.236   8.799  0.00  0.00    -0.217 NA
ATOM     31  C   UNL     1      -3.552  -1.493  13.433  0.00  0.00    +0.024 C 
ATOM     32  C   UNL     1      -0.907  -1.699  11.706  0.00  0.00    +0.041 C 
ENDBRANCH  20  21
ENDBRANCH  19  20
ENDBRANCH   2  19
TORSDOF 7
