REMARK  Name = ZINC04592858
REMARK  7 active torsions:
REMARK  status: ('A' for Active; 'I' for Inactive)
REMARK    1  A    between atoms: C_1  and  C_2
REMARK    2  A    between atoms: C_2  and  C_3
REMARK    3  A    between atoms: C_2  and  C_4
REMARK    4  A    between atoms: C_2  and  C_5
REMARK    5  A    between atoms: N_10  and  N_11
REMARK    6  A    between atoms: C_12  and  C_13
REMARK    7  A    between atoms: C_18  and  O_19
REMARK                            x       y       z     vdW  Elec       q    Type
REMARK                         _______ _______ _______ _____ _____    ______ ____
ROOT
ATOM      1  C   UNL     1       0.707  -0.490  -1.238  0.00  0.00    +0.056 A 
ATOM      2  C   UNL     1       2.057  -0.430  -1.354  0.00  0.00    +0.072 A 
ATOM      3  S   UNL     1       2.282  -1.127  -2.982  0.00  0.00    -0.059 S 
ATOM      4  C   UNL     1       0.663  -1.417  -3.338  0.00  0.00    +0.178 A 
ATOM      5  N   UNL     1       0.039  -0.999  -2.257  0.00  0.00    -0.228 NA
ATOM      6  N   UNL     1       0.119  -1.966  -4.487  0.00  0.00    -0.215 N 
ATOM      7  H   UNL     1      -0.841  -2.079  -4.564  0.00  0.00    +0.176 HD
ENDROOT
BRANCH   1   9
ATOM      8  C   UNL     1      -0.019   1.526   0.010  0.00  0.00    +0.017 C 
ATOM      9  C   UNL     1       0.002  -0.004   0.002  0.00  0.00    +0.005 C 
ATOM     10  C   UNL     1       0.742  -0.511   1.242  0.00  0.00    +0.017 C 
ATOM     11  C   UNL     1      -1.433  -0.534   0.013  0.00  0.00    +0.017 C 
ENDBRANCH   1   9
BRANCH   6  12
ATOM     12  N   UNL     1       0.957  -2.359  -5.540  0.00  0.00    -0.188 NA
ATOM     13  C   UNL     1       0.447  -2.874  -6.617  0.00  0.00    +0.142 C 
BRANCH  13  14
ATOM     14  C   UNL     1       1.327  -3.287  -7.724  0.00  0.00    +0.037 A 
ATOM     15  C   UNL     1       0.783  -3.836  -8.887  0.00  0.00    +0.028 A 
ATOM     16  C   UNL     1       1.613  -4.221  -9.921  0.00  0.00    +0.019 A 
ATOM     17  C   UNL     1       2.985  -4.065  -9.808  0.00  0.00    +0.019 A 
ATOM     18  C   UNL     1       3.535  -3.523  -8.662  0.00  0.00    +0.047 A 
ATOM     19  C   UNL     1       2.716  -3.126  -7.618  0.00  0.00    +0.126 A 
ATOM     20 BR   UNL     1       0.875  -4.964 -11.495  0.00  0.00    -0.050 Br
BRANCH  19  21
ATOM     21  O   UNL     1       3.256  -2.589  -6.494  0.00  0.00    -0.506 OA
ATOM     22  H   UNL     1       3.478  -3.240  -5.814  0.00  0.00    +0.292 HD
ENDBRANCH  19  21
ENDBRANCH  13  14
ENDBRANCH   6  12
TORSDOF 4
