REMARK  Name = ZINC65978349
REMARK  12 active torsions:
REMARK  status: ('A' for Active; 'I' for Inactive)
REMARK    1  A    between atoms: C_1  and  C_2
REMARK    2  A    between atoms: C_2  and  C_3
REMARK    3  A    between atoms: C_2  and  O_4
REMARK    4  A    between atoms: O_4  and  C_5
REMARK    5  A    between atoms: C_8  and  C_11
REMARK    6  A    between atoms: C_11  and  N_12
REMARK    7  A    between atoms: N_12  and  C_13
REMARK    8  A    between atoms: C_13  and  C_14
REMARK    9  A    between atoms: C_14  and  N_15
REMARK   10  A    between atoms: N_15  and  S_16
REMARK   11  A    between atoms: S_16  and  C_19
REMARK   12  A    between atoms: C_23  and  N_25
REMARK                            x       y       z     vdW  Elec       q    Type
REMARK                         _______ _______ _______ _____ _____    ______ ____
ROOT
ATOM      1  C   UNL     1      -2.258  -7.984  -1.624  0.00  0.00    -0.065 C 
ENDROOT
BRANCH   1   2
ATOM      2  N   UNL     1      -2.042  -6.642  -1.065  0.00  0.00    +0.383 N 
ATOM      3  H   UNL     1      -1.118  -6.591  -0.662  0.00  0.00    -0.085 HD
ATOM      4  H   UNL     1      -2.731  -6.461  -0.351  0.00  0.00    -0.085 HD
BRANCH   2   5
ATOM      5  C   UNL     1      -2.167  -5.641  -2.132  0.00  0.00    -0.047 C 
BRANCH   5   9
ATOM      6  C   UNL     1      -1.538  -1.739  -0.505  0.00  0.00    +0.121 A 
ATOM      7  C   UNL     1      -0.465  -2.468  -0.997  0.00  0.00    +0.046 A 
ATOM      8  C   UNL     1      -0.671  -3.729  -1.522  0.00  0.00    +0.005 A 
ATOM      9  C   UNL     1      -1.945  -4.265  -1.558  0.00  0.00    -0.064 A 
ATOM     10  C   UNL     1      -3.017  -3.540  -1.070  0.00  0.00    +0.005 A 
ATOM     11  C   UNL     1      -2.815  -2.281  -0.538  0.00  0.00    +0.046 A 
BRANCH   6  12
ATOM     12  O   UNL     1      -1.339  -0.499   0.012  0.00  0.00    -0.489 OA
BRANCH  12  14
ATOM     13  C   UNL     1      -1.982   1.168   1.640  0.00  0.00    +0.051 C 
ATOM     14  C   UNL     1      -2.466   0.143   0.612  0.00  0.00    +0.167 C 
ATOM     15  C   UNL     1      -3.283   0.853  -0.469  0.00  0.00    +0.051 C 
ENDBRANCH  12  14
ENDBRANCH   6  12
ENDBRANCH   5   9
ENDBRANCH   2   5
ENDBRANCH   1   2
BRANCH   1  16
ATOM     16  C   UNL     1      -2.128  -9.027  -0.513  0.00  0.00    +0.087 C 
BRANCH  16  17
ATOM     17  N   UNL     1      -2.343 -10.364  -1.070  0.00  0.00    -0.192 NA
ATOM     18  H   UNL     1      -2.743 -10.465  -1.948  0.00  0.00    +0.148 HD
BRANCH  17  19
ATOM     19  S   UNL     1      -1.904 -11.704  -0.202  0.00  0.00    +0.058 S 
ATOM     20  O   UNL     1      -2.261 -12.832  -0.988  0.00  0.00    -0.153 OA
ATOM     21  O   UNL     1      -0.576 -11.479   0.249  0.00  0.00    -0.153 OA
BRANCH  19  22
ATOM     22  C   UNL     1      -2.923 -11.750   1.235  0.00  0.00    +0.107 A 
ATOM     23  C   UNL     1      -2.515 -11.112   2.392  0.00  0.00    +0.028 A 
ATOM     24  C   UNL     1      -3.314 -11.148   3.519  0.00  0.00    +0.004 A 
ATOM     25  C   UNL     1      -4.522 -11.821   3.490  0.00  0.00    +0.033 A 
ATOM     26  C   UNL     1      -4.930 -12.458   2.333  0.00  0.00    +0.128 A 
ATOM     27  C   UNL     1      -4.132 -12.418   1.204  0.00  0.00    +0.061 A 
BRANCH  26  28
ATOM     28  N   UNL     1      -6.222 -13.179   2.301  0.00  0.00    +0.056 N 
ATOM     29  O   UNL     1      -6.920 -13.211   3.288  0.00  0.00    -0.126 OA
ATOM     30  O   UNL     1      -6.579 -13.736   1.289  0.00  0.00    -0.126 OA
ENDBRANCH  26  28
ENDBRANCH  19  22
ENDBRANCH  17  19
ENDBRANCH  16  17
ENDBRANCH   1  16
TORSDOF 10
