REMARK  Name = ZINC21558844
REMARK  11 active torsions:
REMARK  status: ('A' for Active; 'I' for Inactive)
REMARK    1  A    between atoms: C_1  and  C_2
REMARK    2  A    between atoms: C_2  and  C_3
REMARK    3  A    between atoms: C_3  and  C_5
REMARK    4  A    between atoms: C_8  and  O_11
REMARK    5  A    between atoms: O_11  and  C_12
REMARK    6  A    between atoms: C_12  and  C_13
REMARK    7  A    between atoms: C_13  and  C_15
REMARK    8  A    between atoms: C_13  and  O_35
REMARK    9  A    between atoms: C_15  and  N_16
REMARK   10  A    between atoms: C_19  and  C_23
REMARK   11  A    between atoms: C_19  and  C_24
REMARK                            x       y       z     vdW  Elec       q    Type
REMARK                         _______ _______ _______ _____ _____    ______ ____
ROOT
ATOM      1  N   UNL     1       2.876   7.460   3.034  0.00  0.00    -0.221 N 
ATOM      2  C   UNL     1       2.010   6.689   3.722  0.00  0.00    +0.251 C 
ATOM      3  O   UNL     1       2.222   6.095   4.758  0.00  0.00    -0.272 OA
ATOM      4  C   UNL     1       0.717   6.721   2.933  0.00  0.00    +0.135 C 
ATOM      5  N   UNL     1       1.034   7.586   1.783  0.00  0.00    -0.281 N 
ATOM      6  C   UNL     1       2.315   7.968   1.931  0.00  0.00    +0.310 C 
ATOM      7  O   UNL     1       2.898   8.694   1.150  0.00  0.00    -0.252 OA
ATOM      8  C   UNL     1      -0.411   7.325   3.771  0.00  0.00    +0.047 C 
ATOM      9  H   UNL     1       0.266   7.794   1.023  0.00  0.00    +0.152 HD
ENDROOT
BRANCH   4  10
ATOM     10  C   UNL     1       0.346   5.336   2.467  0.00  0.00    -0.012 A 
ATOM     11  C   UNL     1       0.716   4.235   3.217  0.00  0.00    +0.010 A 
ATOM     12  C   UNL     1       0.380   2.961   2.796  0.00  0.00    +0.050 A 
ATOM     13  C   UNL     1      -0.330   2.792   1.619  0.00  0.00    +0.162 A 
ATOM     14  C   UNL     1      -0.702   3.897   0.867  0.00  0.00    +0.162 A 
ATOM     15  C   UNL     1      -0.364   5.171   1.292  0.00  0.00    +0.055 A 
ATOM     16  O   UNL     1      -1.402   3.720  -0.291  0.00  0.00    -0.488 OA
ATOM     17  C   UNL     1      -0.690   3.098  -1.362  0.00  0.00    +0.232 C 
ATOM     18  C   UNL     1      -0.736   1.583  -1.234  0.00  0.00    +0.082 C 
ATOM     19  C   UNL     1      -0.013   1.086   0.008  0.00  0.00    +0.232 C 
ATOM     20  O   UNL     1      -0.670   1.541   1.193  0.00  0.00    -0.488 OA
ENDBRANCH   4  10
BRANCH   1  21
ATOM     21  C   UNL     1       4.260   7.710   3.445  0.00  0.00    +0.152 C 
BRANCH  21  22
ATOM     22  C   UNL     1       5.173   6.643   2.837  0.00  0.00    +0.170 C 
BRANCH  22  23
ATOM     23  O   UNL     1       4.766   5.352   3.296  0.00  0.00    -0.387 OA
ATOM     24  H   UNL     1       3.751   4.986   3.081  0.00  0.00    +0.210 HD
ENDBRANCH  22  23
BRANCH  22  25
ATOM     25  C   UNL     1       6.618   6.904   3.266  0.00  0.00    +0.261 C 
BRANCH  25  26
ATOM     26  O   UNL     1       7.485   5.979   2.607  0.00  0.00    -0.489 OA
BRANCH  26  30
ATOM     27  C   UNL     1      11.514   6.274   3.433  0.00  0.00    +0.018 A 
ATOM     28  C   UNL     1      11.049   5.300   2.541  0.00  0.00    +0.015 A 
ATOM     29  C   UNL     1       9.708   5.206   2.270  0.00  0.00    +0.046 A 
ATOM     30  C   UNL     1       8.811   6.076   2.878  0.00  0.00    +0.121 A 
ATOM     31  C   UNL     1       9.268   7.050   3.760  0.00  0.00    +0.046 A 
ATOM     32  C   UNL     1      10.606   7.148   4.043  0.00  0.00    +0.015 A 
BRANCH  27  33
ATOM     33  C   UNL     1      12.949   6.380   3.726  0.00  0.00    +0.163 C 
ATOM     34  O   UNL     1      13.734   5.623   3.196  0.00  0.00    -0.292 OA
BRANCH  33  36
ATOM     35  C   UNL     1      14.967   7.325   4.813  0.00  0.00    +0.012 C 
ATOM     36  C   UNL     1      13.446   7.430   4.686  0.00  0.00    +0.076 C 
ENDBRANCH  33  36
ENDBRANCH  27  33
ENDBRANCH  26  30
ENDBRANCH  25  26
ENDBRANCH  22  25
ENDBRANCH  21  22
ENDBRANCH   1  21
TORSDOF 9
