REMARK  Name = ZINC02654788
REMARK  10 active torsions:
REMARK  status: ('A' for Active; 'I' for Inactive)
REMARK    1  A    between atoms: N_9  and  S_10
REMARK    2  A    between atoms: S_10  and  C_13
REMARK    3  A    between atoms: C_16  and  C_19
REMARK    4  A    between atoms: C_20  and  C_21
REMARK    5  A    between atoms: C_21  and  O_23
REMARK    6  A    between atoms: O_23  and  C_24
REMARK    7  A    between atoms: C_24  and  C_25
REMARK    8  A    between atoms: C_28  and  C_30
REMARK    9  A    between atoms: C_33  and  O_36
REMARK   10  A    between atoms: O_36  and  C_37
REMARK                            x       y       z     vdW  Elec       q    Type
REMARK                         _______ _______ _______ _____ _____    ______ ____
ROOT
ATOM      1  C   UNL     1      -2.500   1.013   0.019  0.00  0.00    +0.015 C 
ATOM      2  C   UNL     1      -3.674   1.677   0.028  0.00  0.00    +0.092 C 
ENDROOT
BRANCH   1   6
ATOM      3  C   UNL     1       1.154   3.167   0.008  0.00  0.00    +0.109 A 
ATOM      4  C   UNL     1       1.171   1.783   0.001  0.00  0.00    +0.029 A 
ATOM      5  C   UNL     1      -0.013   1.076   0.008  0.00  0.00    +0.010 A 
ATOM      6  C   UNL     1      -1.232   1.760   0.017  0.00  0.00    -0.025 A 
ATOM      7  C   UNL     1      -1.240   3.159   0.030  0.00  0.00    +0.010 A 
ATOM      8  C   UNL     1      -0.049   3.852   0.022  0.00  0.00    +0.029 A 
BRANCH   3   9
ATOM      9  S   UNL     1       2.672   4.062  -0.003  0.00  0.00    +0.075 S 
ATOM     10  O   UNL     1       2.395   5.338   0.557  0.00  0.00    -0.150 OA
ATOM     11  O   UNL     1       3.660   3.193   0.534  0.00  0.00    -0.150 OA
BRANCH   9  20
ATOM     12  C   UNL     1       5.349   2.028  -4.221  0.00  0.00    +0.000 A 
ATOM     13  C   UNL     1       5.186   1.536  -2.938  0.00  0.00    +0.002 A 
ATOM     14  C   UNL     1       4.446   2.241  -2.013  0.00  0.00    +0.025 A 
ATOM     15  C   UNL     1       3.861   3.460  -2.361  0.00  0.00    +0.054 A 
ATOM     16  C   UNL     1       4.026   3.942  -3.651  0.00  0.00    -0.023 A 
ATOM     17  C   UNL     1       4.768   3.231  -4.574  0.00  0.00    +0.005 A 
ATOM     18  C   UNL     1       3.295   5.260  -3.769  0.00  0.00    +0.058 C 
ATOM     19  C   UNL     1       2.675   5.483  -2.380  0.00  0.00    +0.136 C 
ATOM     20  N   UNL     1       3.079   4.319  -1.587  0.00  0.00    -0.202 N 
ENDBRANCH   9  20
ENDBRANCH   3   9
ENDBRANCH   1   6
BRANCH   2  21
ATOM     21  C   UNL     1      -4.934   0.934   0.030  0.00  0.00    +0.332 C 
ATOM     22  O   UNL     1      -4.923  -0.282   0.024  0.00  0.00    -0.246 OA
BRANCH  21  23
ATOM     23  O   UNL     1      -6.109   1.598   0.040  0.00  0.00    -0.452 OA
BRANCH  23  24
ATOM     24  C   UNL     1      -7.300   0.809   0.041  0.00  0.00    +0.328 C 
BRANCH  24  25
ATOM     25  C   UNL     1      -8.503   1.716   0.051  0.00  0.00    +0.257 C 
ATOM     26  O   UNL     1      -8.355   2.920   0.057  0.00  0.00    -0.272 OA
ATOM     27  N   UNL     1      -9.744   1.190   0.054  0.00  0.00    -0.250 N 
ATOM     28  C   UNL     1     -10.820   2.001   0.064  0.00  0.00    +0.250 C 
ATOM     29  O   UNL     1     -10.672   3.207   0.070  0.00  0.00    -0.270 OA
ATOM     30  H   UNL     1      -9.862   0.227   0.050  0.00  0.00    +0.158 HD
BRANCH  28  31
ATOM     31  C   UNL     1     -12.178   1.425   0.067  0.00  0.00    +0.037 A 
ATOM     32  C   UNL     1     -12.351   0.038   0.054  0.00  0.00    +0.016 A 
ATOM     33  C   UNL     1     -13.620  -0.496   0.062  0.00  0.00    +0.046 A 
ATOM     34  C   UNL     1     -14.729   0.343   0.072  0.00  0.00    +0.127 A 
ATOM     35  C   UNL     1     -14.561   1.723   0.079  0.00  0.00    +0.046 A 
ATOM     36  C   UNL     1     -13.296   2.265   0.077  0.00  0.00    +0.016 A 
BRANCH  34  37
ATOM     37  O   UNL     1     -15.978  -0.187   0.074  0.00  0.00    -0.434 OA
BRANCH  37  38
ATOM     38  C   UNL     1     -16.078  -1.613   0.066  0.00  0.00    +0.541 C 
ATOM     39  F   UNL     1     -15.458  -2.117  -1.082  0.00  0.00    -0.166 F 
ATOM     40  F   UNL     1     -15.447  -2.131   1.202  0.00  0.00    -0.166 F 
ENDBRANCH  37  38
ENDBRANCH  34  37
ENDBRANCH  28  31
ENDBRANCH  24  25
ENDBRANCH  23  24
ENDBRANCH  21  23
ENDBRANCH   2  21
TORSDOF 10
