REMARK  Name = ZINC05055787
REMARK  6 active torsions:
REMARK  status: ('A' for Active; 'I' for Inactive)
REMARK    1  A    between atoms: C_1  and  N_2
REMARK    2  A    between atoms: C_3  and  C_5
REMARK    3  A    between atoms: C_9  and  N_10
REMARK    4  A    between atoms: C_11  and  C_13
REMARK    5  A    between atoms: C_13  and  O_14
REMARK    6  A    between atoms: O_14  and  C_15
REMARK                            x       y       z     vdW  Elec       q    Type
REMARK                         _______ _______ _______ _____ _____    ______ ____
ROOT
ATOM      1  C   UNL     1       2.999  -1.642   1.746  0.00  0.00    +0.069 A 
ATOM      2  C   UNL     1       2.179  -0.684   1.016  0.00  0.00    -0.023 A 
ATOM      3  C   UNL     1       2.846   0.061   0.110  0.00  0.00    -0.004 A 
ATOM      4  S   UNL     1       4.530  -0.479   0.225  0.00  0.00    -0.077 S 
ATOM      5  C   UNL     1       4.353  -1.688   1.453  0.00  0.00    +0.084 A 
ATOM      6  C   UNL     1       2.288   1.105  -0.807  0.00  0.00    +0.043 C 
ATOM      7  C   UNL     1       1.406   2.068  -0.000  0.00  0.00    +0.005 C 
ATOM      8  C   UNL     1      -0.019   1.523   0.010  0.00  0.00    +0.001 C 
ATOM      9  C   UNL     1       0.002  -0.004   0.002  0.00  0.00    +0.005 C 
ATOM     10  C   UNL     1       0.683  -0.535   1.259  0.00  0.00    +0.037 C 
ENDROOT
BRANCH   1  13
ATOM     11  C   UNL     1       1.759  -3.017   5.053  0.00  0.00    +0.128 C 
ATOM     12  N   UNL     1       2.346  -2.132   4.043  0.00  0.00    -0.314 N 
ATOM     13  C   UNL     1       2.412  -2.527   2.756  0.00  0.00    +0.246 C 
ATOM     14  O   UNL     1       1.983  -3.620   2.433  0.00  0.00    -0.270 OA
ATOM     15  H   UNL     1       2.688  -1.261   4.301  0.00  0.00    +0.149 HD
ENDBRANCH   1  13
BRANCH   5  16
ATOM     16  N   UNL     1       5.328  -2.503   2.008  0.00  0.00    -0.277 N 
ATOM     17  C   UNL     1       6.606  -2.403   1.592  0.00  0.00    +0.255 C 
ATOM     18  O   UNL     1       6.903  -1.601   0.732  0.00  0.00    -0.272 OA
ATOM     19  H   UNL     1       5.090  -3.144   2.695  0.00  0.00    +0.155 HD
BRANCH  17  20
ATOM     20  C   UNL     1       7.665  -3.289   2.195  0.00  0.00    +0.324 C 
BRANCH  20  21
ATOM     21  O   UNL     1       8.929  -2.997   1.594  0.00  0.00    -0.483 OA
BRANCH  21  22
ATOM     22  C   UNL     1       9.999  -3.714   2.029  0.00  0.00    +0.121 A 
ATOM     23  C   UNL     1       9.837  -4.674   3.017  0.00  0.00    +0.047 A 
ATOM     24  C   UNL     1      10.925  -5.404   3.454  0.00  0.00    +0.023 A 
ATOM     25  C   UNL     1      12.178  -5.171   2.914  0.00  0.00    +0.041 A 
ATOM     26  C   UNL     1      12.342  -4.211   1.931  0.00  0.00    +0.023 A 
ATOM     27  C   UNL     1      11.255  -3.482   1.488  0.00  0.00    +0.047 A 
ATOM     28 CL   UNL     1      13.544  -6.087   3.469  0.00  0.00    -0.084 Cl
ENDBRANCH  21  22
ENDBRANCH  20  21
ENDBRANCH  17  20
ENDBRANCH   5  16
TORSDOF 5
