REMARK  Name = ZINC67559293
REMARK  6 active torsions:
REMARK  status: ('A' for Active; 'I' for Inactive)
REMARK    1  A    between atoms: C_1  and  C_2
REMARK    2  A    between atoms: C_8  and  C_12
REMARK    3  A    between atoms: N_10  and  C_11
REMARK    4  A    between atoms: C_12  and  N_13
REMARK    5  A    between atoms: C_16  and  C_21
REMARK    6  A    between atoms: C_18  and  C_20
REMARK                            x       y       z     vdW  Elec       q    Type
REMARK                         _______ _______ _______ _____ _____    ______ ____
ROOT
ATOM      1  N   UNL     1      -1.323  -2.795   4.192  0.00  0.00    -0.323 N 
ATOM      2  C   UNL     1      -1.573  -2.574   5.536  0.00  0.00    +0.123 A 
ATOM      3  C   UNL     1      -0.518  -2.403   6.435  0.00  0.00    +0.067 A 
ATOM      4  C   UNL     1      -0.819  -2.185   7.765  0.00  0.00    +0.048 A 
ATOM      5  N   UNL     1      -2.089  -2.145   8.143  0.00  0.00    -0.237 NA
ATOM      6  C   UNL     1      -3.062  -2.310   7.270  0.00  0.00    +0.128 A 
ATOM      7  N   UNL     1      -2.821  -2.515   5.990  0.00  0.00    -0.218 NA
ATOM      8  C   UNL     1      -4.491  -2.257   7.746  0.00  0.00    +0.088 C 
ATOM      9  H   UNL     1      -2.061  -2.909   3.573  0.00  0.00    +0.148 HD
ENDROOT
BRANCH   4  10
ATOM     10  C   UNL     1       0.283  -1.995   8.775  0.00  0.00    +0.021 C 
ATOM     11  C   UNL     1       1.449  -1.245   8.125  0.00  0.00    +0.006 C 
ATOM     12  C   UNL     1       2.594  -1.126   9.136  0.00  0.00    -0.018 C 
ATOM     13  C   UNL     1       2.996  -2.524   9.610  0.00  0.00    -0.083 C 
ATOM     14  N   UNL     1       1.846  -3.179  10.245  0.00  0.00    +0.379 N 
ATOM     15  C   UNL     1       0.770  -3.361   9.264  0.00  0.00    -0.073 C 
ATOM     16  H   UNL     1       2.128  -4.079  10.604  0.00  0.00    -0.086 HD
ATOM     17  H   UNL     1       1.512  -2.606  11.005  0.00  0.00    -0.086 HD
ENDBRANCH   4  10
BRANCH   1  18
ATOM     18  C   UNL     1       0.057  -2.858   3.704  0.00  0.00    +0.161 C 
BRANCH  18  26
ATOM     19  C   UNL     1      -0.018   1.503   0.010  0.00  0.00    +0.044 C 
ATOM     20  C   UNL     1       0.002  -0.004   0.002  0.00  0.00    -0.050 A 
ATOM     21  C   UNL     1       0.006  -0.686  -1.209  0.00  0.00    +0.005 A 
ATOM     22  C   UNL     1       0.024  -2.051  -1.243  0.00  0.00    +0.028 A 
ATOM     23  C   UNL     1       0.040  -2.774  -0.053  0.00  0.00    +0.069 A 
ATOM     24  C   UNL     1       0.036  -2.086   1.175  0.00  0.00    +0.025 A 
ATOM     25  C   UNL     1       0.023  -0.686   1.184  0.00  0.00    +0.015 A 
ATOM     26  C   UNL     1       0.054  -3.106   2.218  0.00  0.00    +0.088 A 
ATOM     27  N   UNL     1       0.067  -4.271   1.634  0.00  0.00    -0.174 NA
ATOM     28  N   UNL     1       0.058  -4.112   0.245  0.00  0.00    -0.266 N 
ATOM     29  C   UNL     1       0.068  -5.201  -0.735  0.00  0.00    +0.173 C 
ENDBRANCH  18  26
ENDBRANCH   1  18
TORSDOF 3
