REMARK  Name = ZINC12292275
REMARK  10 active torsions:
REMARK  status: ('A' for Active; 'I' for Inactive)
REMARK    1  A    between atoms: C_1  and  C_2
REMARK    2  A    between atoms: C_2  and  C_3
REMARK    3  A    between atoms: C_2  and  C_4
REMARK    4  A    between atoms: C_2  and  C_5
REMARK    5  A    between atoms: C_8  and  C_11
REMARK    6  A    between atoms: C_11  and  C_13
REMARK    7  A    between atoms: C_11  and  O_29
REMARK    8  A    between atoms: C_13  and  N_60
REMARK    9  A    between atoms: C_16  and  C_19
REMARK   10  A    between atoms: C_16  and  O_28
REMARK                            x       y       z     vdW  Elec       q    Type
REMARK                         _______ _______ _______ _____ _____    ______ ____
ROOT
ATOM      1  C   UNL     1       1.480  -4.387  -0.874  0.00  0.00    -0.076 C 
ATOM      2  C   UNL     1       1.712  -2.898  -0.609  0.00  0.00    +0.021 C 
ATOM      3  C   UNL     1       0.906  -2.073  -1.616  0.00  0.00    +0.088 C 
ATOM      4  C   UNL     1      -0.575  -2.444  -1.498  0.00  0.00    +0.021 C 
ATOM      5  C   UNL     1      -0.740  -3.946  -1.738  0.00  0.00    -0.076 C 
ATOM      6  N   UNL     1       0.040  -4.683  -0.722  0.00  0.00    +0.382 N 
ATOM      7  H   UNL     1      -0.264  -4.384   0.212  0.00  0.00    -0.082 HD
ENDROOT
BRANCH   3   8
ATOM      8  C   UNL     1       1.083  -0.606  -1.322  0.00  0.00    -0.013 A 
ATOM      9  C   UNL     1       1.312  -0.185  -0.025  0.00  0.00    +0.010 A 
ATOM     10  C   UNL     1       1.475   1.160   0.250  0.00  0.00    +0.050 A 
ATOM     11  C   UNL     1       1.408   2.090  -0.775  0.00  0.00    +0.166 A 
ATOM     12  C   UNL     1       1.176   1.667  -2.081  0.00  0.00    +0.167 A 
ATOM     13  C   UNL     1       1.014   0.317  -2.349  0.00  0.00    +0.056 A 
ATOM     14  O   UNL     1       1.154   2.760  -2.897  0.00  0.00    -0.453 OA
ATOM     15  C   UNL     1       0.968   3.889  -2.023  0.00  0.00    +0.466 C 
ATOM     16  O   UNL     1       1.531   3.450  -0.773  0.00  0.00    -0.453 OA
ENDBRANCH   3   8
BRANCH   3  17
ATOM     17  O   UNL     1       1.366  -2.353  -2.940  0.00  0.00    -0.384 OA
ATOM     18  H   UNL     1       0.897  -1.866  -3.631  0.00  0.00    +0.211 HD
ENDBRANCH   3  17
BRANCH   6  19
ATOM     19  C   UNL     1      -0.194  -6.135  -0.861  0.00  0.00    -0.042 C 
BRANCH  19  20
ATOM     20  C   UNL     1      -0.082  -6.559  -2.327  0.00  0.00    +0.128 C 
BRANCH  20  24
ATOM     21  C   UNL     1      -1.202 -10.664  -2.712  0.00  0.00    -0.042 A 
ATOM     22  C   UNL     1      -2.105  -9.668  -3.033  0.00  0.00    +0.004 A 
ATOM     23  C   UNL     1      -1.743  -8.339  -2.908  0.00  0.00    +0.006 A 
ATOM     24  C   UNL     1      -0.477  -8.007  -2.462  0.00  0.00    -0.021 A 
ATOM     25  C   UNL     1       0.428  -9.003  -2.146  0.00  0.00    +0.006 A 
ATOM     26  C   UNL     1       0.064 -10.331  -2.266  0.00  0.00    +0.004 A 
BRANCH  21  28
ATOM     27  C   UNL     1      -1.969 -12.405  -4.302  0.00  0.00    +0.015 C 
ATOM     28  C   UNL     1      -1.597 -12.111  -2.847  0.00  0.00    -0.013 C 
ATOM     29  C   UNL     1      -0.424 -13.001  -2.431  0.00  0.00    +0.015 C 
ATOM     30  C   UNL     1      -2.800 -12.398  -1.946  0.00  0.00    +0.015 C 
ENDBRANCH  21  28
ENDBRANCH  20  24
BRANCH  20  31
ATOM     31  O   UNL     1       1.266  -6.390  -2.770  0.00  0.00    -0.389 OA
ATOM     32  H   UNL     1       1.912  -6.910  -2.272  0.00  0.00    +0.210 HD
ENDBRANCH  20  31
ENDBRANCH  19  20
ENDBRANCH   6  19
TORSDOF 7
