REMARK  Name = ZINC15071180
REMARK  5 active torsions:
REMARK  status: ('A' for Active; 'I' for Inactive)
REMARK    1  A    between atoms: C_3  and  C_6
REMARK    2  A    between atoms: C_6  and  N_7
REMARK    3  A    between atoms: C_13  and  C_15
REMARK    4  A    between atoms: C_15  and  C_16
REMARK    5  A    between atoms: N_23  and  C_24
REMARK                            x       y       z     vdW  Elec       q    Type
REMARK                         _______ _______ _______ _____ _____    ______ ____
ROOT
ATOM      1  C   UNL     1       6.010  -2.183   4.942  0.00  0.00    +0.090 C 
ENDROOT
BRANCH   1   2
ATOM      2  C   UNL     1       7.021  -2.775   5.926  0.00  0.00    +0.028 C 
ATOM      3  C   UNL     1       6.367  -3.874   6.713  0.00  0.00    +0.200 C 
ATOM      4  O   UNL     1       5.239  -3.701   7.126  0.00  0.00    -0.278 OA
ATOM      5  N   UNL     1       6.974  -5.036   6.976  0.00  0.00    -0.318 N 
ATOM      6  C   UNL     1       8.315  -5.358   6.495  0.00  0.00    +0.085 C 
ATOM      7  C   UNL     1       9.044  -4.078   6.082  0.00  0.00    -0.058 C 
ATOM      8  N   UNL     1       8.172  -3.306   5.183  0.00  0.00    +0.390 N 
ATOM      9  H   UNL     1       6.419  -5.765   7.585  0.00  0.00    +0.149 HD
ATOM     10  H   UNL     1       7.797  -3.976   4.395  0.00  0.00    -0.080 HD
BRANCH   8  11
ATOM     11  C   UNL     1       8.918  -2.225   4.525  0.00  0.00    -0.067 C 
ATOM     12  C   UNL     1      10.000  -2.817   3.598  0.00  0.00    -0.015 C 
ATOM     13  C   UNL     1      11.200  -1.849   3.748  0.00  0.00    -0.002 C 
ATOM     14  C   UNL     1      11.160  -1.486   5.253  0.00  0.00    -0.002 C 
ATOM     15  C   UNL     1       9.656  -1.378   5.577  0.00  0.00    -0.015 C 
ENDBRANCH   8  11
ENDBRANCH   1   2
BRANCH   1  22
ATOM     16  N   UNL     1       3.414  -2.152   0.690  0.00  0.00    -0.295 NA
ATOM     17  C   UNL     1       3.990  -1.143   1.589  0.00  0.00    +0.104 C 
ATOM     18  C   UNL     1       3.953  -1.667   3.029  0.00  0.00    +0.123 C 
ATOM     19  N   UNL     1       4.612  -2.981   3.065  0.00  0.00    -0.299 N 
ATOM     20  C   UNL     1       4.181  -4.003   2.098  0.00  0.00    +0.123 C 
ATOM     21  C   UNL     1       4.209  -3.387   0.695  0.00  0.00    +0.104 C 
ATOM     22  C   UNL     1       5.584  -3.244   3.961  0.00  0.00    +0.215 C 
ATOM     23  O   UNL     1       6.117  -4.333   3.976  0.00  0.00    -0.276 OA
BRANCH  16  24
ATOM     24  C   UNL     1       3.273  -1.622  -0.673  0.00  0.00    +0.127 C 
BRANCH  24  27
ATOM     25  C   UNL     1       1.360   1.669  -0.533  0.00  0.00    +0.008 A 
ATOM     26  C   UNL     1       2.451   0.821  -0.487  0.00  0.00    +0.012 A 
ATOM     27  C   UNL     1       2.259  -0.507  -0.677  0.00  0.00    +0.004 A 
ATOM     28  S   UNL     1       0.494  -0.593  -0.931  0.00  0.00    -0.100 S 
ATOM     29  C   UNL     1       0.131   1.147  -0.767  0.00  0.00    +0.045 A 
ENDBRANCH  24  27
ENDBRANCH  16  24
ENDBRANCH   1  22
TORSDOF 5
