REMARK  Name = ZINC39527988
REMARK  10 active torsions:
REMARK  status: ('A' for Active; 'I' for Inactive)
REMARK    1  A    between atoms: C_1  and  C_2
REMARK    2  A    between atoms: C_2  and  C_3
REMARK    3  A    between atoms: C_2  and  S_4
REMARK    4  A    between atoms: S_4  and  C_7
REMARK    5  A    between atoms: C_17  and  S_26
REMARK    6  A    between atoms: N_19  and  S_20
REMARK    7  A    between atoms: S_20  and  C_23
REMARK    8  A    between atoms: C_23  and  C_24
REMARK    9  A    between atoms: C_23  and  C_25
REMARK   10  A    between atoms: S_26  and  C_29
REMARK                            x       y       z     vdW  Elec       q    Type
REMARK                         _______ _______ _______ _____ _____    ______ ____
ROOT
ATOM      1  C   UNL     1       2.257  -0.467  -1.309  0.00  0.00    +0.133 C 
ATOM      2  C   UNL     1       2.951  -0.791   0.016  0.00  0.00    +0.026 C 
ATOM      3  C   UNL     1       4.184   0.100   0.178  0.00  0.00    +0.004 C 
ATOM      4  C   UNL     1       5.152  -0.153  -0.979  0.00  0.00    +0.024 C 
ATOM      5  C   UNL     1       4.459   0.168  -2.303  0.00  0.00    +0.047 C 
ATOM      6  C   UNL     1       3.225  -0.719  -2.467  0.00  0.00    +0.050 C 
ATOM      7  C   UNL     1       4.039   1.640  -2.318  0.00  0.00    +0.024 C 
ATOM      8  C   UNL     1       5.289   2.524  -2.296  0.00  0.00    +0.005 C 
ATOM      9  C   UNL     1       6.133   2.247  -3.542  0.00  0.00    +0.044 C 
ATOM     10  C   UNL     1       6.578   0.781  -3.538  0.00  0.00    +0.226 C 
ATOM     11  N   UNL     1       5.388  -0.074  -3.414  0.00  0.00    -0.150 NA
ENDROOT
BRANCH   1  12
ATOM     12  S   UNL     1       0.795  -1.523  -1.501  0.00  0.00    -0.026 S 
ATOM     13  O   UNL     1       1.200  -2.879  -1.369  0.00  0.00    -0.174 OA
ATOM     14  O   UNL     1       0.100  -1.120  -2.673  0.00  0.00    -0.174 OA
BRANCH  12  16
ATOM     15  C   UNL     1      -0.548   0.409  -0.107  0.00  0.00    +0.031 C 
ATOM     16  C   UNL     1      -0.210  -1.082  -0.057  0.00  0.00    +0.125 C 
ATOM     17  C   UNL     1      -1.504  -1.899  -0.067  0.00  0.00    +0.031 C 
ENDBRANCH  12  16
ENDBRANCH   1  12
BRANCH  11  18
ATOM     18  S   UNL     1       5.103  -1.286  -4.505  0.00  0.00    +0.036 S 
ATOM     19  O   UNL     1       6.229  -2.145  -4.396  0.00  0.00    -0.158 OA
ATOM     20  O   UNL     1       3.800  -1.758  -4.190  0.00  0.00    -0.158 OA
BRANCH  18  21
ATOM     21  C   UNL     1       5.096  -0.466  -6.122  0.00  0.00    +0.142 C 
ATOM     22  C   UNL     1       4.558  -1.431  -7.181  0.00  0.00    +0.033 C 
ATOM     23  C   UNL     1       4.202   0.774  -6.062  0.00  0.00    +0.033 C 
ENDBRANCH  18  21
ENDBRANCH  11  18
BRANCH  10  24
ATOM     24  S   UNL     1       7.442   0.404  -5.088  0.00  0.00    +0.014 S 
ATOM     25  O   UNL     1       7.517  -1.003  -5.277  0.00  0.00    -0.168 OA
ATOM     26  O   UNL     1       6.974   1.250  -6.128  0.00  0.00    -0.168 OA
BRANCH  24  27
ATOM     27  C   UNL     1       9.108   0.909  -4.811  0.00  0.00    +0.090 A 
ATOM     28  C   UNL     1       9.472   2.227  -5.013  0.00  0.00    +0.027 A 
ATOM     29  C   UNL     1      10.779   2.623  -4.796  0.00  0.00    +0.002 A 
ATOM     30  C   UNL     1      11.720   1.702  -4.377  0.00  0.00    +0.000 A 
ATOM     31  C   UNL     1      11.355   0.384  -4.175  0.00  0.00    +0.002 A 
ATOM     32  C   UNL     1      10.048  -0.011  -4.387  0.00  0.00    +0.027 A 
ENDBRANCH  24  27
ENDBRANCH  10  24
TORSDOF 6
