REMARK  Name = ZINC40138452
REMARK  10 active torsions:
REMARK  status: ('A' for Active; 'I' for Inactive)
REMARK    1  A    between atoms: C_1  and  C_2
REMARK    2  A    between atoms: C_6  and  O_8
REMARK    3  A    between atoms: O_8  and  C_9
REMARK    4  A    between atoms: C_9  and  C_10
REMARK    5  A    between atoms: C_10  and  C_11
REMARK    6  A    between atoms: C_11  and  N_12
REMARK    7  A    between atoms: C_16  and  C_34
REMARK    8  A    between atoms: N_20  and  N_21
REMARK    9  A    between atoms: C_22  and  C_24
REMARK   10  A    between atoms: C_29  and  O_30
REMARK                            x       y       z     vdW  Elec       q    Type
REMARK                         _______ _______ _______ _____ _____    ______ ____
ROOT
ATOM      1  N   UNL     1       0.116  -6.893   4.943  0.00  0.00    -0.265 N 
ATOM      2  C   UNL     1       1.273  -7.177   5.661  0.00  0.00    +0.046 A 
ATOM      3  C   UNL     1       2.618  -7.022   5.345  0.00  0.00    +0.024 A 
ATOM      4  C   UNL     1       3.590  -7.389   6.254  0.00  0.00    +0.005 A 
ATOM      5  C   UNL     1       3.240  -7.915   7.486  0.00  0.00    -0.050 A 
ATOM      6  C   UNL     1       1.910  -8.077   7.817  0.00  0.00    +0.015 A 
ATOM      7  C   UNL     1       0.923  -7.708   6.909  0.00  0.00    +0.029 A 
ATOM      8  C   UNL     1      -0.557  -7.749   6.947  0.00  0.00    +0.153 C 
ATOM      9  N   UNL     1      -1.319  -8.174   7.926  0.00  0.00    -0.174 NA
ATOM     10  C   UNL     1      -0.987  -7.201   5.645  0.00  0.00    +0.271 C 
ATOM     11  O   UNL     1      -2.136  -7.057   5.273  0.00  0.00    -0.268 OA
ATOM     12  C   UNL     1       4.313  -8.312   8.467  0.00  0.00    +0.044 C 
ENDROOT
BRANCH   9  13
ATOM     13  N   UNL     1      -2.713  -8.140   7.793  0.00  0.00    -0.202 N 
ATOM     14  C   UNL     1      -3.497  -8.577   8.799  0.00  0.00    +0.267 C 
ATOM     15  O   UNL     1      -2.994  -9.000   9.822  0.00  0.00    -0.268 OA
ATOM     16  H   UNL     1      -3.115  -7.803   6.977  0.00  0.00    +0.178 HD
BRANCH  14  17
ATOM     17  C   UNL     1      -4.964  -8.542   8.659  0.00  0.00    +0.081 A 
ATOM     18  C   UNL     1      -5.547  -8.062   7.482  0.00  0.00    +0.032 A 
ATOM     19  C   UNL     1      -6.919  -8.033   7.358  0.00  0.00    +0.019 A 
ATOM     20  C   UNL     1      -7.725  -8.477   8.395  0.00  0.00    +0.019 A 
ATOM     21  C   UNL     1      -7.162  -8.954   9.562  0.00  0.00    +0.047 A 
ATOM     22  C   UNL     1      -5.783  -8.995   9.703  0.00  0.00    +0.129 A 
ATOM     23 BR   UNL     1      -7.706  -7.383   5.766  0.00  0.00    -0.050 Br
BRANCH  22  24
ATOM     24  O   UNL     1      -5.229  -9.469  10.847  0.00  0.00    -0.506 OA
ATOM     25  H   UNL     1      -5.082  -8.792  11.522  0.00  0.00    +0.292 HD
ENDBRANCH  22  24
ENDBRANCH  14  17
ENDBRANCH   9  13
BRANCH   1  26
ATOM     26  C   UNL     1       0.103  -6.324   3.593  0.00  0.00    +0.117 C 
BRANCH  26  27
ATOM     27  C   UNL     1       0.083  -4.796   3.683  0.00  0.00    +0.060 C 
BRANCH  27  28
ATOM     28  C   UNL     1       0.069  -4.202   2.274  0.00  0.00    +0.230 C 
BRANCH  28  29
ATOM     29  O   UNL     1       0.050  -2.776   2.358  0.00  0.00    -0.492 OA
BRANCH  29  35
ATOM     30  C   UNL     1      -0.018   1.503   0.010  0.00  0.00    +0.044 C 
ATOM     31  C   UNL     1       0.002  -0.004   0.002  0.00  0.00    -0.047 A 
ATOM     32  C   UNL     1       0.006  -0.688  -1.200  0.00  0.00    +0.003 A 
ATOM     33  C   UNL     1       0.024  -2.071  -1.211  0.00  0.00    +0.004 A 
ATOM     34  C   UNL     1       0.039  -2.772  -0.020  0.00  0.00    +0.045 A 
ATOM     35  C   UNL     1       0.035  -2.088   1.186  0.00  0.00    +0.121 A 
ATOM     36  C   UNL     1       0.023  -0.700   1.195  0.00  0.00    +0.049 A 
ENDBRANCH  29  35
ENDBRANCH  28  29
ENDBRANCH  27  28
ENDBRANCH  26  27
ENDBRANCH   1  26
TORSDOF 8
