REMARK  Name = ZINC12896266
REMARK  12 active torsions:
REMARK  status: ('A' for Active; 'I' for Inactive)
REMARK    1  A    between atoms: C_1  and  C_2
REMARK    2  A    between atoms: C_6  and  O_31
REMARK    3  A    between atoms: C_12  and  C_13
REMARK    4  A    between atoms: C_13  and  C_14
REMARK    5  A    between atoms: N_16  and  C_17
REMARK    6  A    between atoms: C_17  and  C_18
REMARK    7  A    between atoms: C_18  and  C_19
REMARK    8  A    between atoms: C_27  and  O_29
REMARK    9  A    between atoms: O_29  and  C_30
REMARK   10  A    between atoms: O_31  and  C_32
REMARK   11  A    between atoms: C_32  and  C_33
REMARK   12  A    between atoms: C_33  and  C_35
REMARK                            x       y       z     vdW  Elec       q    Type
REMARK                         _______ _______ _______ _____ _____    ______ ____
ROOT
ATOM      1  C   UNL     1       7.152  -0.674   8.080  0.00  0.00    +0.138 C 
ENDROOT
BRANCH   1  13
ATOM      2  C   UNL     1       7.709   0.868  10.457  0.00  0.00    +0.045 C 
ATOM      3  C   UNL     1       8.634   0.926   9.269  0.00  0.00    -0.029 A 
ATOM      4  C   UNL     1       9.835   1.764   9.290  0.00  0.00    +0.021 A 
ATOM      5  C   UNL     1      10.157   2.533  10.414  0.00  0.00    +0.015 A 
ATOM      6  C   UNL     1      11.282   3.305  10.408  0.00  0.00    +0.046 A 
ATOM      7  C   UNL     1      12.113   3.332   9.289  0.00  0.00    +0.124 A 
ATOM      8  C   UNL     1      11.809   2.577   8.168  0.00  0.00    +0.092 A 
ATOM      9  C   UNL     1      10.670   1.787   8.158  0.00  0.00    +0.143 A 
ATOM     10  O   UNL     1      10.356   1.042   7.076  0.00  0.00    -0.422 OA
ATOM     11  C   UNL     1       9.259   0.269   7.052  0.00  0.00    +0.341 A 
ATOM     12  O   UNL     1       9.019  -0.389   6.055  0.00  0.00    -0.245 OA
ATOM     13  C   UNL     1       8.376   0.202   8.148  0.00  0.00    +0.049 A 
BRANCH   7  14
ATOM     14  O   UNL     1      13.228   4.106   9.298  0.00  0.00    -0.488 OA
BRANCH  14  15
ATOM     15  C   UNL     1      13.485   4.861  10.484  0.00  0.00    +0.259 C 
BRANCH  15  16
ATOM     16  C   UNL     1      14.756   5.652  10.310  0.00  0.00    -0.043 C 
ATOM     17  C   UNL     1      15.430   5.571   9.190  0.00  0.00    +0.011 C 
ATOM     18  C   UNL     1      15.251   6.537  11.425  0.00  0.00    +0.042 C 
ENDBRANCH  15  16
ENDBRANCH  14  15
ENDBRANCH   7  14
ENDBRANCH   1  13
BRANCH   1  19
ATOM     19  C   UNL     1       5.996   0.120   7.528  0.00  0.00    +0.218 C 
ATOM     20  O   UNL     1       6.151   1.283   7.220  0.00  0.00    -0.275 OA
ATOM     21  N   UNL     1       4.790  -0.463   7.376  0.00  0.00    -0.315 N 
ATOM     22  H   UNL     1       4.666  -1.393   7.622  0.00  0.00    +0.149 HD
BRANCH  21  23
ATOM     23  C   UNL     1       3.666   0.309   6.840  0.00  0.00    +0.109 C 
BRANCH  23  24
ATOM     24  C   UNL     1       2.423  -0.581   6.771  0.00  0.00    +0.056 C 
BRANCH  24  25
ATOM     25  C   UNL     1       1.267   0.213   6.218  0.00  0.00    -0.021 A 
ATOM     26  C   UNL     1       0.330   0.857   6.930  0.00  0.00    +0.087 A 
ATOM     27  N   UNL     1      -0.559   1.468   6.085  0.00  0.00    -0.360 N 
ATOM     28  H   UNL     1      -1.324   1.994   6.367  0.00  0.00    +0.165 HD
ATOM     29  C   UNL     1      -0.205   1.224   4.777  0.00  0.00    +0.050 A 
ATOM     30  C   UNL     1       0.954   0.427   4.803  0.00  0.00    +0.003 A 
ATOM     31  C   UNL     1       1.547   0.019   3.607  0.00  0.00    +0.014 A 
ATOM     32  C   UNL     1       0.999   0.394   2.413  0.00  0.00    +0.046 A 
ATOM     33  C   UNL     1      -0.149   1.182   2.380  0.00  0.00    +0.122 A 
ATOM     34  C   UNL     1      -0.747   1.601   3.554  0.00  0.00    +0.071 A 
BRANCH  33  35
ATOM     35  O   UNL     1      -0.682   1.547   1.184  0.00  0.00    -0.495 OA
ATOM     36  C   UNL     1      -0.013   1.086   0.008  0.00  0.00    +0.277 C 
ENDBRANCH  33  35
ENDBRANCH  24  25
ENDBRANCH  23  24
ENDBRANCH  21  23
ENDBRANCH   1  19
TORSDOF 9
