REMARK  Name = ZINC20833009
REMARK  7 active torsions:
REMARK  status: ('A' for Active; 'I' for Inactive)
REMARK    1  A    between atoms: C_7  and  C_11
REMARK    2  A    between atoms: N_12  and  N_13
REMARK    3  A    between atoms: C_16  and  S_19
REMARK    4  A    between atoms: S_19  and  C_20
REMARK    5  A    between atoms: C_20  and  C_21
REMARK    6  A    between atoms: N_23  and  C_24
REMARK    7  A    between atoms: N_23  and  C_30
REMARK                            x       y       z     vdW  Elec       q    Type
REMARK                         _______ _______ _______ _____ _____    ______ ____
ROOT
ATOM      1  N   UNL     1      -4.837   1.767  -0.118  0.00  0.00    -0.205 N 
ATOM      2  C   UNL     1      -5.882   2.678  -0.088  0.00  0.00    +0.232 A 
ATOM      3  N   UNL     1      -7.214   2.373  -0.066  0.00  0.00    -0.186 NA
ATOM      4  C   UNL     1      -7.916   3.545  -0.038  0.00  0.00    +0.211 A 
ATOM      5  N   UNL     1      -7.054   4.533  -0.043  0.00  0.00    -0.144 NA
ATOM      6  N   UNL     1      -5.765   3.984  -0.069  0.00  0.00    -0.245 N 
ATOM      7  H   UNL     1      -5.048   0.687  -0.127  0.00  0.00    +0.177 HD
ATOM      8  H   UNL     1      -4.768   4.447  -0.076  0.00  0.00    +0.192 HD
ENDROOT
BRANCH   1  10
ATOM      9  C   UNL     1      -2.533   1.367  -0.167  0.00  0.00    +0.140 C 
ATOM     10  N   UNL     1      -3.511   2.221  -0.139  0.00  0.00    -0.187 NA
BRANCH   9  17
ATOM     11  C   UNL     1      -0.626   5.635  -0.153  0.00  0.00    +0.001 A 
ATOM     12  C   UNL     1       0.761   5.600  -0.186  0.00  0.00    +0.002 A 
ATOM     13  C   UNL     1       1.432   4.397  -0.216  0.00  0.00    +0.026 A 
ATOM     14  C   UNL     1       0.714   3.204  -0.213  0.00  0.00    +0.047 A 
ATOM     15  C   UNL     1      -0.689   3.248  -0.178  0.00  0.00    +0.008 A 
ATOM     16  C   UNL     1      -1.349   4.475  -0.148  0.00  0.00    +0.010 A 
ATOM     17  C   UNL     1      -1.140   1.845  -0.189  0.00  0.00    +0.020 A 
ATOM     18  C   UNL     1      -0.018   1.077  -0.219  0.00  0.00    +0.093 A 
ATOM     19  N   UNL     1       1.087   1.878  -0.237  0.00  0.00    -0.360 N 
ATOM     20  H   UNL     1       2.153   1.606  -0.266  0.00  0.00    +0.165 HD
ENDBRANCH   9  17
ENDBRANCH   1  10
BRANCH   4  21
ATOM     21  S   UNL     1      -9.670   3.701  -0.002  0.00  0.00    -0.075 S 
BRANCH  21  22
ATOM     22  C   UNL     1      -9.951   5.493   0.024  0.00  0.00    +0.173 C 
BRANCH  22  23
ATOM     23  C   UNL     1     -11.432   5.769   0.056  0.00  0.00    +0.226 C 
ATOM     24  O   UNL     1     -12.222   4.853  -0.039  0.00  0.00    -0.275 OA
ATOM     25  N   UNL     1     -11.879   7.033   0.192  0.00  0.00    -0.295 N 
BRANCH  25  26
ATOM     26  C   UNL     1     -13.314   7.291   0.337  0.00  0.00    +0.076 C 
ATOM     27  C   UNL     1     -13.836   6.579   1.587  0.00  0.00    +0.022 C 
ATOM     28  C   UNL     1     -15.334   6.848   1.739  0.00  0.00    +0.002 C 
ATOM     29  C   UNL     1     -16.074   6.324   0.506  0.00  0.00    +0.000 C 
ATOM     30  C   UNL     1     -15.552   7.037  -0.743  0.00  0.00    +0.002 C 
ATOM     31  C   UNL     1     -14.054   6.767  -0.895  0.00  0.00    +0.022 C 
ENDBRANCH  25  26
BRANCH  25  32
ATOM     32  C   UNL     1     -10.930   8.149   0.193  0.00  0.00    +0.076 C 
ATOM     33  C   UNL     1     -10.970   8.851   1.552  0.00  0.00    +0.022 C 
ATOM     34  C   UNL     1      -9.979  10.016   1.554  0.00  0.00    +0.002 C 
ATOM     35  C   UNL     1     -10.360  11.011   0.456  0.00  0.00    +0.000 C 
ATOM     36  C   UNL     1     -10.321  10.310  -0.904  0.00  0.00    +0.002 C 
ATOM     37  C   UNL     1     -11.312   9.144  -0.905  0.00  0.00    +0.022 C 
ENDBRANCH  25  32
ENDBRANCH  22  23
ENDBRANCH  21  22
ENDBRANCH   4  21
TORSDOF 7
