REMARK  Name = ZINC09409618
REMARK  7 active torsions:
REMARK  status: ('A' for Active; 'I' for Inactive)
REMARK    1  A    between atoms: C_1  and  C_2
REMARK    2  A    between atoms: C_3  and  C_24
REMARK    3  A    between atoms: C_4  and  C_8
REMARK    4  A    between atoms: C_11  and  O_15
REMARK    5  A    between atoms: C_13  and  O_14
REMARK    6  A    between atoms: O_15  and  C_16
REMARK    7  A    between atoms: C_16  and  C_17
REMARK                            x       y       z     vdW  Elec       q    Type
REMARK                         _______ _______ _______ _____ _____    ______ ____
ROOT
ATOM      1  C   UNL     1      -0.018   1.503   0.010  0.00  0.00    +0.068 C 
ATOM      2  C   UNL     1       0.002  -0.004   0.002  0.00  0.00    +0.068 A 
ATOM      3  C   UNL     1       0.008  -0.819  -1.144  0.00  0.00    +0.030 A 
ATOM      4  C   UNL     1       0.028  -2.138  -0.712  0.00  0.00    +0.077 A 
ATOM      5  N   UNL     1       0.034  -2.111   0.651  0.00  0.00    -0.276 N 
ATOM      6  H   UNL     1       0.048  -2.885   1.236  0.00  0.00    +0.189 HD
ATOM      7  N   UNL     1       0.023  -0.772   1.058  0.00  0.00    -0.178 NA
ENDROOT
BRANCH   3   8
ATOM      8  C   UNL     1      -0.006  -0.355  -2.552  0.00  0.00    -0.010 A 
ATOM      9  C   UNL     1      -1.102  -0.631  -3.368  0.00  0.00    +0.012 A 
ATOM     10  C   UNL     1      -1.113  -0.199  -4.678  0.00  0.00    +0.050 A 
ATOM     11  C   UNL     1      -0.034   0.511  -5.189  0.00  0.00    +0.162 A 
ATOM     12  C   UNL     1       1.061   0.791  -4.379  0.00  0.00    +0.163 A 
ATOM     13  C   UNL     1       1.074   0.363  -3.062  0.00  0.00    +0.058 A 
ATOM     14  O   UNL     1       2.123   1.493  -4.862  0.00  0.00    -0.485 OA
ATOM     15  C   UNL     1       2.238   1.588  -6.286  0.00  0.00    +0.270 C 
ATOM     16  C   UNL     1       0.861   1.953  -6.856  0.00  0.00    +0.270 C 
ATOM     17  O   UNL     1      -0.064   0.924  -6.486  0.00  0.00    -0.485 OA
ENDBRANCH   3   8
BRANCH   4  18
ATOM     18  C   UNL     1       0.040  -3.342  -1.567  0.00  0.00    +0.042 A 
ATOM     19  C   UNL     1      -1.045  -4.221  -1.555  0.00  0.00    +0.017 A 
ATOM     20  C   UNL     1      -1.030  -5.344  -2.354  0.00  0.00    +0.046 A 
ATOM     21  C   UNL     1       0.062  -5.605  -3.173  0.00  0.00    +0.124 A 
ATOM     22  C   UNL     1       1.145  -4.738  -3.192  0.00  0.00    +0.091 A 
ATOM     23  C   UNL     1       1.138  -3.604  -2.397  0.00  0.00    +0.129 A 
BRANCH  23  24
ATOM     24  O   UNL     1       2.195  -2.751  -2.419  0.00  0.00    -0.506 OA
ATOM     25  H   UNL     1       2.884  -2.962  -1.774  0.00  0.00    +0.292 HD
ENDBRANCH  23  24
BRANCH  21  26
ATOM     26  O   UNL     1       0.070  -6.714  -3.957  0.00  0.00    -0.487 OA
BRANCH  26  27
ATOM     27  C   UNL     1      -1.077  -7.565  -3.889  0.00  0.00    +0.264 C 
BRANCH  27  28
ATOM     28  C   UNL     1      -0.890  -8.735  -4.821  0.00  0.00    -0.010 A 
ATOM     29  C   UNL     1      -1.313  -8.647  -6.134  0.00  0.00    +0.008 A 
ATOM     30  C   UNL     1      -1.142  -9.719  -6.989  0.00  0.00    +0.015 A 
ATOM     31  C   UNL     1      -0.547 -10.880  -6.530  0.00  0.00    +0.018 A 
ATOM     32  C   UNL     1      -0.123 -10.968  -5.216  0.00  0.00    +0.015 A 
ATOM     33  C   UNL     1      -0.290  -9.893  -4.364  0.00  0.00    +0.008 A 
ATOM     34 BR   UNL     1      -0.312 -12.348  -7.699  0.00  0.00    -0.050 Br
ENDBRANCH  27  28
ENDBRANCH  26  27
ENDBRANCH  21  26
ENDBRANCH   4  18
TORSDOF 6
