REMARK  Name = ZINC11847059
REMARK  10 active torsions:
REMARK  status: ('A' for Active; 'I' for Inactive)
REMARK    1  A    between atoms: C_1  and  C_2
REMARK    2  A    between atoms: C_4  and  S_10
REMARK    3  A    between atoms: C_7  and  O_8
REMARK    4  A    between atoms: O_8  and  C_9
REMARK    5  A    between atoms: S_10  and  N_13
REMARK    6  A    between atoms: N_13  and  C_14
REMARK    7  A    between atoms: C_14  and  C_15
REMARK    8  A    between atoms: C_15  and  C_17
REMARK    9  A    between atoms: C_15  and  N_60
REMARK   10  A    between atoms: N_21  and  C_22
REMARK                            x       y       z     vdW  Elec       q    Type
REMARK                         _______ _______ _______ _____ _____    ______ ____
ROOT
ATOM      1  C   UNL     1      -4.362   3.564  -3.583  0.00  0.00    -0.004 C 
ENDROOT
BRANCH   1  11
ATOM      2  C   UNL     1      -5.081   5.820  -3.062  0.00  0.00    -0.073 C 
ATOM      3  C   UNL     1      -6.346   6.644  -2.823  0.00  0.00    +0.017 C 
ATOM      4  C   UNL     1      -7.064   6.141  -1.597  0.00  0.00    -0.048 A 
ATOM      5  C   UNL     1      -8.021   6.956  -1.011  0.00  0.00    +0.004 A 
ATOM      6  C   UNL     1      -8.705   6.532   0.111  0.00  0.00    +0.000 A 
ATOM      7  C   UNL     1      -8.434   5.289   0.653  0.00  0.00    +0.000 A 
ATOM      8  C   UNL     1      -7.480   4.479   0.072  0.00  0.00    +0.002 A 
ATOM      9  C   UNL     1      -6.791   4.904  -1.055  0.00  0.00    -0.061 A 
ATOM     10  C   UNL     1      -5.756   3.986  -1.651  0.00  0.00    -0.042 C 
ATOM     11  N   UNL     1      -5.460   4.393  -3.035  0.00  0.00    +0.389 N 
ATOM     12  H   UNL     1      -6.299   4.258  -3.611  0.00  0.00    -0.080 HD
ENDBRANCH   1  11
BRANCH   1  13
ATOM     13  C   UNL     1      -4.884   2.177  -3.852  0.00  0.00    +0.006 A 
ATOM     14  C   UNL     1      -6.155   1.762  -3.675  0.00  0.00    +0.021 A 
ATOM     15  C   UNL     1      -6.211   0.404  -4.047  0.00  0.00    +0.019 A 
ATOM     16  C   UNL     1      -4.971   0.039  -4.429  0.00  0.00    +0.085 A 
ATOM     17  N   UNL     1      -4.152   1.123  -4.312  0.00  0.00    -0.355 N 
ATOM     18  C   UNL     1      -2.721   1.150  -4.627  0.00  0.00    +0.148 C 
ENDBRANCH   1  13
BRANCH   1  19
ATOM     19  C   UNL     1      -3.205   3.489  -2.584  0.00  0.00    +0.096 C 
BRANCH  19  20
ATOM     20  N   UNL     1      -2.667   4.833  -2.357  0.00  0.00    -0.191 NA
ATOM     21  H   UNL     1      -2.847   5.541  -2.995  0.00  0.00    +0.148 HD
BRANCH  20  22
ATOM     22  S   UNL     1      -1.752   5.142  -1.013  0.00  0.00    +0.058 S 
ATOM     23  O   UNL     1      -2.469   4.618   0.096  0.00  0.00    -0.153 OA
ATOM     24  O   UNL     1      -1.362   6.507  -1.092  0.00  0.00    -0.153 OA
BRANCH  22  28
ATOM     25  C   UNL     1       3.199   4.560  -2.580  0.00  0.00    +0.047 C 
ATOM     26  C   UNL     1       1.990   3.977  -1.897  0.00  0.00    -0.007 A 
ATOM     27  C   UNL     1       0.833   4.723  -1.783  0.00  0.00    +0.035 A 
ATOM     28  C   UNL     1      -0.277   4.188  -1.156  0.00  0.00    +0.106 A 
ATOM     29  C   UNL     1      -0.234   2.904  -0.644  0.00  0.00    +0.032 A 
ATOM     30  C   UNL     1       0.922   2.156  -0.751  0.00  0.00    +0.048 A 
ATOM     31  C   UNL     1       2.038   2.690  -1.380  0.00  0.00    +0.123 A 
BRANCH  31  32
ATOM     32  O   UNL     1       3.175   1.954  -1.491  0.00  0.00    -0.495 OA
ATOM     33  C   UNL     1       3.152   0.637  -0.936  0.00  0.00    +0.277 C 
ENDBRANCH  31  32
ENDBRANCH  22  28
ENDBRANCH  20  22
ENDBRANCH  19  20
ENDBRANCH   1  19
TORSDOF 7
