REMARK  Name = ZINC15675592
REMARK  7 active torsions:
REMARK  status: ('A' for Active; 'I' for Inactive)
REMARK    1  A    between atoms: C_5  and  C_7
REMARK    2  A    between atoms: C_10  and  C_13
REMARK    3  A    between atoms: C_13  and  N_14
REMARK    4  A    between atoms: C_23  and  C_25
REMARK    5  A    between atoms: C_27  and  C_30
REMARK    6  A    between atoms: C_33  and  O_36
REMARK    7  A    between atoms: O_36  and  C_37
REMARK                            x       y       z     vdW  Elec       q    Type
REMARK                         _______ _______ _______ _____ _____    ______ ____
ROOT
ATOM      1  N   UNL     1       1.379  -6.904  -1.432  0.00  0.00    -0.281 NA
ATOM      2  C   UNL     1       0.117  -6.568  -2.113  0.00  0.00    +0.140 C 
ATOM      3  C   UNL     1       0.144  -7.180  -3.491  0.00  0.00    +0.051 A 
ATOM      4  C   UNL     1       1.009  -8.155  -3.853  0.00  0.00    +0.040 A 
ATOM      5  N   UNL     1       0.751  -8.459  -5.151  0.00  0.00    -0.349 N 
ATOM      6  H   UNL     1       1.209  -9.122  -5.691  0.00  0.00    +0.166 HD
ATOM      7  C   UNL     1      -0.268  -7.661  -5.549  0.00  0.00    +0.171 A 
ATOM      8  N   UNL     1      -0.623  -6.900  -4.545  0.00  0.00    -0.349 N 
ATOM      9  C   UNL     1       2.036  -8.743  -2.920  0.00  0.00    +0.083 C 
ATOM     10  C   UNL     1       1.653  -8.347  -1.487  0.00  0.00    +0.152 C 
ATOM     11  H   UNL     1      -1.331  -6.237  -4.565  0.00  0.00    +0.166 HD
ENDROOT
BRANCH  10  12
ATOM     12  C   UNL     1       2.789  -8.677  -0.554  0.00  0.00    +0.245 A 
ATOM     13  N   UNL     1       2.825  -9.681   0.275  0.00  0.00    -0.190 NA
ATOM     14  C   UNL     1       3.987  -9.677   0.953  0.00  0.00    +0.202 A 
ATOM     15  N   UNL     1       4.703  -8.656   0.551  0.00  0.00    -0.056 NA
ATOM     16  O   UNL     1       3.934  -7.992  -0.441  0.00  0.00    -0.336 OA
BRANCH  14  17
ATOM     17  C   UNL     1       4.391 -10.665   1.984  0.00  0.00    +0.023 A 
ATOM     18  C   UNL     1       3.536 -11.714   2.319  0.00  0.00    +0.015 A 
ATOM     19  C   UNL     1       3.914 -12.630   3.277  0.00  0.00    +0.046 A 
ATOM     20  C   UNL     1       5.145 -12.508   3.909  0.00  0.00    +0.130 A 
ATOM     21  C   UNL     1       5.998 -11.463   3.578  0.00  0.00    +0.046 A 
ATOM     22  C   UNL     1       5.628 -10.548   2.616  0.00  0.00    +0.015 A 
BRANCH  20  23
ATOM     23  O   UNL     1       5.514 -13.412   4.853  0.00  0.00    -0.406 OA
BRANCH  23  24
ATOM     24  C   UNL     1       6.793 -13.227   5.463  0.00  0.00    +0.575 C 
ATOM     25  F   UNL     1       6.830 -11.981   6.100  0.00  0.00    -0.133 F 
ATOM     26  F   UNL     1       7.012 -14.238   6.404  0.00  0.00    -0.133 F 
ATOM     27  F   UNL     1       7.790 -13.279   4.482  0.00  0.00    -0.133 F 
ENDBRANCH  23  24
ENDBRANCH  20  23
ENDBRANCH  14  17
ENDBRANCH  10  12
BRANCH   1  28
ATOM     28  C   UNL     1       1.373  -6.421  -0.045  0.00  0.00    +0.120 C 
BRANCH  28  32
ATOM     29  C   UNL     1       1.266  -2.147  -0.022  0.00  0.00    +0.000 A 
ATOM     30  C   UNL     1       0.079  -2.877  -0.020  0.00  0.00    +0.010 A 
ATOM     31  C   UNL     1       0.119  -4.256  -0.028  0.00  0.00    +0.005 A 
ATOM     32  C   UNL     1       1.335  -4.915  -0.037  0.00  0.00    -0.033 A 
ATOM     33  C   UNL     1       2.517  -4.196  -0.039  0.00  0.00    +0.005 A 
ATOM     34  C   UNL     1       2.489  -2.816  -0.037  0.00  0.00    +0.010 A 
BRANCH  29  39
ATOM     35  C   UNL     1      -0.017   1.380   0.010  0.00  0.00    +0.004 A 
ATOM     36  C   UNL     1       1.194   2.059   0.002  0.00  0.00    +0.020 A 
ATOM     37  C   UNL     1       2.374   1.340  -0.013  0.00  0.00    +0.111 A 
ATOM     38  N   UNL     1       2.364   0.022  -0.020  0.00  0.00    -0.255 NA
ATOM     39  C   UNL     1       1.229  -0.664  -0.013  0.00  0.00    +0.071 A 
ATOM     40  C   UNL     1       0.002  -0.004   0.002  0.00  0.00    +0.028 A 
ENDBRANCH  29  39
ENDBRANCH  28  32
ENDBRANCH   1  28
TORSDOF 7
