REMARK  Name = ZINC59166043
REMARK  8 active torsions:
REMARK  status: ('A' for Active; 'I' for Inactive)
REMARK    1  A    between atoms: C_1  and  C_2
REMARK    2  A    between atoms: C_5  and  S_8
REMARK    3  A    between atoms: S_8  and  O_11
REMARK    4  A    between atoms: O_11  and  C_12
REMARK    5  A    between atoms: C_15  and  C_18
REMARK    6  A    between atoms: N_19  and  N_20
REMARK    7  A    between atoms: C_21  and  C_23
REMARK    8  A    between atoms: C_32  and  O_33
REMARK                            x       y       z     vdW  Elec       q    Type
REMARK                         _______ _______ _______ _____ _____    ______ ____
ROOT
ATOM      1  C   UNL     1       4.110  -4.363   4.901  0.00  0.00    +0.138 C 
ATOM      2  N   UNL     1       4.108  -5.338   5.757  0.00  0.00    -0.187 NA
ENDROOT
BRANCH   1   6
ATOM      3  C   UNL     1       2.150  -4.816   1.163  0.00  0.00    +0.157 A 
ATOM      4  C   UNL     1       2.793  -3.623   1.467  0.00  0.00    +0.049 A 
ATOM      5  C   UNL     1       3.430  -3.472   2.679  0.00  0.00    +0.013 A 
ATOM      6  C   UNL     1       3.429  -4.520   3.603  0.00  0.00    -0.005 A 
ATOM      7  C   UNL     1       2.781  -5.719   3.292  0.00  0.00    +0.013 A 
ATOM      8  C   UNL     1       2.142  -5.860   2.080  0.00  0.00    +0.049 A 
BRANCH   3   9
ATOM      9  O   UNL     1       1.522  -4.962  -0.033  0.00  0.00    -0.342 OA
BRANCH   9  10
ATOM     10  S   UNL     1       0.063  -4.530  -0.023  0.00  0.00    +0.151 S 
ATOM     11  O   UNL     1      -0.476  -4.950   1.223  0.00  0.00    -0.131 OA
ATOM     12  O   UNL     1      -0.490  -4.937  -1.267  0.00  0.00    -0.131 OA
BRANCH  10  17
ATOM     13  C   UNL     1      -0.018   1.503   0.010  0.00  0.00    +0.044 C 
ATOM     14  C   UNL     1       0.002  -0.004   0.002  0.00  0.00    -0.050 A 
ATOM     15  C   UNL     1       0.006  -0.689  -1.199  0.00  0.00    +0.005 A 
ATOM     16  C   UNL     1       0.025  -2.071  -1.206  0.00  0.00    +0.031 A 
ATOM     17  C   UNL     1       0.040  -2.768  -0.013  0.00  0.00    +0.128 A 
ATOM     18  C   UNL     1       0.037  -2.084   1.188  0.00  0.00    +0.031 A 
ATOM     19  C   UNL     1       0.023  -0.702   1.195  0.00  0.00    +0.005 A 
ENDBRANCH  10  17
ENDBRANCH   9  10
ENDBRANCH   3   9
ENDBRANCH   1   6
BRANCH   2  20
ATOM     20  N   UNL     1       4.755  -5.189   6.991  0.00  0.00    -0.203 N 
ATOM     21  C   UNL     1       4.753  -6.202   7.880  0.00  0.00    +0.267 C 
ATOM     22  O   UNL     1       4.190  -7.245   7.612  0.00  0.00    -0.268 OA
ATOM     23  H   UNL     1       5.205  -4.356   7.205  0.00  0.00    +0.178 HD
BRANCH  21  24
ATOM     24  C   UNL     1       5.435  -6.044   9.179  0.00  0.00    +0.080 A 
ATOM     25  C   UNL     1       6.071  -4.851   9.483  0.00  0.00    +0.025 A 
ATOM     26  C   UNL     1       6.717  -4.707  10.719  0.00  0.00    -0.017 A 
ATOM     27  C   UNL     1       7.372  -3.510  11.060  0.00  0.00    +0.008 A 
ATOM     28  C   UNL     1       7.990  -3.401  12.268  0.00  0.00    +0.001 A 
ATOM     29  C   UNL     1       7.984  -4.459  13.175  0.00  0.00    +0.001 A 
ATOM     30  C   UNL     1       7.361  -5.633  12.880  0.00  0.00    +0.008 A 
ATOM     31  C   UNL     1       6.711  -5.785  11.642  0.00  0.00    -0.014 A 
ATOM     32  C   UNL     1       6.059  -6.984  11.310  0.00  0.00    +0.054 A 
ATOM     33  C   UNL     1       5.430  -7.107  10.107  0.00  0.00    +0.130 A 
BRANCH  33  34
ATOM     34  O   UNL     1       4.797  -8.267   9.796  0.00  0.00    -0.506 OA
ATOM     35  H   UNL     1       5.361  -8.916   9.352  0.00  0.00    +0.292 HD
ENDBRANCH  33  34
ENDBRANCH  21  24
ENDBRANCH   2  20
TORSDOF 7
