REMARK  Name = ZINC20203726
REMARK  7 active torsions:
REMARK  status: ('A' for Active; 'I' for Inactive)
REMARK    1  A    between atoms: C_1  and  C_2
REMARK    2  A    between atoms: C_4  and  C_16
REMARK    3  A    between atoms: C_7  and  N_8
REMARK    4  A    between atoms: C_9  and  C_11
REMARK    5  A    between atoms: C_11  and  C_13
REMARK    6  A    between atoms: C_16  and  C_18
REMARK    7  A    between atoms: C_16  and  C_20
REMARK                            x       y       z     vdW  Elec       q    Type
REMARK                         _______ _______ _______ _____ _____    ______ ____
ROOT
ATOM      1  C   UNL     1      -0.307   0.630   1.187  0.00  0.00    +0.045 C 
ATOM      2  C   UNL     1       0.028  -0.775   0.760  0.00  0.00    -0.029 A 
ATOM      3  C   UNL     1      -0.105  -1.146  -0.564  0.00  0.00    +0.011 A 
ATOM      4  C   UNL     1       0.202  -2.435  -0.957  0.00  0.00    -0.008 A 
ATOM      5  C   UNL     1       0.644  -3.359  -0.026  0.00  0.00    +0.047 A 
ATOM      6  C   UNL     1       0.779  -2.994   1.300  0.00  0.00    +0.044 A 
ATOM      7  C   UNL     1       0.476  -1.698   1.696  0.00  0.00    +0.038 A 
ATOM      8 CL   UNL     1       1.028  -4.977  -0.523  0.00  0.00    -0.083 Cl
ENDROOT
BRANCH   7   9
ATOM      9  N   UNL     1       0.617  -1.323   3.037  0.00  0.00    -0.284 N 
ATOM     10  C   UNL     1       0.443  -2.236   4.013  0.00  0.00    +0.235 C 
ATOM     11  O   UNL     1       0.247  -3.398   3.729  0.00  0.00    -0.274 OA
ATOM     12  H   UNL     1       0.840  -0.407   3.264  0.00  0.00    +0.155 HD
BRANCH  10  13
ATOM     13  C   UNL     1       0.494  -1.812   5.459  0.00  0.00    +0.163 C 
ATOM     14  C   UNL     1       1.344  -2.806   6.252  0.00  0.00    +0.034 C 
ATOM     15 CL   UNL     1      -1.178  -1.778   6.134  0.00  0.00    -0.112 Cl
ENDBRANCH  10  13
ENDBRANCH   7   9
BRANCH   4  16
ATOM     16  C   UNL     1       0.055  -2.836  -2.402  0.00  0.00    +0.153 C 
BRANCH  16  17
ATOM     17  C   UNL     1      -1.401  -2.791  -2.791  0.00  0.00    -0.026 A 
ATOM     18  C   UNL     1      -2.057  -1.577  -2.872  0.00  0.00    +0.006 A 
ATOM     19  C   UNL     1      -3.391  -1.534  -3.228  0.00  0.00    +0.020 A 
ATOM     20  C   UNL     1      -4.071  -2.708  -3.503  0.00  0.00    +0.041 A 
ATOM     21  C   UNL     1      -3.414  -3.922  -3.421  0.00  0.00    +0.020 A 
ATOM     22  C   UNL     1      -2.078  -3.963  -3.071  0.00  0.00    +0.006 A 
ATOM     23 CL   UNL     1      -5.748  -2.655  -3.950  0.00  0.00    -0.084 Cl
ENDBRANCH  16  17
BRANCH  16  24
ATOM     24  C   UNL     1       0.818  -1.906  -3.250  0.00  0.00    +0.075 C 
ATOM     25  N   UNL     1       1.407  -1.188  -3.904  0.00  0.00    -0.196 NA
ENDBRANCH  16  24
ENDBRANCH   4  16
TORSDOF 5
