REMARK  Name = ZINC04867030
REMARK  9 active torsions:
REMARK  status: ('A' for Active; 'I' for Inactive)
REMARK    1  A    between atoms: C_1  and  C_2
REMARK    2  A    between atoms: C_2  and  N_3
REMARK    3  A    between atoms: N_3  and  C_4
REMARK    4  A    between atoms: N_3  and  C_6
REMARK    5  A    between atoms: C_4  and  C_5
REMARK    6  A    between atoms: C_9  and  C_13
REMARK    7  A    between atoms: C_10  and  O_12
REMARK    8  A    between atoms: N_14  and  N_15
REMARK    9  A    between atoms: N_15  and  C_16
REMARK                            x       y       z     vdW  Elec       q    Type
REMARK                         _______ _______ _______ _____ _____    ______ ____
ROOT
ATOM      1  C   UNL     1       1.181   1.786   0.000  0.00  0.00    +0.033 A 
ATOM      2  C   UNL     1       1.168   3.178   0.008  0.00  0.00    +0.024 A 
ATOM      3  C   UNL     1      -0.029   3.859   0.024  0.00  0.00    +0.015 A 
ATOM      4  C   UNL     1      -1.234   3.153   0.031  0.00  0.00    +0.036 A 
ATOM      5  C   UNL     1      -1.220   1.751   0.017  0.00  0.00    +0.127 A 
ATOM      6  C   UNL     1      -0.013   1.076   0.008  0.00  0.00    +0.069 A 
ENDROOT
BRANCH   5   7
ATOM      7  O   UNL     1      -2.388   1.057   0.019  0.00  0.00    -0.506 OA
ATOM      8  H   UNL     1      -2.722   0.852   0.902  0.00  0.00    +0.292 HD
ENDBRANCH   5   7
BRANCH   4   9
ATOM      9  C   UNL     1      -2.517   3.879   0.048  0.00  0.00    +0.141 C 
ATOM     10  N   UNL     1      -3.636   3.220   0.055  0.00  0.00    -0.190 NA
BRANCH  10  11
ATOM     11  N   UNL     1      -4.855   3.910   0.071  0.00  0.00    -0.238 N 
ATOM     12  H   UNL     1      -4.863   4.880   0.076  0.00  0.00    +0.174 HD
BRANCH  11  13
ATOM     13  C   UNL     1      -6.057   3.202   0.079  0.00  0.00    +0.048 A 
ATOM     14  C   UNL     1      -6.047   1.812   0.065  0.00  0.00    +0.026 A 
ATOM     15  C   UNL     1      -7.239   1.115   0.078  0.00  0.00    +0.022 A 
ATOM     16  C   UNL     1      -8.442   1.798   0.093  0.00  0.00    +0.041 A 
ATOM     17  C   UNL     1      -8.456   3.182   0.101  0.00  0.00    +0.022 A 
ATOM     18  C   UNL     1      -7.268   3.885   0.094  0.00  0.00    +0.026 A 
ATOM     19 CL   UNL     1      -9.938   0.917   0.103  0.00  0.00    -0.084 Cl
ENDBRANCH  11  13
ENDBRANCH  10  11
ENDBRANCH   4   9
BRANCH   1  20
ATOM     20  N   UNL     1       2.397   1.103  -0.015  0.00  0.00    -0.330 N 
BRANCH  20  22
ATOM     21  C   UNL     1       4.110   2.101   1.416  0.00  0.00    +0.024 C 
ATOM     22  C   UNL     1       3.658   1.849  -0.023  0.00  0.00    +0.102 C 
ENDBRANCH  20  22
BRANCH  20  23
ATOM     23  C   UNL     1       2.414  -0.362  -0.024  0.00  0.00    +0.102 C 
ATOM     24  C   UNL     1       2.406  -0.864  -1.469  0.00  0.00    +0.024 C 
ENDBRANCH  20  23
ENDBRANCH   1  20
TORSDOF 7
