REMARK  Name = ZINC41366611
REMARK  7 active torsions:
REMARK  status: ('A' for Active; 'I' for Inactive)
REMARK    1  A    between atoms: C_1  and  C_2
REMARK    2  A    between atoms: C_2  and  C_3
REMARK    3  A    between atoms: C_6  and  S_8
REMARK    4  A    between atoms: S_8  and  N_11
REMARK    5  A    between atoms: N_11  and  C_12
REMARK    6  A    between atoms: N_11  and  C_19
REMARK    7  A    between atoms: C_12  and  C_13
REMARK                            x       y       z     vdW  Elec       q    Type
REMARK                         _______ _______ _______ _____ _____    ______ ____
ROOT
ATOM      1  N   UNL     1       3.866  -3.584   4.004  0.00  0.00    -0.198 N 
ENDROOT
BRANCH   1   2
ATOM      2  C   UNL     1       3.215  -4.500   4.834  0.00  0.00    +0.052 A 
ATOM      3  C   UNL     1       3.808  -5.722   5.122  0.00  0.00    +0.025 A 
ATOM      4  C   UNL     1       3.162  -6.625   5.943  0.00  0.00    +0.002 A 
ATOM      5  C   UNL     1       1.925  -6.314   6.477  0.00  0.00    +0.000 A 
ATOM      6  C   UNL     1       1.331  -5.098   6.192  0.00  0.00    +0.002 A 
ATOM      7  C   UNL     1       1.975  -4.188   5.377  0.00  0.00    +0.025 A 
ENDBRANCH   1   2
BRANCH   1   8
ATOM      8  S   UNL     1       4.233  -2.071   4.569  0.00  0.00    +0.081 S 
ATOM      9  O   UNL     1       5.321  -1.598   3.787  0.00  0.00    -0.149 OA
ATOM     10  O   UNL     1       4.299  -2.170   5.985  0.00  0.00    -0.149 OA
BRANCH   8  14
ATOM     11  C   UNL     1       0.982   0.646   3.232  0.00  0.00    -0.009 A 
ATOM     12  C   UNL     1       0.799   0.091   4.456  0.00  0.00    +0.013 A 
ATOM     13  C   UNL     1       1.762  -0.768   4.952  0.00  0.00    +0.037 A 
ATOM     14  C   UNL     1       2.859  -1.030   4.201  0.00  0.00    +0.146 A 
ATOM     15  S   UNL     1       2.549  -0.053   2.740  0.00  0.00    -0.073 S 
BRANCH  11  17
ATOM     16  C   UNL     1       0.474   3.040   2.829  0.00  0.00    +0.009 C 
ATOM     17  C   UNL     1       0.090   1.600   2.481  0.00  0.00    +0.039 C 
ENDBRANCH  11  17
ENDBRANCH   8  14
ENDBRANCH   1   8
BRANCH   1  18
ATOM     18  C   UNL     1       4.224  -3.961   2.635  0.00  0.00    +0.168 C 
BRANCH  18  19
ATOM     19  C   UNL     1       3.027  -3.787   1.736  0.00  0.00    -0.010 A 
ATOM     20  C   UNL     1       2.066  -4.783   1.646  0.00  0.00    +0.008 A 
ATOM     21  C   UNL     1       0.982  -4.579   0.807  0.00  0.00    +0.020 A 
ATOM     22  C   UNL     1       0.896  -3.399   0.092  0.00  0.00    +0.111 A 
ATOM     23  N   UNL     1       1.829  -2.474   0.202  0.00  0.00    -0.263 NA
ATOM     24  C   UNL     1       2.871  -2.631   0.996  0.00  0.00    +0.116 A 
ENDBRANCH  18  19
ENDBRANCH   1  18
TORSDOF 6
