REMARK  Name = ZINC13521573
REMARK  7 active torsions:
REMARK  status: ('A' for Active; 'I' for Inactive)
REMARK    1  A    between atoms: C_5  and  C_7
REMARK    2  A    between atoms: N_12  and  C_28
REMARK    3  A    between atoms: C_13  and  C_20
REMARK    4  A    between atoms: C_15  and  N_17
REMARK    5  A    between atoms: C_23  and  O_27
REMARK    6  A    between atoms: C_24  and  N_26
REMARK    7  A    between atoms: C_28  and  C_29
REMARK                            x       y       z     vdW  Elec       q    Type
REMARK                         _______ _______ _______ _____ _____    ______ ____
ROOT
ATOM      1  C   UNL     1      -0.913   1.552  -1.285  0.00  0.00    +0.060 C 
ATOM      2  C   UNL     1      -0.072   1.177  -0.062  0.00  0.00    +0.106 C 
ATOM      3  C   UNL     1      -0.725   1.700   1.185  0.00  0.00    +0.217 C 
ATOM      4  O   UNL     1      -0.055   1.782   2.192  0.00  0.00    -0.276 OA
ATOM      5  N   UNL     1      -2.001   2.079   1.246  0.00  0.00    -0.288 N 
ATOM      6  C   UNL     1      -2.908   2.078   0.106  0.00  0.00    +0.136 C 
ATOM      7  C   UNL     1      -2.373   1.173  -1.004  0.00  0.00    +0.202 C 
ENDROOT
BRANCH   1  12
ATOM      8  C   UNL     1       0.033  -1.274  -3.603  0.00  0.00    +0.000 A 
ATOM      9  C   UNL     1       0.496  -0.582  -4.708  0.00  0.00    +0.001 A 
ATOM     10  C   UNL     1       0.503   0.800  -4.705  0.00  0.00    +0.015 A 
ATOM     11  C   UNL     1       0.047   1.491  -3.597  0.00  0.00    +0.021 A 
ATOM     12  C   UNL     1      -0.417   0.799  -2.493  0.00  0.00    -0.028 A 
ATOM     13  C   UNL     1      -0.418  -0.584  -2.494  0.00  0.00    +0.005 A 
ATOM     14 BR   UNL     1       0.057   3.382  -3.592  0.00  0.00    -0.050 Br
ENDBRANCH   1  12
BRANCH   6  15
ATOM     15  C   UNL     1      -4.258   1.576   0.550  0.00  0.00    -0.023 A 
ATOM     16  C   UNL     1      -4.352   0.416   1.296  0.00  0.00    +0.009 A 
ATOM     17  C   UNL     1      -5.587  -0.046   1.710  0.00  0.00    +0.047 A 
ATOM     18  C   UNL     1      -6.737   0.647   1.369  0.00  0.00    +0.137 A 
ATOM     19  C   UNL     1      -6.644   1.813   0.612  0.00  0.00    +0.067 A 
ATOM     20  C   UNL     1      -5.401   2.274   0.205  0.00  0.00    +0.032 A 
BRANCH  19  21
ATOM     21  N   UNL     1      -7.802   2.518   0.265  0.00  0.00    -0.355 N 
ATOM     22  H   UNL     1      -7.736   3.330  -0.262  0.00  0.00    +0.142 HD
ATOM     23  H   UNL     1      -8.671   2.194   0.550  0.00  0.00    +0.142 HD
ENDBRANCH  19  21
BRANCH  18  24
ATOM     24  O   UNL     1      -7.953   0.190   1.771  0.00  0.00    -0.505 OA
ATOM     25  H   UNL     1      -8.371  -0.418   1.145  0.00  0.00    +0.292 HD
ENDBRANCH  18  24
ENDBRANCH   6  15
BRANCH   7  26
ATOM     26  N   UNL     1      -3.171   1.358  -2.218  0.00  0.00    +0.028 N 
ATOM     27  O   UNL     1      -3.757   0.411  -2.712  0.00  0.00    -0.131 OA
ATOM     28  O   UNL     1      -3.249   2.459  -2.734  0.00  0.00    -0.131 OA
ENDBRANCH   7  26
BRANCH   5  29
ATOM     29  C   UNL     1      -2.524   2.525   2.540  0.00  0.00    +0.145 C 
BRANCH  29  30
ATOM     30  C   UNL     1      -2.344   4.015   2.668  0.00  0.00    -0.012 A 
ATOM     31  C   UNL     1      -1.164   4.539   3.173  0.00  0.00    +0.008 A 
ATOM     32  C   UNL     1      -1.041   5.917   3.269  0.00  0.00    +0.020 A 
ATOM     33  C   UNL     1      -2.096   6.716   2.871  0.00  0.00    +0.111 A 
ATOM     34  N   UNL     1      -3.206   6.183   2.400  0.00  0.00    -0.263 NA
ATOM     35  C   UNL     1      -3.356   4.877   2.290  0.00  0.00    +0.115 A 
ENDBRANCH  29  30
ENDBRANCH   5  29
TORSDOF 7
