REMARK  Name = ZINC12553045
REMARK  7 active torsions:
REMARK  status: ('A' for Active; 'I' for Inactive)
REMARK    1  A    between atoms: C_1  and  C_2
REMARK    2  A    between atoms: C_2  and  C_3
REMARK    3  A    between atoms: C_8  and  N_9
REMARK    4  A    between atoms: N_9  and  C_10
REMARK    5  A    between atoms: C_10  and  C_11
REMARK    6  A    between atoms: N_13  and  C_14
REMARK    7  A    between atoms: C_15  and  C_24
REMARK                            x       y       z     vdW  Elec       q    Type
REMARK                         _______ _______ _______ _____ _____    ______ ____
ROOT
ATOM      1  C   UNL     1       6.610  -2.386   1.611  0.00  0.00    +0.235 C 
ATOM      2  O   UNL     1       6.908  -1.584   0.752  0.00  0.00    -0.274 OA
ATOM      3  N   UNL     1       5.331  -2.490   2.022  0.00  0.00    -0.278 N 
ATOM      4  H   UNL     1       5.093  -3.131   2.710  0.00  0.00    +0.155 HD
ENDROOT
BRANCH   3   5
ATOM      5  C   UNL     1       4.354  -1.679   1.462  0.00  0.00    +0.090 A 
ATOM      6  C   UNL     1       3.000  -1.638   1.749  0.00  0.00    +0.084 A 
ATOM      7  C   UNL     1       2.179  -0.684   1.017  0.00  0.00    -0.018 A 
ATOM      8  C   UNL     1       2.847   0.062   0.109  0.00  0.00    -0.004 A 
ATOM      9  S   UNL     1       4.532  -0.471   0.233  0.00  0.00    -0.077 S 
ATOM     10  C   UNL     1       2.288   1.105  -0.807  0.00  0.00    +0.043 C 
ATOM     11  C   UNL     1       1.406   2.068  -0.000  0.00  0.00    +0.005 C 
ATOM     12  C   UNL     1      -0.019   1.523   0.010  0.00  0.00    +0.001 C 
ATOM     13  C   UNL     1       0.002  -0.004   0.002  0.00  0.00    +0.005 C 
ATOM     14  C   UNL     1       0.683  -0.534   1.259  0.00  0.00    +0.037 C 
BRANCH   6  15
ATOM     15  C   UNL     1       2.426  -2.506   2.733  0.00  0.00    +0.102 C 
ATOM     16  N   UNL     1       1.970  -3.194   3.514  0.00  0.00    -0.191 NA
ENDBRANCH   6  15
ENDBRANCH   3   5
BRANCH   1  17
ATOM     17  C   UNL     1       7.671  -3.267   2.220  0.00  0.00    +0.198 C 
BRANCH  17  18
ATOM     18  N   UNL     1       8.967  -2.963   1.609  0.00  0.00    -0.335 N 
ATOM     19  H   UNL     1       9.032  -2.280   0.922  0.00  0.00    +0.147 HD
BRANCH  18  25
ATOM     20  C   UNL     1      11.340  -3.370   1.435  0.00  0.00    -0.027 A 
ATOM     21  C   UNL     1      12.468  -4.058   1.839  0.00  0.00    +0.005 A 
ATOM     22  C   UNL     1      12.374  -5.030   2.817  0.00  0.00    +0.000 A 
ATOM     23  C   UNL     1      11.151  -5.318   3.396  0.00  0.00    +0.002 A 
ATOM     24  C   UNL     1      10.020  -4.631   3.000  0.00  0.00    +0.023 A 
ATOM     25  C   UNL     1      10.110  -3.657   2.014  0.00  0.00    +0.031 A 
BRANCH  20  27
ATOM     26  C   UNL     1      11.599  -0.938   1.028  0.00  0.00    +0.009 C 
ATOM     27  C   UNL     1      11.444  -2.310   0.369  0.00  0.00    +0.033 C 
ENDBRANCH  20  27
ENDBRANCH  18  25
ENDBRANCH  17  18
ENDBRANCH   1  17
TORSDOF 6
