REMARK  Name = ZINC20381374
REMARK  5 active torsions:
REMARK  status: ('A' for Active; 'I' for Inactive)
REMARK    1  A    between atoms: C_1  and  C_2
REMARK    2  A    between atoms: C_5  and  S_8
REMARK    3  A    between atoms: S_8  and  C_11
REMARK    4  A    between atoms: C_20  and  N_21
REMARK    5  A    between atoms: C_24  and  C_27
REMARK                            x       y       z     vdW  Elec       q    Type
REMARK                         _______ _______ _______ _____ _____    ______ ____
ROOT
ATOM      1  C   UNL     1      -3.628   3.117  -0.043  0.00  0.00    +0.133 A 
ATOM      2  C   UNL     1      -3.550   1.731  -0.049  0.00  0.00    +0.140 A 
ATOM      3  N   UNL     1      -2.400   1.101   0.017  0.00  0.00    -0.253 NA
ATOM      4  C   UNL     1      -1.239   1.764   0.095  0.00  0.00    +0.073 A 
ATOM      5  C   UNL     1      -0.016   1.075   0.165  0.00  0.00    +0.030 A 
ATOM      6  C   UNL     1       1.150   1.773   0.237  0.00  0.00    +0.022 A 
ATOM      7  C   UNL     1       1.153   3.167   0.248  0.00  0.00    +0.042 A 
ATOM      8  C   UNL     1      -0.015   3.868   0.187  0.00  0.00    +0.032 A 
ATOM      9  C   UNL     1      -1.234   3.179   0.112  0.00  0.00    +0.025 A 
ATOM     10  C   UNL     1      -2.467   3.870   0.047  0.00  0.00    +0.066 A 
ATOM     11 CL   UNL     1       2.662   4.020   0.340  0.00  0.00    -0.084 Cl
ENDROOT
BRANCH  10  12
ATOM     12  N   UNL     1      -2.513   5.256   0.056  0.00  0.00    -0.328 N 
ATOM     13  C   UNL     1      -1.839   5.811  -1.125  0.00  0.00    +0.106 C 
ATOM     14  C   UNL     1      -2.034   7.329  -1.158  0.00  0.00    +0.031 C 
ATOM     15  C   UNL     1      -1.453   7.941   0.119  0.00  0.00    +0.078 C 
ATOM     16  C   UNL     1      -2.137   7.310   1.335  0.00  0.00    +0.031 C 
ATOM     17  C   UNL     1      -1.939   5.793   1.296  0.00  0.00    +0.106 C 
BRANCH  15  18
ATOM     18  C   UNL     1      -1.694   9.429   0.121  0.00  0.00    +0.214 C 
ATOM     19  O   UNL     1      -2.348   9.936   1.007  0.00  0.00    -0.276 OA
ATOM     20  N   UNL     1      -1.182  10.195  -0.862  0.00  0.00    -0.329 N 
ATOM     21  H   UNL     1      -1.358  11.281  -0.861  0.00  0.00    +0.145 HD
ATOM     22  H   UNL     1      -0.589   9.735  -1.666  0.00  0.00    +0.145 HD
ENDBRANCH  15  18
ENDBRANCH  10  12
BRANCH   1  23
ATOM     23  S   UNL     1      -5.196   3.916  -0.134  0.00  0.00    +0.028 S 
ATOM     24  O   UNL     1      -5.089   4.906  -1.147  0.00  0.00    -0.164 OA
ATOM     25  O   UNL     1      -6.174   2.886  -0.176  0.00  0.00    -0.164 OA
BRANCH  23  30
ATOM     26  C   UNL     1      -6.007   6.854   5.073  0.00  0.00    +0.044 C 
ATOM     27  C   UNL     1      -5.804   6.120   3.772  0.00  0.00    -0.050 A 
ATOM     28  C   UNL     1      -5.189   6.755   2.709  0.00  0.00    +0.005 A 
ATOM     29  C   UNL     1      -5.004   6.081   1.516  0.00  0.00    +0.027 A 
ATOM     30  C   UNL     1      -5.432   4.774   1.387  0.00  0.00    +0.094 A 
ATOM     31  C   UNL     1      -6.052   4.141   2.448  0.00  0.00    +0.027 A 
ATOM     32  C   UNL     1      -6.234   4.812   3.643  0.00  0.00    +0.005 A 
ENDBRANCH  23  30
ENDBRANCH   1  23
TORSDOF 4
