REMARK  Name = ZINC01813434
REMARK  8 active torsions:
REMARK  status: ('A' for Active; 'I' for Inactive)
REMARK    1  A    between atoms: C_1  and  C_2
REMARK    2  A    between atoms: C_2  and  O_3
REMARK    3  A    between atoms: O_3  and  C_4
REMARK    4  A    between atoms: C_4  and  C_6
REMARK    5  A    between atoms: C_10  and  N_11
REMARK    6  A    between atoms: C_12  and  C_14
REMARK    7  A    between atoms: N_19  and  S_20
REMARK    8  A    between atoms: S_20  and  C_23
REMARK                            x       y       z     vdW  Elec       q    Type
REMARK                         _______ _______ _______ _____ _____    ______ ____
ROOT
ATOM      1  N   UNL     1       4.218   6.661  -0.831  0.00  0.00    -0.278 N 
ATOM      2  C   UNL     1       4.461   5.335  -0.790  0.00  0.00    +0.236 C 
ATOM      3  O   UNL     1       5.305   4.896  -0.038  0.00  0.00    -0.274 OA
ATOM      4  H   UNL     1       3.543   7.012  -1.432  0.00  0.00    +0.155 HD
ENDROOT
BRANCH   1   9
ATOM      5  C   UNL     1       4.831   8.903   0.084  0.00  0.00    +0.091 A 
ATOM      6  C   UNL     1       5.702   9.575   1.034  0.00  0.00    -0.021 A 
ATOM      7  C   UNL     1       6.537   8.766   1.722  0.00  0.00    -0.004 A 
ATOM      8  S   UNL     1       6.175   7.136   1.132  0.00  0.00    -0.077 S 
ATOM      9  C   UNL     1       4.933   7.521  -0.013  0.00  0.00    +0.086 A 
ATOM     10  C   UNL     1       7.543   9.173   2.753  0.00  0.00    +0.043 C 
ATOM     11  C   UNL     1       7.754  10.690   2.651  0.00  0.00    +0.005 C 
ATOM     12  C   UNL     1       6.386  11.376   2.599  0.00  0.00    +0.005 C 
ATOM     13  C   UNL     1       5.707  11.082   1.261  0.00  0.00    +0.037 C 
BRANCH   5  14
ATOM     14  C   UNL     1       3.879   9.654  -0.737  0.00  0.00    +0.342 C 
ATOM     15  O   UNL     1       2.753   9.861  -0.327  0.00  0.00    -0.245 OA
BRANCH  14  16
ATOM     16  O   UNL     1       4.252  10.118  -1.948  0.00  0.00    -0.461 OA
BRANCH  16  18
ATOM     17  C   UNL     1       3.858  11.296  -4.042  0.00  0.00    +0.048 C 
ATOM     18  C   UNL     1       3.256  10.854  -2.706  0.00  0.00    +0.229 C 
ENDBRANCH  16  18
ENDBRANCH  14  16
ENDBRANCH   5  14
ENDBRANCH   1   9
BRANCH   2  19
ATOM     19  C   UNL     1       3.683   4.399  -1.679  0.00  0.00    +0.166 C 
ATOM     20  C   UNL     1       3.958   4.734  -3.161  0.00  0.00    +0.031 C 
ATOM     21  C   UNL     1       4.017   3.334  -3.828  0.00  0.00    +0.019 C 
ATOM     22  C   UNL     1       4.686   2.488  -2.713  0.00  0.00    +0.110 C 
ATOM     23  N   UNL     1       4.125   3.015  -1.455  0.00  0.00    -0.165 NA
BRANCH  23  24
ATOM     24  S   UNL     1       4.016   2.187  -0.025  0.00  0.00    +0.064 S 
ATOM     25  O   UNL     1       3.971   3.163   1.007  0.00  0.00    -0.153 OA
ATOM     26  O   UNL     1       5.008   1.170  -0.069  0.00  0.00    -0.153 OA
BRANCH  24  27
ATOM     27  C   UNL     1       2.456   1.369  -0.014  0.00  0.00    +0.134 A 
ATOM     28  C   UNL     1       2.401   0.015  -0.022  0.00  0.00    +0.031 A 
ATOM     29  C   UNL     1       1.184  -0.665  -0.013  0.00  0.00    +0.004 A 
ATOM     30  C   UNL     1       0.002  -0.004   0.002  0.00  0.00    +0.031 A 
ATOM     31  C   UNL     1      -0.017   1.415   0.010  0.00  0.00    +0.102 A 
ATOM     32  C   UNL     1       1.257   2.128   0.002  0.00  0.00    +0.126 A 
ATOM     33  N   UNL     1       1.091   3.449   0.010  0.00  0.00    -0.189 NA
ATOM     34  S   UNL     1      -0.456   3.696   0.026  0.00  0.00    +0.117 S 
ATOM     35  N   UNL     1      -1.056   2.248   0.019  0.00  0.00    -0.191 NA
ENDBRANCH  24  27
ENDBRANCH  23  24
ENDBRANCH   2  19
TORSDOF 7
