REMARK  Name = ZINC08996250
REMARK  9 active torsions:
REMARK  status: ('A' for Active; 'I' for Inactive)
REMARK    1  A    between atoms: C_1  and  N_48
REMARK    2  A    between atoms: C_2  and  N_48
REMARK    3  A    between atoms: C_3  and  C_4
REMARK    4  A    between atoms: C_3  and  N_48
REMARK    5  A    between atoms: C_4  and  C_5
REMARK    6  A    between atoms: C_5  and  N_6
REMARK    7  A    between atoms: C_7  and  C_21
REMARK    8  A    between atoms: C_10  and  C_11
REMARK    9  A    between atoms: C_10  and  O_16
REMARK                            x       y       z     vdW  Elec       q    Type
REMARK                         _______ _______ _______ _____ _____    ______ ____
ROOT
ATOM      1  N   UNL     1      -0.694   1.552   1.220  0.00  0.00    -0.284 N 
ATOM      2  C   UNL     1      -0.316   2.719   2.023  0.00  0.00    +0.145 C 
ATOM      3  C   UNL     1      -1.402   2.900   3.058  0.00  0.00    +0.074 C 
ATOM      4  C   UNL     1      -1.466   3.884   4.035  0.00  0.00    +0.168 C 
ATOM      5  C   UNL     1      -2.327   1.874   2.837  0.00  0.00    +0.249 C 
ATOM      6  O   UNL     1      -3.346   1.682   3.477  0.00  0.00    -0.282 OA
ATOM      7  C   UNL     1      -1.853   1.059   1.688  0.00  0.00    +0.288 C 
ATOM      8  O   UNL     1      -2.428   0.088   1.239  0.00  0.00    -0.266 OA
ENDROOT
BRANCH   2   9
ATOM      9  C   UNL     1       1.009   2.474   2.698  0.00  0.00    -0.021 A 
ATOM     10  C   UNL     1       1.292   1.232   3.235  0.00  0.00    +0.007 A 
ATOM     11  C   UNL     1       2.508   1.004   3.849  0.00  0.00    +0.022 A 
ATOM     12  C   UNL     1       3.440   2.023   3.937  0.00  0.00    +0.059 A 
ATOM     13  C   UNL     1       3.155   3.268   3.405  0.00  0.00    +0.060 A 
ATOM     14  C   UNL     1       1.939   3.493   2.785  0.00  0.00    +0.027 A 
ATOM     15 CL   UNL     1       4.324   4.548   3.513  0.00  0.00    -0.082 Cl
ATOM     16 CL   UNL     1       4.966   1.739   4.715  0.00  0.00    -0.082 Cl
ENDBRANCH   2   9
BRANCH   4  17
ATOM     17  C   UNL     1      -2.482   3.837   5.021  0.00  0.00    +0.169 A 
ATOM     18  C   UNL     1      -3.285   4.890   5.412  0.00  0.00    +0.053 A 
ATOM     19  C   UNL     1      -4.141   4.391   6.404  0.00  0.00    +0.042 A 
ATOM     20  C   UNL     1      -3.830   3.087   6.582  0.00  0.00    +0.196 A 
ATOM     21  O   UNL     1      -2.833   2.757   5.750  0.00  0.00    -0.460 OA
ENDBRANCH   4  17
BRANCH   4  22
ATOM     22  O   UNL     1      -0.559   4.886   4.045  0.00  0.00    -0.503 OA
ATOM     23  H   UNL     1      -0.751   5.501   4.810  0.00  0.00    +0.292 HD
ENDBRANCH   4  22
BRANCH   1  24
ATOM     24  C   UNL     1       0.071   1.009   0.094  0.00  0.00    +0.107 C 
BRANCH  24  25
ATOM     25  C   UNL     1      -0.392   1.672  -1.204  0.00  0.00    +0.000 C 
BRANCH  25  26
ATOM     26  C   UNL     1       0.406   1.105  -2.380  0.00  0.00    -0.078 C 
BRANCH  26  29
ATOM     27  C   UNL     1       0.858   1.402  -4.740  0.00  0.00    -0.097 C 
ATOM     28  C   UNL     1      -1.427   1.377  -3.938  0.00  0.00    -0.097 C 
ATOM     29  N   UNL     1      -0.038   1.770  -3.623  0.00  0.00    +0.376 N 
ATOM     30  H   UNL     1      -0.001   2.787  -3.488  0.00  0.00    -0.083 HD
ENDBRANCH  26  29
ENDBRANCH  25  26
ENDBRANCH  24  25
ENDBRANCH   1  24
TORSDOF 7
