REMARK  Name = ZINC09313601
REMARK  4 active torsions:
REMARK  status: ('A' for Active; 'I' for Inactive)
REMARK    1  A    between atoms: C_8  and  C_10
REMARK    2  A    between atoms: C_17  and  C_19
REMARK    3  A    between atoms: C_19  and  S_20
REMARK    4  A    between atoms: S_20  and  C_21
REMARK                            x       y       z     vdW  Elec       q    Type
REMARK                         _______ _______ _______ _____ _____    ______ ____
ROOT
ATOM      1  C   UNL     1       1.537   7.277   0.015  0.00  0.00    +0.132 C 
ATOM      2  C   UNL     1       1.364   7.856  -1.392  0.00  0.00    +0.029 C 
ATOM      3  C   UNL     1       1.561   9.373  -1.343  0.00  0.00    +0.004 C 
ATOM      4  C   UNL     1       0.503   9.997  -0.430  0.00  0.00    +0.019 C 
ATOM      5  C   UNL     1       0.666   9.442   0.988  0.00  0.00    +0.108 C 
ATOM      6  N   UNL     1       0.622   7.974   0.929  0.00  0.00    -0.292 N 
ATOM      7  C   UNL     1      -0.240   7.282   1.700  0.00  0.00    +0.226 C 
ATOM      8  O   UNL     1      -0.195   6.070   1.721  0.00  0.00    -0.275 OA
ENDROOT
BRANCH   1  16
ATOM      9  C   UNL     1      -1.119   1.754  -0.723  0.00  0.00    +0.002 A 
ATOM     10  C   UNL     1      -0.048   1.085  -0.147  0.00  0.00    +0.001 A 
ATOM     11  C   UNL     1       1.043   1.806   0.301  0.00  0.00    +0.017 A 
ATOM     12  C   UNL     1       1.044   3.174   0.172  0.00  0.00    +0.039 A 
ATOM     13  C   UNL     1      -0.034   3.883  -0.406  0.00  0.00    +0.079 A 
ATOM     14  C   UNL     1      -1.129   3.109  -0.850  0.00  0.00    +0.029 A 
ATOM     15  N   UNL     1       0.137   5.220  -0.452  0.00  0.00    -0.242 NA
ATOM     16  C   UNL     1       1.210   5.806  -0.000  0.00  0.00    +0.100 A 
ATOM     17  S   UNL     1       2.172   4.482   0.581  0.00  0.00    -0.070 S 
ENDBRANCH   1  16
BRANCH   7  18
ATOM     18  C   UNL     1      -1.259   8.013   2.536  0.00  0.00    +0.172 C 
BRANCH  18  19
ATOM     19  S   UNL     1      -2.261   6.815   3.450  0.00  0.00    -0.089 S 
BRANCH  19  20
ATOM     20  C   UNL     1      -3.335   7.912   4.315  0.00  0.00    +0.136 A 
ATOM     21  N   UNL     1      -3.368   9.225   4.288  0.00  0.00    -0.233 NA
ATOM     22  C   UNL     1      -4.259   9.943   5.007  0.00  0.00    +0.079 A 
ATOM     23  C   UNL     1      -4.405  11.348   5.062  0.00  0.00    +0.029 A 
ATOM     24  C   UNL     1      -5.364  11.922   5.856  0.00  0.00    +0.002 A 
ATOM     25  C   UNL     1      -6.223  11.152   6.627  0.00  0.00    +0.001 A 
ATOM     26  C   UNL     1      -6.108   9.774   6.596  0.00  0.00    +0.017 A 
ATOM     27  C   UNL     1      -5.150   9.191   5.805  0.00  0.00    +0.040 A 
ATOM     28  S   UNL     1      -4.651   7.521   5.460  0.00  0.00    -0.061 S 
ENDBRANCH  19  20
ENDBRANCH  18  19
ENDBRANCH   7  18
TORSDOF 4
