REMARK  Name = ZINC13211853
REMARK  13 active torsions:
REMARK  status: ('A' for Active; 'I' for Inactive)
REMARK    1  A    between atoms: C_1  and  N_59
REMARK    2  A    between atoms: C_2  and  N_59
REMARK    3  A    between atoms: C_3  and  C_5
REMARK    4  A    between atoms: C_3  and  C_12
REMARK    5  A    between atoms: C_3  and  N_59
REMARK    6  A    between atoms: C_5  and  C_6
REMARK    7  A    between atoms: C_12  and  N_13
REMARK    8  A    between atoms: N_13  and  C_14
REMARK    9  A    between atoms: C_17  and  S_23
REMARK   10  A    between atoms: C_19  and  N_20
REMARK   11  A    between atoms: S_23  and  N_26
REMARK   12  A    between atoms: N_26  and  C_27
REMARK   13  A    between atoms: C_32  and  C_33
REMARK                            x       y       z     vdW  Elec       q    Type
REMARK                         _______ _______ _______ _____ _____    ______ ____
ROOT
ATOM      1  C   UNL     1      -5.843   5.408  -4.505  0.00  0.00    +0.058 A 
ATOM      2  C   UNL     1      -6.525   5.925  -3.411  0.00  0.00    +0.027 A 
ATOM      3  C   UNL     1      -7.619   6.746  -3.606  0.00  0.00    +0.031 A 
ATOM      4  C   UNL     1      -8.035   7.052  -4.889  0.00  0.00    +0.111 A 
ATOM      5  C   UNL     1      -7.359   6.539  -5.980  0.00  0.00    +0.063 A 
ATOM      6  C   UNL     1      -6.261   5.722  -5.792  0.00  0.00    +0.149 A 
ENDROOT
BRANCH   6   7
ATOM      7  N   UNL     1      -5.534   5.178  -6.960  0.00  0.00    +0.058 N 
ATOM      8  O   UNL     1      -5.838   5.530  -8.086  0.00  0.00    -0.126 OA
ATOM      9  O   UNL     1      -4.630   4.377  -6.797  0.00  0.00    -0.126 OA
ENDBRANCH   6   7
BRANCH   4  10
ATOM     10  S   UNL     1      -9.431   8.099  -5.133  0.00  0.00    +0.072 S 
ATOM     11  O   UNL     1      -9.948   7.792  -6.420  0.00  0.00    -0.150 OA
ATOM     12  O   UNL     1     -10.219   8.007  -3.954  0.00  0.00    -0.150 OA
BRANCH  10  13
ATOM     13  N   UNL     1      -8.870   9.655  -5.207  0.00  0.00    -0.215 N 
ATOM     14  H   UNL     1      -9.167  10.310  -4.556  0.00  0.00    +0.174 HD
BRANCH  13  15
ATOM     15  C   UNL     1      -7.972  10.023  -6.201  0.00  0.00    +0.062 A 
ATOM     16  C   UNL     1      -8.074   9.471  -7.472  0.00  0.00    +0.025 A 
ATOM     17  C   UNL     1      -7.184   9.842  -8.459  0.00  0.00    +0.002 A 
ATOM     18  C   UNL     1      -6.177  10.756  -8.190  0.00  0.00    +0.001 A 
ATOM     19  C   UNL     1      -6.057  11.310  -6.934  0.00  0.00    +0.017 A 
ATOM     20  C   UNL     1      -6.954  10.949  -5.925  0.00  0.00    +0.085 A 
BRANCH  20  21
ATOM     21  C   UNL     1      -6.831  11.537  -4.580  0.00  0.00    +0.388 C 
ATOM     22  O   UNL     1      -7.613  11.220  -3.704  0.00  0.00    -0.241 OA
ATOM     23  O   UNL     1      -5.852  12.425  -4.319  0.00  0.00    -0.241 OA
ENDBRANCH  20  21
ENDBRANCH  13  15
ENDBRANCH  10  13
ENDBRANCH   4  10
BRANCH   1  24
ATOM     24  N   UNL     1      -4.737   4.577  -4.311  0.00  0.00    -0.344 N 
ATOM     25  H   UNL     1      -4.317   4.144  -5.071  0.00  0.00    +0.146 HD
BRANCH  24  26
ATOM     26  C   UNL     1      -4.210   4.362  -2.962  0.00  0.00    +0.086 C 
BRANCH  26  27
ATOM     27  C   UNL     1      -2.932   3.525  -3.040  0.00  0.00    -0.048 C 
BRANCH  27  30
ATOM     28  C   UNL     1      -2.404   4.405  -0.847  0.00  0.00    -0.096 C 
ATOM     29  C   UNL     1      -3.339   2.182  -1.067  0.00  0.00    -0.096 C 
ATOM     30  N   UNL     1      -2.449   3.188  -1.685  0.00  0.00    +0.379 N 
ATOM     31  H   UNL     1      -1.502   2.796  -1.755  0.00  0.00    -0.082 HD
ENDBRANCH  27  30
BRANCH  27  32
ATOM     32  C   UNL     1      -1.845   4.321  -3.766  0.00  0.00    +0.021 C 
BRANCH  32  33
ATOM     33  C   UNL     1      -0.627   3.453  -3.953  0.00  0.00    -0.049 A 
ATOM     34  C   UNL     1       0.357   3.426  -2.983  0.00  0.00    +0.003 A 
ATOM     35  C   UNL     1       1.477   2.634  -3.156  0.00  0.00    +0.000 A 
ATOM     36  C   UNL     1       1.607   1.861  -4.294  0.00  0.00    +0.000 A 
ATOM     37  C   UNL     1       0.620   1.884  -5.262  0.00  0.00    +0.000 A 
ATOM     38  C   UNL     1      -0.497   2.680  -5.091  0.00  0.00    +0.003 A 
ENDBRANCH  32  33
ENDBRANCH  27  32
ENDBRANCH  26  27
ENDBRANCH  24  26
ENDBRANCH   1  24
TORSDOF 11
