REMARK  Name = ZINC07340434
REMARK  10 active torsions:
REMARK  status: ('A' for Active; 'I' for Inactive)
REMARK    1  A    between atoms: C_1  and  N_2
REMARK    2  A    between atoms: N_2  and  C_3
REMARK    3  A    between atoms: N_2  and  C_28
REMARK    4  A    between atoms: C_3  and  C_4
REMARK    5  A    between atoms: N_6  and  C_7
REMARK    6  A    between atoms: C_7  and  C_8
REMARK    7  A    between atoms: C_8  and  C_10
REMARK    8  A    between atoms: C_8  and  C_18
REMARK    9  A    between atoms: C_13  and  O_16
REMARK   10  A    between atoms: O_16  and  C_17
REMARK                            x       y       z     vdW  Elec       q    Type
REMARK                         _______ _______ _______ _____ _____    ______ ____
ROOT
ATOM      1  C   UNL     1       0.279  -0.524  -6.096  0.00  0.00    +0.068 C 
ENDROOT
BRANCH   1   2
ATOM      2  C   UNL     1       0.299  -2.031  -6.105  0.00  0.00    -0.013 A 
ATOM      3  C   UNL     1      -0.769  -2.844  -6.105  0.00  0.00    +0.088 A 
ATOM      4  N   UNL     1      -0.361  -4.150  -6.114  0.00  0.00    -0.360 N 
ATOM      5  H   UNL     1      -0.953  -4.918  -6.115  0.00  0.00    +0.165 HD
ATOM      6  C   UNL     1       1.015  -4.211  -6.120  0.00  0.00    +0.047 A 
ATOM      7  C   UNL     1       1.489  -2.886  -6.121  0.00  0.00    +0.003 A 
ATOM      8  C   UNL     1       2.862  -2.638  -6.132  0.00  0.00    +0.010 A 
ATOM      9  C   UNL     1       3.741  -3.684  -6.146  0.00  0.00    +0.001 A 
ATOM     10  C   UNL     1       3.278  -4.993  -6.149  0.00  0.00    +0.002 A 
ATOM     11  C   UNL     1       1.927  -5.261  -6.128  0.00  0.00    +0.026 A 
ENDBRANCH   1   2
BRANCH   1  12
ATOM     12  C   UNL     1      -0.450  -0.025  -7.317  0.00  0.00    -0.038 A 
ATOM     13  C   UNL     1      -1.773  -0.371  -7.521  0.00  0.00    +0.008 A 
ATOM     14  C   UNL     1      -2.443   0.084  -8.640  0.00  0.00    +0.046 A 
ATOM     15  C   UNL     1      -1.788   0.891  -9.559  0.00  0.00    +0.120 A 
ATOM     16  C   UNL     1      -0.461   1.238  -9.352  0.00  0.00    +0.046 A 
ATOM     17  C   UNL     1       0.204   0.784  -8.229  0.00  0.00    +0.008 A 
BRANCH  15  18
ATOM     18  O   UNL     1      -2.445   1.341 -10.660  0.00  0.00    -0.495 OA
ATOM     19  C   UNL     1      -1.708   2.167 -11.563  0.00  0.00    +0.277 C 
ENDBRANCH  15  18
ENDBRANCH   1  12
BRANCH   1  20
ATOM     20  C   UNL     1      -0.437  -0.030  -4.838  0.00  0.00    +0.117 C 
BRANCH  20  23
ATOM     21  C   UNL     1      -0.106  -0.083  -2.424  0.00  0.00    +0.196 C 
ATOM     22  O   UNL     1      -1.143   0.532  -2.298  0.00  0.00    -0.278 OA
ATOM     23  N   UNL     1       0.336  -0.414  -3.654  0.00  0.00    -0.316 N 
ATOM     24  H   UNL     1       1.166  -0.906  -3.755  0.00  0.00    +0.149 HD
BRANCH  21  25
ATOM     25  C   UNL     1       0.690  -0.478  -1.207  0.00  0.00    +0.019 C 
BRANCH  25  27
ATOM     26  C   UNL     1      -0.018   1.465   0.010  0.00  0.00    -0.095 C 
ATOM     27  N   UNL     1       0.002  -0.004   0.002  0.00  0.00    +0.385 N 
ATOM     28  H   UNL     1      -0.945  -0.353   0.009  0.00  0.00    -0.081 HD
BRANCH  27  29
ATOM     29  C   UNL     1       0.713  -0.491   1.192  0.00  0.00    -0.068 C 
ATOM     30  C   UNL     1       0.733  -2.021   1.184  0.00  0.00    -0.015 C 
ATOM     31  C   UNL     1       1.473  -2.527   2.423  0.00  0.00    -0.002 C 
ATOM     32  C   UNL     1       0.757  -2.034   3.682  0.00  0.00    -0.000 C 
ATOM     33  C   UNL     1       0.736  -0.504   3.691  0.00  0.00    -0.002 C 
ATOM     34  C   UNL     1      -0.004   0.003   2.451  0.00  0.00    -0.015 C 
ENDBRANCH  27  29
ENDBRANCH  25  27
ENDBRANCH  21  25
ENDBRANCH  20  23
ENDBRANCH   1  20
TORSDOF 8
