REMARK  Name = ZINC09418339
REMARK  6 active torsions:
REMARK  status: ('A' for Active; 'I' for Inactive)
REMARK    1  A    between atoms: C_3  and  S_8
REMARK    2  A    between atoms: C_6  and  N_7
REMARK    3  A    between atoms: S_8  and  N_11
REMARK    4  A    between atoms: N_11  and  C_12
REMARK    5  A    between atoms: C_12  and  C_25
REMARK    6  A    between atoms: N_15  and  C_19
REMARK                            x       y       z     vdW  Elec       q    Type
REMARK                         _______ _______ _______ _____ _____    ______ ____
ROOT
ATOM      1  C   UNL     1       4.490   1.440   2.303  0.00  0.00    +0.306 C 
ATOM      2  C   UNL     1       4.734   1.852   3.742  0.00  0.00    +0.277 C 
ATOM      3  O   UNL     1       3.973   2.438   4.481  0.00  0.00    -0.271 OA
ATOM      4  N   UNL     1       5.984   1.424   4.020  0.00  0.00    -0.216 N 
ATOM      5  C   UNL     1       6.536   0.800   2.931  0.00  0.00    +0.341 C 
ATOM      6  O   UNL     1       7.780   0.273   2.923  0.00  0.00    -0.247 OA
ATOM      7  N   UNL     1       5.740   0.771   1.910  0.00  0.00    -0.190 NA
ENDROOT
BRANCH   4   8
ATOM      8  C   UNL     1       6.658   1.602   5.309  0.00  0.00    +0.086 C 
ATOM      9  C   UNL     1       7.013   0.233   5.892  0.00  0.00    +0.023 C 
ATOM     10  C   UNL     1       7.717   0.418   7.238  0.00  0.00    +0.002 C 
ATOM     11  C   UNL     1       8.995   1.235   7.037  0.00  0.00    +0.000 C 
ATOM     12  C   UNL     1       8.640   2.604   6.454  0.00  0.00    +0.002 C 
ATOM     13  C   UNL     1       7.936   2.418   5.108  0.00  0.00    +0.023 C 
ENDBRANCH   4   8
BRANCH   1  14
ATOM     14  C   UNL     1       3.310   0.469   2.213  0.00  0.00    +0.438 C 
ATOM     15  F   UNL     1       3.088   0.129   0.874  0.00  0.00    -0.166 F 
ATOM     16  F   UNL     1       3.600  -0.687   2.946  0.00  0.00    -0.166 F 
ATOM     17  F   UNL     1       2.164   1.078   2.736  0.00  0.00    -0.166 F 
ENDBRANCH   1  14
BRANCH   1  18
ATOM     18  N   UNL     1       4.251   2.617   1.465  0.00  0.00    -0.147 NA
ATOM     19  H   UNL     1       3.410   2.711   0.989  0.00  0.00    +0.151 HD
BRANCH  18  20
ATOM     20  S   UNL     1       5.415   3.787   1.329  0.00  0.00    +0.061 S 
ATOM     21  O   UNL     1       5.878   4.053   2.645  0.00  0.00    -0.153 OA
ATOM     22  O   UNL     1       4.876   4.800   0.491  0.00  0.00    -0.153 OA
BRANCH  20  25
ATOM     23  C   UNL     1       7.801   2.461  -1.618  0.00  0.00    +0.024 A 
ATOM     24  C   UNL     1       6.741   3.016  -0.928  0.00  0.00    +0.030 A 
ATOM     25  C   UNL     1       6.768   3.076   0.453  0.00  0.00    +0.105 A 
ATOM     26  C   UNL     1       7.855   2.579   1.148  0.00  0.00    +0.030 A 
ATOM     27  C   UNL     1       8.918   2.022   0.465  0.00  0.00    +0.024 A 
ATOM     28  C   UNL     1       8.894   1.960  -0.923  0.00  0.00    +0.025 A 
BRANCH  28  29
ATOM     29  N   UNL     1       9.967   1.397  -1.617  0.00  0.00    -0.358 N 
ATOM     30  H   UNL     1       9.949   1.355  -2.586  0.00  0.00    +0.142 HD
ATOM     31  H   UNL     1      10.730   1.048  -1.131  0.00  0.00    +0.142 HD
ENDBRANCH  28  29
ENDBRANCH  20  25
ENDBRANCH  18  20
ENDBRANCH   1  18
TORSDOF 6
