REMARK  Name = ZINC12149183
REMARK  12 active torsions:
REMARK  status: ('A' for Active; 'I' for Inactive)
REMARK    1  A    between atoms: C_1  and  C_2
REMARK    2  A    between atoms: C_2  and  C_3
REMARK    3  A    between atoms: C_2  and  C_4
REMARK    4  A    between atoms: C_4  and  C_5
REMARK    5  A    between atoms: C_5  and  C_7
REMARK    6  A    between atoms: C_5  and  N_25
REMARK    7  A    between atoms: C_16  and  C_17
REMARK    8  A    between atoms: C_16  and  N_66
REMARK    9  A    between atoms: C_26  and  C_28
REMARK   10  A    between atoms: C_31  and  C_33
REMARK   11  A    between atoms: C_33  and  O_34
REMARK   12  A    between atoms: O_34  and  C_35
REMARK                            x       y       z     vdW  Elec       q    Type
REMARK                         _______ _______ _______ _____ _____    ______ ____
ROOT
ATOM      1  C   UNL     1       0.797   8.093   0.727  0.00  0.00    +0.154 A 
ATOM      2  N   UNL     1      -0.399   8.518   0.414  0.00  0.00    -0.132 NA
ATOM      3  N   UNL     1      -0.711   9.522   1.158  0.00  0.00    -0.134 NA
ATOM      4  C   UNL     1       0.270   9.782   1.972  0.00  0.00    +0.132 A 
ATOM      5  N   UNL     1       1.259   8.893   1.712  0.00  0.00    -0.315 N 
ATOM      6  C   UNL     1       2.565   8.841   2.369  0.00  0.00    +0.106 C 
ATOM      7  C   UNL     1       2.438   9.412   3.785  0.00  0.00    -0.056 C 
ATOM      8  C   UNL     1       1.681  11.565   2.939  0.00  0.00    -0.071 C 
ATOM      9  C   UNL     1       0.329  10.852   3.032  0.00  0.00    +0.058 C 
ATOM     10  N   UNL     1       2.671  10.875   3.796  0.00  0.00    +0.384 N 
ATOM     11  H   UNL     1       2.571  11.218   4.758  0.00  0.00    -0.081 HD
ENDROOT
BRANCH   1  12
ATOM     12  C   UNL     1       1.527   6.932   0.101  0.00  0.00    +0.142 C 
BRANCH  12  13
ATOM     13  N   UNL     1       0.616   5.791  -0.020  0.00  0.00    -0.299 N 
ATOM     14  C   UNL     1       1.103   4.535  -0.001  0.00  0.00    +0.280 C 
ATOM     15  O   UNL     1       2.305   4.349   0.019  0.00  0.00    -0.267 OA
ATOM     16  H   UNL     1      -0.338   5.940  -0.114  0.00  0.00    +0.150 HD
BRANCH  14  17
ATOM     17  C   UNL     1       0.184   3.392  -0.006  0.00  0.00    +0.190 A 
ATOM     18  C   UNL     1       0.542   2.074   0.011  0.00  0.00    +0.055 A 
ATOM     19  C   UNL     1      -0.649   1.332  -0.001  0.00  0.00    +0.048 A 
ATOM     20  C   UNL     1      -1.669   2.218  -0.031  0.00  0.00    +0.131 A 
ATOM     21  O   UNL     1      -1.163   3.458  -0.028  0.00  0.00    -0.453 OA
BRANCH  20  22
ATOM     22  C   UNL     1      -3.135   1.868  -0.058  0.00  0.00    +0.233 C 
BRANCH  22  23
ATOM     23  O   UNL     1      -3.626   1.770   1.280  0.00  0.00    -0.375 OA
ATOM     24  C   UNL     1      -5.014   1.440   1.367  0.00  0.00    +0.194 C 
ENDBRANCH  22  23
ENDBRANCH  20  22
ENDBRANCH  14  17
ENDBRANCH  12  13
BRANCH  12  25
ATOM     25  C   UNL     1       2.029   7.333  -1.287  0.00  0.00    +0.033 C 
BRANCH  25  27
ATOM     26  C   UNL     1       4.304   7.925  -0.443  0.00  0.00    +0.007 C 
ATOM     27  C   UNL     1       3.058   8.457  -1.152  0.00  0.00    -0.015 C 
ATOM     28  C   UNL     1       3.441   8.968  -2.543  0.00  0.00    +0.007 C 
ENDBRANCH  25  27
ENDBRANCH  12  25
ENDBRANCH   1  12
BRANCH  10  29
ATOM     29  C   UNL     1       4.035  11.169   3.323  0.00  0.00    -0.043 C 
BRANCH  29  30
ATOM     30  C   UNL     1       4.328  12.625   3.580  0.00  0.00    -0.061 A 
ATOM     31  C   UNL     1       4.874  13.017   4.788  0.00  0.00    +0.005 A 
ATOM     32  C   UNL     1       5.144  14.351   5.027  0.00  0.00    +0.041 A 
ATOM     33  C   UNL     1       4.867  15.297   4.055  0.00  0.00    +0.158 A 
ATOM     34  C   UNL     1       4.320  14.905   2.844  0.00  0.00    +0.159 A 
ATOM     35  C   UNL     1       4.056  13.567   2.606  0.00  0.00    +0.043 A 
ATOM     36  F   UNL     1       4.049  15.827   1.894  0.00  0.00    -0.202 F 
ATOM     37  F   UNL     1       5.131  16.602   4.287  0.00  0.00    -0.202 F 
ENDBRANCH  29  30
ENDBRANCH  10  29
TORSDOF 9
