REMARK  Name = ZINC66585202
REMARK  10 active torsions:
REMARK  status: ('A' for Active; 'I' for Inactive)
REMARK    1  A    between atoms: C_1  and  C_2
REMARK    2  A    between atoms: C_2  and  C_4
REMARK    3  A    between atoms: C_2  and  N_10
REMARK    4  A    between atoms: C_14  and  N_18
REMARK    5  A    between atoms: N_18  and  C_19
REMARK    6  A    between atoms: C_22  and  S_25
REMARK    7  A    between atoms: S_25  and  C_26
REMARK    8  A    between atoms: C_26  and  C_27
REMARK    9  A    between atoms: C_26  and  C_28
REMARK   10  A    between atoms: C_26  and  C_29
REMARK                            x       y       z     vdW  Elec       q    Type
REMARK                         _______ _______ _______ _____ _____    ______ ____
ROOT
ATOM      1  N   UNL     1      -0.434  -0.111  -0.577  0.00  0.00    -0.233 N 
ATOM      2  C   UNL     1       0.895   0.018  -0.669  0.00  0.00    +0.225 C 
ATOM      3  O   UNL     1       1.594   0.648   0.094  0.00  0.00    -0.275 OA
ATOM      4  C   UNL     1       1.387  -0.749  -1.878  0.00  0.00    +0.128 C 
ATOM      5  C   UNL     1       0.097  -1.349  -2.474  0.00  0.00    +0.166 C 
ATOM      6  C   UNL     1      -0.987  -0.864  -1.537  0.00  0.00    +0.243 C 
ATOM      7  O   UNL     1      -2.168  -1.114  -1.640  0.00  0.00    -0.273 OA
ENDROOT
BRANCH   1   9
ATOM      8  C   UNL     1      -1.066   2.035   0.412  0.00  0.00    +0.034 C 
ATOM      9  C   UNL     1      -1.219   0.514   0.490  0.00  0.00    +0.112 C 
BRANCH   9  10
ATOM     10  C   UNL     1      -0.725   0.028   1.828  0.00  0.00    -0.009 A 
ATOM     11  C   UNL     1      -0.713   0.879   2.924  0.00  0.00    +0.008 A 
ATOM     12  C   UNL     1      -0.249   0.388   4.135  0.00  0.00    +0.020 A 
ATOM     13  C   UNL     1       0.182  -0.923   4.210  0.00  0.00    +0.111 A 
ATOM     14  N   UNL     1       0.157  -1.703   3.147  0.00  0.00    -0.263 NA
ATOM     15  C   UNL     1      -0.283  -1.272   1.981  0.00  0.00    +0.116 A 
ENDBRANCH   9  10
ENDBRANCH   1   9
BRANCH   5  16
ATOM     16  N   UNL     1       0.161  -2.813  -2.472  0.00  0.00    -0.333 N 
ATOM     17  H   UNL     1       0.728  -3.273  -1.834  0.00  0.00    +0.147 HD
BRANCH  16  18
ATOM     18  C   UNL     1      -0.596  -3.548  -3.392  0.00  0.00    +0.028 A 
ATOM     19  C   UNL     1      -1.403  -2.889  -4.311  0.00  0.00    +0.024 A 
ATOM     20  C   UNL     1      -2.150  -3.614  -5.218  0.00  0.00    +0.016 A 
ATOM     21  C   UNL     1      -2.094  -5.002  -5.213  0.00  0.00    +0.009 A 
ATOM     22  C   UNL     1      -1.286  -5.660  -4.295  0.00  0.00    +0.016 A 
ATOM     23  C   UNL     1      -0.535  -4.935  -3.391  0.00  0.00    +0.024 A 
BRANCH  21  24
ATOM     24  S   UNL     1      -3.046  -5.927  -6.371  0.00  0.00    -0.119 S 
BRANCH  24  25
ATOM     25  C   UNL     1      -1.972  -6.046  -7.828  0.00  0.00    +0.013 C 
ATOM     26  C   UNL     1      -0.670  -6.752  -7.444  0.00  0.00    +0.022 C 
ATOM     27  C   UNL     1      -2.682  -6.847  -8.921  0.00  0.00    +0.022 C 
ATOM     28  C   UNL     1      -1.657  -4.642  -8.346  0.00  0.00    +0.022 C 
ENDBRANCH  24  25
ENDBRANCH  21  24
ENDBRANCH  16  18
ENDBRANCH   5  16
TORSDOF 6
