REMARK  Name = ZINC04324554
REMARK  11 active torsions:
REMARK  status: ('A' for Active; 'I' for Inactive)
REMARK    1  A    between atoms: C_1  and  C_2
REMARK    2  A    between atoms: C_2  and  C_3
REMARK    3  A    between atoms: C_3  and  C_4
REMARK    4  A    between atoms: C_4  and  C_5
REMARK    5  A    between atoms: C_5  and  C_6
REMARK    6  A    between atoms: C_9  and  C_12
REMARK    7  A    between atoms: C_12  and  C_14
REMARK    8  A    between atoms: C_12  and  O_29
REMARK    9  A    between atoms: C_14  and  N_59
REMARK   10  A    between atoms: N_17  and  C_20
REMARK   11  A    between atoms: C_23  and  C_25
REMARK                            x       y       z     vdW  Elec       q    Type
REMARK                         _______ _______ _______ _____ _____    ______ ____
ROOT
ATOM      1  C   UNL     1      -5.229   3.254   6.259  0.00  0.00    -0.059 C 
ATOM      2  C   UNL     1      -5.864   3.773   7.552  0.00  0.00    +0.088 C 
ATOM      3  N   UNL     1      -6.808   4.853   7.231  0.00  0.00    -0.320 N 
ATOM      4  C   UNL     1      -6.126   5.959   6.546  0.00  0.00    +0.088 C 
ATOM      5  C   UNL     1      -5.490   5.441   5.254  0.00  0.00    -0.059 C 
ATOM      6  N   UNL     1      -4.528   4.371   5.592  0.00  0.00    +0.384 N 
ATOM      7  H   UNL     1      -3.819   4.750   6.231  0.00  0.00    -0.082 HD
ENDROOT
BRANCH   3   8
ATOM      8  C   UNL     1      -7.459   5.301   8.375  0.00  0.00    +0.099 A 
ATOM      9  C   UNL     1      -8.171   4.400   9.161  0.00  0.00    +0.042 A 
ATOM     10  C   UNL     1      -8.808   4.859  10.300  0.00  0.00    +0.017 A 
ATOM     11  C   UNL     1      -8.722   6.210  10.609  0.00  0.00    +0.071 A 
ATOM     12  C   UNL     1      -8.004   7.049   9.781  0.00  0.00    +0.096 A 
ATOM     13  N   UNL     1      -7.360   6.632   8.658  0.00  0.00    -0.349 N 
ATOM     14  H   UNL     1      -6.832   7.279   8.060  0.00  0.00    +0.167 HD
BRANCH  11  15
ATOM     15  C   UNL     1      -9.406   6.755  11.836  0.00  0.00    +0.419 C 
ATOM     16  F   UNL     1      -9.172   8.132  11.928  0.00  0.00    -0.166 F 
ATOM     17  F   UNL     1     -10.782   6.521  11.746  0.00  0.00    -0.166 F 
ATOM     18  F   UNL     1      -8.898   6.119  12.974  0.00  0.00    -0.166 F 
ENDBRANCH  11  15
ENDBRANCH   3   8
BRANCH   6  19
ATOM     19  C   UNL     1      -3.859   3.887   4.365  0.00  0.00    -0.042 C 
BRANCH  19  20
ATOM     20  C   UNL     1      -2.717   2.949   4.763  0.00  0.00    +0.128 C 
BRANCH  20  24
ATOM     21  C   UNL     1      -0.718   1.572   1.248  0.00  0.00    -0.047 A 
ATOM     22  C   UNL     1      -0.360   2.779   1.819  0.00  0.00    +0.004 A 
ATOM     23  C   UNL     1      -1.010   3.227   2.953  0.00  0.00    +0.006 A 
ATOM     24  C   UNL     1      -2.012   2.463   3.523  0.00  0.00    -0.021 A 
ATOM     25  C   UNL     1      -2.366   1.254   2.955  0.00  0.00    +0.006 A 
ATOM     26  C   UNL     1      -1.719   0.808   1.818  0.00  0.00    +0.004 A 
BRANCH  21  27
ATOM     27  C   UNL     1      -0.013   1.086   0.008  0.00  0.00    +0.035 C 
BRANCH  27  28
ATOM     28  C   UNL     1      -0.753   1.593  -1.232  0.00  0.00    +0.005 C 
BRANCH  28  29
ATOM     29  C   UNL     1      -0.037   1.099  -2.490  0.00  0.00    +0.000 C 
BRANCH  29  31
ATOM     30  C   UNL     1      -0.060   1.113  -4.989  0.00  0.00    +0.004 C 
ATOM     31  C   UNL     1      -0.777   1.606  -3.730  0.00  0.00    -0.003 C 
ENDBRANCH  29  31
ENDBRANCH  28  29
ENDBRANCH  27  28
ENDBRANCH  21  27
ENDBRANCH  20  24
BRANCH  20  32
ATOM     32  O   UNL     1      -1.791   3.652   5.593  0.00  0.00    -0.389 OA
ATOM     33  H   UNL     1      -1.391   4.425   5.171  0.00  0.00    +0.210 HD
ENDBRANCH  20  32
ENDBRANCH  19  20
ENDBRANCH   6  19
TORSDOF 10
