REMARK  Name = ZINC39483407
REMARK  6 active torsions:
REMARK  status: ('A' for Active; 'I' for Inactive)
REMARK    1  A    between atoms: C_1  and  C_2
REMARK    2  A    between atoms: C_2  and  C_3
REMARK    3  A    between atoms: C_2  and  C_4
REMARK    4  A    between atoms: C_4  and  C_5
REMARK    5  A    between atoms: C_20  and  C_21
REMARK    6  A    between atoms: C_23  and  O_28
REMARK                            x       y       z     vdW  Elec       q    Type
REMARK                         _______ _______ _______ _____ _____    ______ ____
ROOT
ATOM      1  C   UNL     1       1.761   0.238  -0.368  0.00  0.00    -0.021 A 
ATOM      2  C   UNL     1       2.056   1.518  -0.780  0.00  0.00    +0.006 A 
ATOM      3  C   UNL     1       3.357   1.999  -0.728  0.00  0.00    +0.001 A 
ATOM      4  C   UNL     1       4.381   1.206  -0.256  0.00  0.00    +0.015 A 
ATOM      5  C   UNL     1       4.104  -0.090   0.172  0.00  0.00    +0.065 A 
ATOM      6  C   UNL     1       2.781  -0.588   0.114  0.00  0.00    +0.082 A 
ATOM      7  N   UNL     1       2.543  -1.851   0.504  0.00  0.00    -0.229 NA
ATOM      8  C   UNL     1       3.491  -2.632   0.981  0.00  0.00    +0.140 A 
ATOM      9  N   UNL     1       4.784  -2.203   1.148  0.00  0.00    -0.293 N 
ATOM     10  C   UNL     1       5.152  -0.975   0.696  0.00  0.00    +0.262 A 
ATOM     11  O   UNL     1       6.314  -0.615   0.737  0.00  0.00    -0.267 OA
ATOM     12  C   UNL     1       5.787  -3.011   1.829  0.00  0.00    +0.127 C 
ATOM     13  C   UNL     1       5.534  -4.499   1.752  0.00  0.00    +0.026 C 
ATOM     14  C   UNL     1       4.101  -4.870   2.095  0.00  0.00    +0.040 C 
ATOM     15  C   UNL     1       3.137  -4.017   1.322  0.00  0.00    -0.004 C 
ATOM     16  C   UNL     1       1.946  -4.521   0.942  0.00  0.00    +0.015 C 
ENDROOT
BRANCH  16  17
ATOM     17  C   UNL     1       1.523  -5.848   1.419  0.00  0.00    -0.020 A 
ATOM     18  C   UNL     1       1.895  -6.287   2.693  0.00  0.00    +0.053 A 
ATOM     19  C   UNL     1       1.492  -7.536   3.134  0.00  0.00    +0.118 A 
ATOM     20  C   UNL     1       0.722  -8.349   2.313  0.00  0.00    +0.059 A 
ATOM     21  C   UNL     1       0.352  -7.917   1.052  0.00  0.00    +0.017 A 
ATOM     22  C   UNL     1       0.742  -6.671   0.603  0.00  0.00    +0.022 A 
ATOM     23  I   UNL     1      -0.810  -9.153  -0.176  0.00  0.00    -0.044 I 
BRANCH  19  24
ATOM     24  O   UNL     1       1.852  -7.967   4.372  0.00  0.00    -0.507 OA
ATOM     25  H   UNL     1       1.222  -7.735   5.067  0.00  0.00    +0.292 HD
ENDBRANCH  19  24
ENDBRANCH  16  17
BRANCH   1  26
ATOM     26  C   UNL     1       0.343  -0.270  -0.431  0.00  0.00    +0.040 C 
BRANCH  26  28
ATOM     27  C   UNL     1      -0.452   1.434   1.214  0.00  0.00    +0.007 C 
ATOM     28  C   UNL     1      -0.333  -0.064   0.925  0.00  0.00    -0.013 C 
ATOM     29  C   UNL     1      -1.729  -0.690   0.900  0.00  0.00    +0.007 C 
ENDBRANCH  26  28
ENDBRANCH   1  26
TORSDOF 4
