REMARK  Name = ZINC36595176
REMARK  14 active torsions:
REMARK  status: ('A' for Active; 'I' for Inactive)
REMARK    1  A    between atoms: C_1  and  C_2
REMARK    2  A    between atoms: C_2  and  C_3
REMARK    3  A    between atoms: C_3  and  C_4
REMARK    4  A    between atoms: C_4  and  N_5
REMARK    5  A    between atoms: C_6  and  C_8
REMARK    6  A    between atoms: C_8  and  C_10
REMARK    7  A    between atoms: C_8  and  N_19
REMARK    8  A    between atoms: C_10  and  C_12
REMARK    9  A    between atoms: C_10  and  C_13
REMARK   10  A    between atoms: N_19  and  C_20
REMARK   11  A    between atoms: C_20  and  C_21
REMARK   12  A    between atoms: C_24  and  C_26
REMARK   13  A    between atoms: C_27  and  C_29
REMARK   14  A    between atoms: C_29  and  C_30
REMARK                            x       y       z     vdW  Elec       q    Type
REMARK                         _______ _______ _______ _____ _____    ______ ____
ROOT
ATOM      1  N   UNL     1       2.039  -5.681  -4.041  0.00  0.00    -0.282 N 
ATOM      2  C   UNL     1       2.892  -6.666  -4.385  0.00  0.00    +0.221 C 
ATOM      3  O   UNL     1       4.006  -6.393  -4.779  0.00  0.00    -0.275 OA
ENDROOT
BRANCH   1   4
ATOM      4  C   UNL     1       2.457  -4.280  -4.143  0.00  0.00    +0.169 C 
BRANCH   4   6
ATOM      5  N   UNL     1       2.803  -2.378  -2.601  0.00  0.00    -0.314 N 
ATOM      6  C   UNL     1       2.291  -3.608  -2.805  0.00  0.00    +0.234 C 
ATOM      7  O   UNL     1       1.698  -4.173  -1.911  0.00  0.00    -0.274 OA
ATOM      8  H   UNL     1       3.338  -1.955  -3.291  0.00  0.00    +0.149 HD
BRANCH   5   9
ATOM      9  C   UNL     1       2.552  -1.680  -1.338  0.00  0.00    +0.104 C 
BRANCH   9  10
ATOM     10  C   UNL     1       3.240  -0.314  -1.365  0.00  0.00    +0.018 C 
BRANCH  10  12
ATOM     11  C   UNL     1       3.666   1.782  -0.072  0.00  0.00    +0.004 C 
ATOM     12  C   UNL     1       2.978   0.415  -0.045  0.00  0.00    -0.002 C 
ENDBRANCH  10  12
ENDBRANCH   9  10
ENDBRANCH   5   9
ENDBRANCH   4   6
BRANCH   4  13
ATOM     13  C   UNL     1       1.593  -3.565  -5.184  0.00  0.00    +0.045 C 
ATOM     14  C   UNL     1       1.915  -2.070  -5.174  0.00  0.00    +0.015 C 
BRANCH  13  15
ATOM     15  C   UNL     1       1.880  -4.132  -6.551  0.00  0.00    -0.042 A 
ATOM     16  C   UNL     1       3.186  -4.272  -6.980  0.00  0.00    +0.004 A 
ATOM     17  C   UNL     1       3.450  -4.792  -8.233  0.00  0.00    +0.000 A 
ATOM     18  C   UNL     1       2.407  -5.171  -9.057  0.00  0.00    +0.000 A 
ATOM     19  C   UNL     1       1.101  -5.032  -8.628  0.00  0.00    +0.000 A 
ATOM     20  C   UNL     1       0.837  -4.516  -7.373  0.00  0.00    +0.004 A 
ENDBRANCH  13  15
ENDBRANCH   4  13
ENDBRANCH   1   4
BRANCH   1  21
ATOM     21  C   UNL     1       0.693  -6.011  -3.565  0.00  0.00    +0.182 C 
BRANCH  21  22
ATOM     22  C   UNL     1      -0.220  -6.223  -4.745  0.00  0.00    +0.122 A 
ATOM     23  C   UNL     1      -0.474  -7.401  -5.341  0.00  0.00    +0.046 A 
ATOM     24  C   UNL     1      -1.377  -7.139  -6.397  0.00  0.00    +0.045 A 
ATOM     25  C   UNL     1      -1.621  -5.817  -6.383  0.00  0.00    +0.102 A 
ATOM     26  O   UNL     1      -0.921  -5.267  -5.377  0.00  0.00    -0.463 OA
ATOM     27  C   UNL     1      -2.529  -5.077  -7.332  0.00  0.00    +0.086 C 
ENDBRANCH  21  22
ENDBRANCH   1  21
BRANCH   2  28
ATOM     28  C   UNL     1       2.462  -8.106  -4.279  0.00  0.00    +0.131 C 
BRANCH  28  29
ATOM     29  C   UNL     1       3.592  -9.001  -4.720  0.00  0.00    -0.039 A 
ATOM     30  C   UNL     1       3.705  -9.367  -6.048  0.00  0.00    +0.005 A 
ATOM     31  C   UNL     1       4.742 -10.188  -6.453  0.00  0.00    +0.015 A 
ATOM     32  C   UNL     1       5.665 -10.642  -5.529  0.00  0.00    +0.018 A 
ATOM     33  C   UNL     1       5.551 -10.275  -4.200  0.00  0.00    +0.015 A 
ATOM     34  C   UNL     1       4.518  -9.451  -3.797  0.00  0.00    +0.005 A 
ATOM     35 BR   UNL     1       7.082 -11.765  -6.082  0.00  0.00    -0.050 Br
ENDBRANCH  28  29
ENDBRANCH   2  28
TORSDOF 11
