REMARK  Name = ZINC47145394
REMARK  3 active torsions:
REMARK  status: ('A' for Active; 'I' for Inactive)
REMARK    1  A    between atoms: C_1  and  C_2
REMARK    2  A    between atoms: C_5  and  N_8
REMARK    3  A    between atoms: C_13  and  C_27
REMARK                            x       y       z     vdW  Elec       q    Type
REMARK                         _______ _______ _______ _____ _____    ______ ____
ROOT
ATOM      1  N   UNL     1       0.059  -4.172  -0.021  0.00  0.00    -0.209 N 
ATOM      2  C   UNL     1       0.069  -4.915   1.105  0.00  0.00    +0.232 C 
ATOM      3  O   UNL     1      -0.166  -4.529   2.230  0.00  0.00    -0.274 OA
ATOM      4  C   UNL     1       0.439  -6.356   0.682  0.00  0.00    +0.110 C 
ATOM      5  C   UNL     1       1.966  -6.340   0.685  0.00  0.00    +0.072 C 
ATOM      6  C   UNL     1       2.632  -7.217  -0.300  0.00  0.00    +0.033 A 
ATOM      7  C   UNL     1       2.138  -7.784  -1.417  0.00  0.00    +0.088 A 
ATOM      8  N   UNL     1       3.036  -8.516  -2.154  0.00  0.00    -0.311 N 
ATOM      9  H   UNL     1       2.758  -8.931  -2.986  0.00  0.00    +0.170 HD
ATOM     10  C   UNL     1       4.302  -8.657  -1.720  0.00  0.00    +0.289 A 
ATOM     11  O   UNL     1       5.216  -9.273  -2.240  0.00  0.00    -0.260 OA
ATOM     12  S   UNL     1       4.320  -7.777  -0.287  0.00  0.00    -0.030 S 
ATOM     13  S   UNL     1       0.423  -7.592  -1.833  0.00  0.00    -0.093 S 
ATOM     14  C   UNL     1      -0.179  -6.319  -0.722  0.00  0.00    +0.152 C 
ATOM     15  C   UNL     1       0.062  -4.907  -1.160  0.00  0.00    +0.240 C 
ATOM     16  O   UNL     1       0.226  -4.507  -2.293  0.00  0.00    -0.274 OA
ENDROOT
BRANCH   1  21
ATOM     17  C   UNL     1      -0.018   1.503   0.010  0.00  0.00    +0.044 C 
ATOM     18  C   UNL     1       0.002  -0.004   0.002  0.00  0.00    -0.050 A 
ATOM     19  C   UNL     1       0.006  -0.688  -1.200  0.00  0.00    +0.005 A 
ATOM     20  C   UNL     1       0.025  -2.068  -1.211  0.00  0.00    +0.024 A 
ATOM     21  C   UNL     1       0.040  -2.771  -0.013  0.00  0.00    +0.044 A 
ATOM     22  C   UNL     1       0.037  -2.082   1.192  0.00  0.00    +0.024 A 
ATOM     23  C   UNL     1       0.023  -0.700   1.196  0.00  0.00    +0.005 A 
ENDBRANCH   1  21
BRANCH   5  24
ATOM     24  C   UNL     1       2.436  -6.744   2.059  0.00  0.00    -0.038 A 
ATOM     25  C   UNL     1       2.098  -7.984   2.568  0.00  0.00    +0.004 A 
ATOM     26  C   UNL     1       2.529  -8.355   3.828  0.00  0.00    +0.001 A 
ATOM     27  C   UNL     1       3.297  -7.486   4.580  0.00  0.00    +0.015 A 
ATOM     28  C   UNL     1       3.636  -6.245   4.071  0.00  0.00    +0.018 A 
ATOM     29  C   UNL     1       3.209  -5.876   2.808  0.00  0.00    +0.019 A 
ATOM     30 BR   UNL     1       4.686  -5.055   5.099  0.00  0.00    -0.050 Br
ENDBRANCH   5  24
TORSDOF 2
