REMARK  Name = ZINC00948871
REMARK  8 active torsions:
REMARK  status: ('A' for Active; 'I' for Inactive)
REMARK    1  A    between atoms: C_1  and  C_2
REMARK    2  A    between atoms: C_5  and  S_8
REMARK    3  A    between atoms: S_8  and  N_11
REMARK    4  A    between atoms: N_11  and  C_12
REMARK    5  A    between atoms: C_14  and  C_29
REMARK    6  A    between atoms: C_15  and  O_28
REMARK    7  A    between atoms: C_16  and  S_18
REMARK    8  A    between atoms: S_18  and  C_19
REMARK                            x       y       z     vdW  Elec       q    Type
REMARK                         _______ _______ _______ _____ _____    ______ ____
ROOT
ATOM      1  C   UNL     1       5.098  -1.075   0.080  0.00  0.00    +0.050 A 
ATOM      2  C   UNL     1       5.770  -2.277  -0.093  0.00  0.00    +0.031 A 
ATOM      3  C   UNL     1       5.060  -3.457  -0.219  0.00  0.00    -0.006 A 
ATOM      4  C   UNL     1       3.676  -3.443  -0.173  0.00  0.00    +0.134 A 
ATOM      5  C   UNL     1       2.998  -2.238   0.000  0.00  0.00    +0.058 A 
ATOM      6  C   UNL     1       3.711  -1.054   0.121  0.00  0.00    +0.043 A 
ATOM      7  C   UNL     1       5.794  -4.760  -0.406  0.00  0.00    +0.047 C 
ENDROOT
BRANCH   1   8
ATOM      8  N   UNL     1       5.819   0.118   0.208  0.00  0.00    -0.216 N 
ATOM      9  H   UNL     1       6.235   0.518  -0.572  0.00  0.00    +0.174 HD
BRANCH   8  10
ATOM     10  S   UNL     1       5.961   0.846   1.688  0.00  0.00    +0.072 S 
ATOM     11  O   UNL     1       6.782   1.990   1.501  0.00  0.00    -0.150 OA
ATOM     12  O   UNL     1       4.649   0.929   2.227  0.00  0.00    -0.150 OA
BRANCH  10  17
ATOM     13  C   UNL     1       9.048  -2.928   5.243  0.00  0.00    +0.044 C 
ATOM     14  C   UNL     1       8.277  -1.985   4.356  0.00  0.00    -0.050 A 
ATOM     15  C   UNL     1       8.939  -0.986   3.667  0.00  0.00    +0.005 A 
ATOM     16  C   UNL     1       8.232  -0.121   2.853  0.00  0.00    +0.029 A 
ATOM     17  C   UNL     1       6.862  -0.256   2.726  0.00  0.00    +0.109 A 
ATOM     18  C   UNL     1       6.199  -1.252   3.418  0.00  0.00    +0.029 A 
ATOM     19  C   UNL     1       6.907  -2.119   4.229  0.00  0.00    +0.005 A 
ENDBRANCH  10  17
ENDBRANCH   8  10
ENDBRANCH   1   8
BRANCH   4  20
ATOM     20  O   UNL     1       2.979  -4.605  -0.297  0.00  0.00    -0.505 OA
ATOM     21  H   UNL     1       2.750  -4.830  -1.210  0.00  0.00    +0.292 HD
ENDBRANCH   4  20
BRANCH   5  22
ATOM     22  S   UNL     1       1.237  -2.218   0.059  0.00  0.00    -0.059 S 
BRANCH  22  23
ATOM     23  C   UNL     1       0.978  -2.820   1.694  0.00  0.00    +0.140 A 
ATOM     24  N   UNL     1      -0.150  -2.953   2.355  0.00  0.00    -0.232 NA
ATOM     25  C   UNL     1      -0.200  -3.434   3.616  0.00  0.00    +0.079 A 
ATOM     26  C   UNL     1      -1.339  -3.631   4.431  0.00  0.00    +0.029 A 
ATOM     27  C   UNL     1      -1.213  -4.129   5.702  0.00  0.00    +0.002 A 
ATOM     28  C   UNL     1       0.025  -4.466   6.229  0.00  0.00    +0.001 A 
ATOM     29  C   UNL     1       1.160  -4.291   5.457  0.00  0.00    +0.017 A 
ATOM     30  C   UNL     1       1.044  -3.788   4.186  0.00  0.00    +0.040 A 
ATOM     31  S   UNL     1       2.183  -3.406   2.877  0.00  0.00    -0.061 S 
ENDBRANCH  22  23
ENDBRANCH   5  22
TORSDOF 6
