REMARK  Name = ZINC63700564
REMARK  6 active torsions:
REMARK  status: ('A' for Active; 'I' for Inactive)
REMARK    1  A    between atoms: C_5  and  C_7
REMARK    2  A    between atoms: C_7  and  C_8
REMARK    3  A    between atoms: C_8  and  N_9
REMARK    4  A    between atoms: C_10  and  C_12
REMARK    5  A    between atoms: C_12  and  N_13
REMARK    6  A    between atoms: C_14  and  C_16
REMARK                            x       y       z     vdW  Elec       q    Type
REMARK                         _______ _______ _______ _____ _____    ______ ____
ROOT
ATOM      1  N   UNL     1       1.395  -4.167   1.402  0.00  0.00    -0.314 N 
ATOM      2  C   UNL     1       1.518  -4.846   2.560  0.00  0.00    +0.230 C 
ATOM      3  O   UNL     1       1.612  -4.245   3.609  0.00  0.00    -0.274 OA
ATOM      4  H   UNL     1       1.320  -4.648   0.564  0.00  0.00    +0.149 HD
ENDROOT
BRANCH   1   5
ATOM      5  C   UNL     1       1.376  -2.702   1.411  0.00  0.00    +0.109 C 
BRANCH   5   6
ATOM      6  C   UNL     1       1.229  -2.186  -0.022  0.00  0.00    +0.055 C 
BRANCH   6  11
ATOM      7  C   UNL     1      -0.017   1.378   0.010  0.00  0.00    +0.000 A 
ATOM      8  C   UNL     1       1.171   2.086   0.002  0.00  0.00    +0.001 A 
ATOM      9  C   UNL     1       2.377   1.412  -0.013  0.00  0.00    +0.020 A 
ATOM     10  C   UNL     1       2.397   0.029  -0.021  0.00  0.00    +0.044 A 
ATOM     11  C   UNL     1       1.208  -0.679  -0.013  0.00  0.00    -0.028 A 
ATOM     12  C   UNL     1       0.002  -0.004   0.002  0.00  0.00    +0.005 A 
ATOM     13 CL   UNL     1       3.912  -0.818  -0.041  0.00  0.00    -0.083 Cl
ENDBRANCH   6  11
ENDBRANCH   5   6
ENDBRANCH   1   5
BRANCH   2  14
ATOM     14  C   UNL     1       1.538  -6.353   2.551  0.00  0.00    +0.200 C 
BRANCH  14  15
ATOM     15  N   UNL     1       1.679  -6.848   3.923  0.00  0.00    -0.303 N 
ATOM     16  C   UNL     1       1.721  -8.174   4.161  0.00  0.00    +0.246 C 
ATOM     17  O   UNL     1       1.641  -8.959   3.236  0.00  0.00    -0.270 OA
ATOM     18  H   UNL     1       1.742  -6.221   4.661  0.00  0.00    +0.150 HD
BRANCH  16  19
ATOM     19  C   UNL     1       1.863  -8.672   5.544  0.00  0.00    +0.055 A 
ATOM     20  C   UNL     1       1.948  -7.772   6.608  0.00  0.00    +0.016 A 
ATOM     21  C   UNL     1       2.081  -8.243   7.897  0.00  0.00    +0.021 A 
ATOM     22  C   UNL     1       2.130  -9.607   8.138  0.00  0.00    +0.042 A 
ATOM     23  C   UNL     1       2.046 -10.505   7.088  0.00  0.00    +0.040 A 
ATOM     24  C   UNL     1       1.906 -10.046   5.793  0.00  0.00    +0.054 A 
ATOM     25 CL   UNL     1       1.794 -11.174   4.478  0.00  0.00    -0.083 Cl
ATOM     26 CL   UNL     1       2.297 -10.191   9.764  0.00  0.00    -0.083 Cl
ENDBRANCH  16  19
ENDBRANCH  14  15
ENDBRANCH   2  14
TORSDOF 6
