REMARK  Name = ZINC30268463
REMARK  11 active torsions:
REMARK  status: ('A' for Active; 'I' for Inactive)
REMARK    1  A    between atoms: C_1  and  C_2
REMARK    2  A    between atoms: C_2  and  C_4
REMARK    3  A    between atoms: C_2  and  N_18
REMARK    4  A    between atoms: N_6  and  C_7
REMARK    5  A    between atoms: C_8  and  C_15
REMARK    6  A    between atoms: N_18  and  C_19
REMARK    7  A    between atoms: N_18  and  C_20
REMARK    8  A    between atoms: C_20  and  C_21
REMARK    9  A    between atoms: C_21  and  C_22
REMARK   10  A    between atoms: C_22  and  O_23
REMARK   11  A    between atoms: O_23  and  C_24
REMARK                            x       y       z     vdW  Elec       q    Type
REMARK                         _______ _______ _______ _____ _____    ______ ____
ROOT
ATOM      1  C   UNL     1      -0.549   1.891   6.117  0.00  0.00    +0.204 C 
ATOM      2  O   UNL     1      -1.599   2.483   5.986  0.00  0.00    -0.277 OA
ATOM      3  N   UNL     1       0.011   1.774   7.337  0.00  0.00    -0.281 N 
ATOM      4  H   UNL     1       0.964   1.237   7.456  0.00  0.00    +0.155 HD
ENDROOT
BRANCH   3   5
ATOM      5  C   UNL     1      -0.612   2.333   8.443  0.00  0.00    +0.084 A 
ATOM      6  C   UNL     1      -0.199   2.314   9.764  0.00  0.00    +0.068 A 
ATOM      7  C   UNL     1      -1.046   2.989  10.747  0.00  0.00    -0.023 A 
ATOM      8  C   UNL     1      -2.159   3.555  10.249  0.00  0.00    -0.004 A 
ATOM      9  S   UNL     1      -2.099   3.215   8.507  0.00  0.00    -0.077 S 
ATOM     10  C   UNL     1      -2.978   4.225  11.319  0.00  0.00    +0.043 C 
ATOM     11  C   UNL     1      -2.009   4.379  12.512  0.00  0.00    +0.010 C 
ATOM     12  C   UNL     1      -1.012   3.231  12.257  0.00  0.00    +0.037 C 
BRANCH   6  13
ATOM     13  C   UNL     1       1.044   1.647  10.162  0.00  0.00    +0.244 C 
ATOM     14  O   UNL     1       2.091   2.267  10.174  0.00  0.00    -0.270 OA
ATOM     15  N   UNL     1       1.027   0.346  10.515  0.00  0.00    -0.325 N 
ATOM     16  H   UNL     1       1.960  -0.155  10.813  0.00  0.00    +0.145 HD
ATOM     17  H   UNL     1       0.081  -0.215  10.504  0.00  0.00    +0.145 HD
ENDBRANCH   6  13
ENDBRANCH   3   5
BRANCH   1  19
ATOM     18  C   UNL     1       0.267  -0.227   5.117  0.00  0.00    -0.004 C 
ATOM     19  C   UNL     1       0.128   1.284   4.915  0.00  0.00    +0.016 C 
BRANCH  19  20
ATOM     20  N   UNL     1      -0.676   1.546   3.715  0.00  0.00    +0.385 N 
ATOM     21  C   UNL     1      -2.010   0.942   3.833  0.00  0.00    -0.095 C 
ATOM     22  H   UNL     1      -0.805   2.635   3.626  0.00  0.00    -0.081 HD
BRANCH  20  23
ATOM     23  C   UNL     1       0.011   1.072   2.506  0.00  0.00    -0.075 C 
BRANCH  23  24
ATOM     24  C   UNL     1      -0.729   1.579   1.267  0.00  0.00    +0.022 C 
BRANCH  24  25
ATOM     25  C   UNL     1      -0.013   1.086   0.008  0.00  0.00    +0.227 C 
BRANCH  25  26
ATOM     26  O   UNL     1      -0.704   1.559  -1.150  0.00  0.00    -0.492 OA
BRANCH  26  27
ATOM     27  C   UNL     1      -0.194   1.207  -2.360  0.00  0.00    +0.121 A 
ATOM     28  C   UNL     1       0.951   0.428  -2.430  0.00  0.00    +0.048 A 
ATOM     29  C   UNL     1       1.465   0.066  -3.661  0.00  0.00    +0.042 A 
ATOM     30  C   UNL     1       0.844   0.491  -4.823  0.00  0.00    +0.124 A 
ATOM     31  C   UNL     1      -0.296   1.274  -4.754  0.00  0.00    +0.042 A 
ATOM     32  C   UNL     1      -0.815   1.633  -3.525  0.00  0.00    +0.048 A 
ATOM     33  F   UNL     1       1.350   0.141  -6.026  0.00  0.00    -0.205 F 
ENDBRANCH  26  27
ENDBRANCH  25  26
ENDBRANCH  24  25
ENDBRANCH  23  24
ENDBRANCH  20  23
ENDBRANCH  19  20
ENDBRANCH   1  19
TORSDOF 9
