REMARK  Name = ZINC01065174
REMARK  5 active torsions:
REMARK  status: ('A' for Active; 'I' for Inactive)
REMARK    1  A    between atoms: C_4  and  N_7
REMARK    2  A    between atoms: N_9  and  C_21
REMARK    3  A    between atoms: C_10  and  C_13
REMARK    4  A    between atoms: C_21  and  C_22
REMARK    5  A    between atoms: C_22  and  O_23
REMARK                            x       y       z     vdW  Elec       q    Type
REMARK                         _______ _______ _______ _____ _____    ______ ____
ROOT
ATOM      1  N   UNL     1       2.473   4.422   2.350  0.00  0.00    -0.224 NA
ATOM      2  C   UNL     1       2.993   4.312   1.142  0.00  0.00    +0.174 A 
ATOM      3  N   UNL     1       2.388   3.934  -0.033  0.00  0.00    -0.317 N 
ATOM      4  C   UNL     1       3.139   3.899  -1.177  0.00  0.00    +0.058 A 
ATOM      5  C   UNL     1       4.446   4.228  -1.126  0.00  0.00    +0.075 A 
ATOM      6  S   UNL     1       4.669   4.613   0.603  0.00  0.00    -0.057 S 
ENDROOT
BRANCH   4   7
ATOM      7  C   UNL     1       2.521   3.502  -2.460  0.00  0.00    +0.001 A 
ATOM      8  C   UNL     1       3.099   2.494  -3.233  0.00  0.00    +0.011 A 
ATOM      9  C   UNL     1       2.515   2.123  -4.427  0.00  0.00    +0.022 A 
ATOM     10  C   UNL     1       1.365   2.757  -4.865  0.00  0.00    +0.059 A 
ATOM     11  C   UNL     1       0.789   3.763  -4.105  0.00  0.00    +0.060 A 
ATOM     12  C   UNL     1       1.362   4.138  -2.906  0.00  0.00    +0.031 A 
ATOM     13 CL   UNL     1      -0.653   4.552  -4.661  0.00  0.00    -0.082 Cl
ATOM     14 CL   UNL     1       0.640   2.289  -6.371  0.00  0.00    -0.082 Cl
ENDBRANCH   4   7
BRANCH   1  18
ATOM     15  C   UNL     1       4.757   5.923   5.456  0.00  0.00    +0.000 A 
ATOM     16  C   UNL     1       4.083   6.791   4.615  0.00  0.00    +0.002 A 
ATOM     17  C   UNL     1       3.320   6.298   3.577  0.00  0.00    +0.028 A 
ATOM     18  C   UNL     1       3.228   4.918   3.376  0.00  0.00    +0.067 A 
ATOM     19  C   UNL     1       3.906   4.048   4.233  0.00  0.00    +0.028 A 
ATOM     20  C   UNL     1       4.670   4.555   5.263  0.00  0.00    +0.002 A 
ENDBRANCH   1  18
BRANCH   3  21
ATOM     21  C   UNL     1       0.966   3.582  -0.062  0.00  0.00    +0.152 C 
BRANCH  21  22
ATOM     22  C   UNL     1       0.815   2.063   0.047  0.00  0.00    +0.177 C 
BRANCH  22  23
ATOM     23  O   UNL     1      -0.572   1.720   0.019  0.00  0.00    -0.393 OA
ATOM     24  H   UNL     1      -0.744   0.770   0.084  0.00  0.00    +0.209 HD
ENDBRANCH  22  23
ENDBRANCH  21  22
ENDBRANCH   3  21
TORSDOF 5
