REMARK  Name = ZINC39780132
REMARK  9 active torsions:
REMARK  status: ('A' for Active; 'I' for Inactive)
REMARK    1  A    between atoms: C_1  and  C_2
REMARK    2  A    between atoms: C_2  and  O_3
REMARK    3  A    between atoms: O_3  and  C_4
REMARK    4  A    between atoms: C_4  and  C_6
REMARK    5  A    between atoms: C_7  and  C_39
REMARK    6  A    between atoms: C_14  and  C_15
REMARK    7  A    between atoms: C_25  and  C_27
REMARK    8  A    between atoms: C_36  and  O_37
REMARK    9  A    between atoms: O_37  and  C_38
REMARK                            x       y       z     vdW  Elec       q    Type
REMARK                         _______ _______ _______ _____ _____    ______ ____
ROOT
ATOM      1  C   UNL     1       1.411  -2.458  -2.610  0.00  0.00    +0.085 C 
ATOM      2  C   UNL     1       1.879  -3.731  -2.768  0.00  0.00    +0.053 C 
ATOM      3  N   UNL     1       2.593  -4.061  -3.838  0.00  0.00    -0.228 NA
ATOM      4  C   UNL     1       2.907  -3.242  -4.808  0.00  0.00    +0.178 A 
ATOM      5  N   UNL     1       2.536  -1.917  -4.847  0.00  0.00    -0.275 N 
ATOM      6  C   UNL     1       2.917  -1.173  -5.893  0.00  0.00    +0.268 A 
ATOM      7  O   UNL     1       2.614   0.002  -5.971  0.00  0.00    -0.266 OA
ATOM      8  C   UNL     1       3.719  -1.826  -6.948  0.00  0.00    +0.080 A 
ATOM      9  C   UNL     1       4.233  -1.296  -8.115  0.00  0.00    +0.026 C 
ATOM     10  S   UNL     1       3.841  -3.488  -6.305  0.00  0.00    -0.046 S 
ATOM     11  C   UNL     1       1.723  -1.448  -3.689  0.00  0.00    +0.166 C 
ATOM     12  C   UNL     1       1.585  -4.771  -1.717  0.00  0.00    +0.066 C 
ENDROOT
BRANCH   9  13
ATOM     13  C   UNL     1       4.973  -2.104  -8.982  0.00  0.00    -0.018 C 
ATOM     14  C   UNL     1       5.562  -1.728 -10.188  0.00  0.00    +0.003 A 
ATOM     15  C   UNL     1       5.608  -0.502 -10.887  0.00  0.00    +0.010 A 
ATOM     16  C   UNL     1       6.271  -0.425 -12.069  0.00  0.00    +0.001 A 
ATOM     17  C   UNL     1       6.916  -1.536 -12.622  0.00  0.00    +0.002 A 
ATOM     18  C   UNL     1       6.914  -2.743 -12.008  0.00  0.00    +0.026 A 
ATOM     19  C   UNL     1       6.241  -2.903 -10.765  0.00  0.00    +0.043 A 
ATOM     20  N   UNL     1       6.094  -3.949  -9.984  0.00  0.00    -0.380 N 
ATOM     21  C   UNL     1       5.308  -3.569  -8.806  0.00  0.00    +0.149 C 
ATOM     22  H   UNL     1       6.453  -4.833 -10.157  0.00  0.00    +0.160 HD
ENDBRANCH   9  13
BRANCH  11  23
ATOM     23  C   UNL     1       2.459  -0.298  -3.049  0.00  0.00    +0.029 A 
ATOM     24  C   UNL     1       1.820   0.941  -2.876  0.00  0.00    -0.009 A 
ATOM     25  C   UNL     1       0.492   1.140  -3.292  0.00  0.00    +0.009 A 
ATOM     26  C   UNL     1      -0.095   2.354  -3.108  0.00  0.00    +0.001 A 
ATOM     27  C   UNL     1       0.600   3.405  -2.514  0.00  0.00    +0.001 A 
ATOM     28  C   UNL     1       1.887   3.249  -2.100  0.00  0.00    +0.008 A 
ATOM     29  C   UNL     1       2.528   2.010  -2.272  0.00  0.00    -0.017 A 
ATOM     30  C   UNL     1       3.856   1.812  -1.855  0.00  0.00    +0.012 A 
ATOM     31  C   UNL     1       4.446   0.600  -2.037  0.00  0.00    +0.046 A 
ATOM     32  C   UNL     1       3.748  -0.458  -2.628  0.00  0.00    +0.126 A 
BRANCH  32  33
ATOM     33  O   UNL     1       4.363  -1.659  -2.791  0.00  0.00    -0.495 OA
ATOM     34  C   UNL     1       5.712  -1.764  -2.331  0.00  0.00    +0.277 C 
ENDBRANCH  32  33
ENDBRANCH  11  23
BRANCH   1  35
ATOM     35  C   UNL     1       0.655  -2.100  -1.479  0.00  0.00    +0.339 C 
ATOM     36  O   UNL     1       0.311  -2.953  -0.681  0.00  0.00    -0.245 OA
BRANCH  35  37
ATOM     37  O   UNL     1       0.310  -0.810  -1.279  0.00  0.00    -0.462 OA
BRANCH  37  39
ATOM     38  C   UNL     1      -0.750   0.983  -0.053  0.00  0.00    +0.048 C 
ATOM     39  C   UNL     1      -0.458  -0.518  -0.110  0.00  0.00    +0.229 C 
ENDBRANCH  37  39
ENDBRANCH  35  37
ENDBRANCH   1  35
TORSDOF 6
