REMARK  Name = ZINC67177170
REMARK  4 active torsions:
REMARK  status: ('A' for Active; 'I' for Inactive)
REMARK    1  A    between atoms: C_1  and  C_2
REMARK    2  A    between atoms: C_4  and  C_10
REMARK    3  A    between atoms: C_5  and  O_9
REMARK    4  A    between atoms: C_16  and  C_19
REMARK                            x       y       z     vdW  Elec       q    Type
REMARK                         _______ _______ _______ _____ _____    ______ ____
ROOT
ATOM      1  C   UNL     1       0.028  -2.813  -2.487  0.00  0.00    +0.250 C 
ATOM      2  O   UNL     1      -0.077  -2.210  -1.436  0.00  0.00    -0.270 OA
ATOM      3  N   UNL     1       0.115  -2.134  -3.648  0.00  0.00    -0.292 N 
ATOM      4  C   UNL     1       0.213  -0.666  -3.661  0.00  0.00    +0.136 C 
ATOM      5  C   UNL     1      -0.842  -0.119  -4.630  0.00  0.00    +0.179 C 
ATOM      6  O   UNL     1      -0.707  -0.776  -5.892  0.00  0.00    -0.369 OA
ATOM      7  C   UNL     1      -0.936  -2.186  -5.846  0.00  0.00    +0.168 C 
ATOM      8  C   UNL     1       0.120  -2.839  -4.940  0.00  0.00    +0.144 C 
ENDROOT
BRANCH   1  12
ATOM      9  C   UNL     1       2.084  -7.076  -4.057  0.00  0.00    +0.044 C 
ATOM     10  C   UNL     1       1.047  -6.345  -3.244  0.00  0.00    -0.048 A 
ATOM     11  C   UNL     1       1.021  -4.967  -3.244  0.00  0.00    +0.020 A 
ATOM     12  C   UNL     1       0.060  -4.288  -2.491  0.00  0.00    +0.080 A 
ATOM     13  C   UNL     1      -0.872  -5.016  -1.740  0.00  0.00    +0.143 A 
ATOM     14  C   UNL     1      -0.832  -6.403  -1.751  0.00  0.00    +0.060 A 
ATOM     15  C   UNL     1       0.120  -7.062  -2.505  0.00  0.00    +0.022 A 
ATOM     16 BR   UNL     1      -2.086  -7.392  -0.739  0.00  0.00    -0.046 Br
BRANCH  13  17
ATOM     17  O   UNL     1      -1.810  -4.367  -1.004  0.00  0.00    -0.505 OA
ATOM     18  H   UNL     1      -2.631  -4.189  -1.482  0.00  0.00    +0.292 HD
ENDBRANCH  13  17
ENDBRANCH   1  12
BRANCH   7  19
ATOM     19  C   UNL     1      -0.829  -2.759  -7.236  0.00  0.00    +0.018 A 
ATOM     20  C   UNL     1      -0.069  -2.114  -8.193  0.00  0.00    +0.009 A 
ATOM     21  C   UNL     1       0.030  -2.639  -9.468  0.00  0.00    +0.001 A 
ATOM     22  C   UNL     1      -0.632  -3.811  -9.787  0.00  0.00    +0.003 A 
ATOM     23  C   UNL     1      -1.392  -4.458  -8.831  0.00  0.00    +0.039 A 
ATOM     24  C   UNL     1      -1.487  -3.935  -7.553  0.00  0.00    +0.129 A 
ATOM     25  F   UNL     1      -2.226  -4.569  -6.616  0.00  0.00    -0.205 F 
ENDBRANCH   7  19
TORSDOF 3
