REMARK  Name = ZINC21722940
REMARK  5 active torsions:
REMARK  status: ('A' for Active; 'I' for Inactive)
REMARK    1  A    between atoms: C_1  and  C_2
REMARK    2  A    between atoms: C_2  and  O_3
REMARK    3  A    between atoms: O_3  and  C_4
REMARK    4  A    between atoms: C_9  and  N_10
REMARK    5  A    between atoms: C_23  and  C_25
REMARK                            x       y       z     vdW  Elec       q    Type
REMARK                         _______ _______ _______ _____ _____    ______ ____
ROOT
ATOM      1  N   UNL     1      -1.239   2.075   0.019  0.00  0.00    -0.266 N 
ATOM      2  C   UNL     1      -1.257   3.418   0.128  0.00  0.00    +0.312 C 
ATOM      3  O   UNL     1      -0.213   4.042   0.127  0.00  0.00    -0.252 OA
ATOM      4  N   UNL     1      -2.432   4.069   0.239  0.00  0.00    -0.241 N 
ATOM      5  C   UNL     1      -3.623   3.342   0.239  0.00  0.00    +0.060 A 
ATOM      6  C   UNL     1      -3.930   2.456   1.260  0.00  0.00    +0.025 A 
ATOM      7  C   UNL     1      -5.143   1.791   1.240  0.00  0.00    +0.002 A 
ATOM      8  C   UNL     1      -6.045   2.009   0.215  0.00  0.00    +0.002 A 
ATOM      9  C   UNL     1      -5.734   2.880  -0.815  0.00  0.00    +0.025 A 
ATOM     10  C   UNL     1      -4.511   3.530  -0.808  0.00  0.00    +0.053 A 
ATOM     11  N   UNL     1      -4.092   4.332  -1.862  0.00  0.00    -0.316 N 
ATOM     12  C   UNL     1      -3.829   5.660  -1.767  0.00  0.00    +0.017 C 
ATOM     13  C   UNL     1      -3.089   6.230  -0.801  0.00  0.00    +0.038 C 
ATOM     14  C   UNL     1      -2.437   5.512   0.361  0.00  0.00    +0.155 C 
ATOM     15  C   UNL     1      -2.858   7.626  -0.811  0.00  0.00    +0.163 C 
ATOM     16  O   UNL     1      -2.202   8.117   0.087  0.00  0.00    -0.292 OA
ATOM     17  C   UNL     1      -3.392   8.522  -1.888  0.00  0.00    +0.080 C 
ATOM     18  C   UNL     1      -3.551   7.701  -3.173  0.00  0.00    +0.014 C 
ATOM     19  C   UNL     1      -4.458   6.513  -2.857  0.00  0.00    +0.051 C 
ATOM     20  H   UNL     1      -2.183   1.518  -0.073  0.00  0.00    +0.156 HD
ATOM     21  H   UNL     1      -3.952   3.897  -2.863  0.00  0.00    +0.152 HD
ENDROOT
BRANCH   1  27
ATOM     22  C   UNL     1       0.084   0.139  -0.586  0.00  0.00    +0.142 A 
ATOM     23  C   UNL     1       1.295  -0.533  -0.583  0.00  0.00    +0.047 A 
ATOM     24  C   UNL     1       2.400   0.035   0.023  0.00  0.00    +0.004 A 
ATOM     25  C   UNL     1       2.300   1.274   0.629  0.00  0.00    +0.002 A 
ATOM     26  C   UNL     1       1.095   1.951   0.630  0.00  0.00    +0.027 A 
ATOM     27  C   UNL     1      -0.017   1.387   0.024  0.00  0.00    +0.077 A 
BRANCH  22  28
ATOM     28  O   UNL     1      -1.004  -0.418  -1.183  0.00  0.00    -0.490 OA
BRANCH  28  30
ATOM     29  C   UNL     1      -2.149  -2.162  -2.403  0.00  0.00    +0.048 C 
ATOM     30  C   UNL     1      -0.826  -1.700  -1.788  0.00  0.00    +0.226 C 
ENDBRANCH  28  30
ENDBRANCH  22  28
ENDBRANCH   1  27
BRANCH  14  31
ATOM     31  C   UNL     1      -3.166   5.882   1.627  0.00  0.00    +0.015 A 
ATOM     32  C   UNL     1      -2.869   6.845   2.533  0.00  0.00    +0.013 A 
ATOM     33  C   UNL     1      -3.691   7.007   3.633  0.00  0.00    +0.008 A 
ATOM     34  C   UNL     1      -4.769   6.198   3.773  0.00  0.00    +0.045 A 
ATOM     35  S   UNL     1      -4.650   5.169   2.319  0.00  0.00    -0.099 S 
ENDBRANCH  14  31
TORSDOF 4
