REMARK  Name = ZINC38872583
REMARK  11 active torsions:
REMARK  status: ('A' for Active; 'I' for Inactive)
REMARK    1  A    between atoms: C_1  and  C_2
REMARK    2  A    between atoms: C_2  and  C_4
REMARK    3  A    between atoms: C_2  and  N_14
REMARK    4  A    between atoms: C_7  and  O_12
REMARK    5  A    between atoms: C_8  and  O_10
REMARK    6  A    between atoms: O_10  and  C_11
REMARK    7  A    between atoms: O_12  and  C_13
REMARK    8  A    between atoms: C_15  and  C_17
REMARK    9  A    between atoms: N_20  and  C_23
REMARK   10  A    between atoms: C_23  and  C_24
REMARK   11  A    between atoms: C_26  and  C_29
REMARK                            x       y       z     vdW  Elec       q    Type
REMARK                         _______ _______ _______ _____ _____    ______ ____
ROOT
ATOM      1  C   UNL     1       2.783  -1.099   2.395  0.00  0.00    +0.071 C 
ATOM      2  C   UNL     1       2.307  -2.515   2.731  0.00  0.00    -0.006 C 
ATOM      3  C   UNL     1       3.107  -3.046   3.923  0.00  0.00    -0.077 C 
ATOM      4  N   UNL     1       4.535  -3.075   3.584  0.00  0.00    +0.386 N 
ATOM      5  C   UNL     1       5.015  -1.711   3.330  0.00  0.00    -0.077 C 
ATOM      6  C   UNL     1       4.288  -1.129   2.116  0.00  0.00    -0.006 C 
ATOM      7  H   UNL     1       4.673  -3.638   2.758  0.00  0.00    -0.081 HD
ENDROOT
BRANCH   1   9
ATOM      8  N   UNL     1       0.711  -0.489   1.189  0.00  0.00    -0.309 N 
ATOM      9  C   UNL     1       2.054  -0.600   1.174  0.00  0.00    +0.216 C 
ATOM     10  O   UNL     1       2.676  -0.297   0.177  0.00  0.00    -0.276 OA
ATOM     11  H   UNL     1       0.213  -0.731   1.986  0.00  0.00    +0.149 HD
BRANCH   8  13
ATOM     12  C   UNL     1      -0.019   1.526   0.010  0.00  0.00    +0.033 C 
ATOM     13  C   UNL     1       0.002  -0.004   0.002  0.00  0.00    +0.100 C 
BRANCH  13  14
ATOM     14  C   UNL     1      -1.412  -0.526   0.013  0.00  0.00    -0.024 A 
ATOM     15  C   UNL     1      -2.122  -0.570   1.198  0.00  0.00    +0.009 A 
ATOM     16  C   UNL     1      -3.419  -1.048   1.213  0.00  0.00    +0.050 A 
ATOM     17  C   UNL     1      -4.011  -1.483   0.038  0.00  0.00    +0.162 A 
ATOM     18  C   UNL     1      -3.296  -1.438  -1.155  0.00  0.00    +0.162 A 
ATOM     19  C   UNL     1      -1.998  -0.953  -1.164  0.00  0.00    +0.054 A 
BRANCH  18  20
ATOM     20  O   UNL     1      -3.873  -1.863  -2.311  0.00  0.00    -0.491 OA
ATOM     21  C   UNL     1      -3.080  -1.788  -3.497  0.00  0.00    +0.277 C 
ENDBRANCH  18  20
BRANCH  17  22
ATOM     22  O   UNL     1      -5.286  -1.954   0.051  0.00  0.00    -0.491 OA
ATOM     23  C   UNL     1      -5.958  -1.971   1.313  0.00  0.00    +0.277 C 
ENDBRANCH  17  22
ENDBRANCH  13  14
ENDBRANCH   8  13
ENDBRANCH   1   9
BRANCH   4  24
ATOM     24  C   UNL     1       5.290  -3.658   4.701  0.00  0.00    +0.022 C 
BRANCH  24  25
ATOM     25  C   UNL     1       6.738  -3.802   4.308  0.00  0.00    +0.211 A 
ATOM     26  N   UNL     1       7.668  -2.907   4.487  0.00  0.00    -0.193 NA
ATOM     27  C   UNL     1       8.843  -3.364   4.019  0.00  0.00    +0.203 A 
ATOM     28  N   UNL     1       8.661  -4.568   3.535  0.00  0.00    -0.056 NA
ATOM     29  O   UNL     1       7.287  -4.873   3.722  0.00  0.00    -0.340 OA
BRANCH  27  30
ATOM     30  C   UNL     1      10.131  -2.628   4.047  0.00  0.00    +0.041 A 
ATOM     31  C   UNL     1      10.194  -1.349   4.597  0.00  0.00    +0.014 A 
ATOM     32  C   UNL     1      11.394  -0.669   4.621  0.00  0.00    +0.021 A 
ATOM     33  C   UNL     1      12.535  -1.254   4.099  0.00  0.00    +0.042 A 
ATOM     34  C   UNL     1      12.479  -2.523   3.550  0.00  0.00    +0.040 A 
ATOM     35  C   UNL     1      11.284  -3.216   3.527  0.00  0.00    +0.053 A 
ATOM     36 CL   UNL     1      11.216  -4.811   2.846  0.00  0.00    -0.083 Cl
ATOM     37 CL   UNL     1      14.041  -0.391   4.131  0.00  0.00    -0.083 Cl
ENDBRANCH  27  30
ENDBRANCH  24  25
ENDBRANCH   4  24
TORSDOF 8
