REMARK  Name = ZINC21539310
REMARK  4 active torsions:
REMARK  status: ('A' for Active; 'I' for Inactive)
REMARK    1  A    between atoms: C_1  and  C_2
REMARK    2  A    between atoms: C_5  and  C_35
REMARK    3  A    between atoms: C_6  and  N_8
REMARK    4  A    between atoms: C_23  and  C_25
REMARK                            x       y       z     vdW  Elec       q    Type
REMARK                         _______ _______ _______ _____ _____    ______ ____
ROOT
ATOM      1  N   UNL     1       5.698   0.328  -3.003  0.00  0.00    -0.269 N 
ATOM      2  C   UNL     1       5.251   0.732  -1.798  0.00  0.00    +0.308 C 
ATOM      3  O   UNL     1       5.855   1.588  -1.181  0.00  0.00    -0.252 OA
ATOM      4  N   UNL     1       4.135   0.186  -1.276  0.00  0.00    -0.268 N 
ATOM      5  C   UNL     1       3.376  -0.855  -1.992  0.00  0.00    +0.148 C 
ATOM      6  C   UNL     1       2.862  -1.942  -1.075  0.00  0.00    +0.005 A 
ATOM      7  C   UNL     1       3.357  -3.262  -1.093  0.00  0.00    -0.030 A 
ATOM      8  C   UNL     1       2.785  -4.163  -0.253  0.00  0.00    -0.005 A 
ATOM      9  S   UNL     1       1.560  -3.216   0.615  0.00  0.00    -0.075 S 
ATOM     10  C   UNL     1       1.874  -1.670  -0.179  0.00  0.00    +0.090 A 
ATOM     11  N   UNL     1       1.304  -0.415  -0.004  0.00  0.00    -0.312 N 
ATOM     12  C   UNL     1       0.013  -0.022   0.093  0.00  0.00    +0.092 A 
ATOM     13  C   UNL     1      -0.009   1.328   0.166  0.00  0.00    +0.020 A 
ATOM     14  C   UNL     1       1.329   1.778   0.130  0.00  0.00    +0.025 A 
ATOM     15  C   UNL     1       2.115   0.695   0.051  0.00  0.00    +0.049 A 
ATOM     16  C   UNL     1       3.612   0.603   0.048  0.00  0.00    +0.155 C 
ATOM     17  C   UNL     1       3.121  -5.611  -0.100  0.00  0.00    +0.043 C 
ATOM     18  C   UNL     1       3.993  -6.033  -1.292  0.00  0.00    +0.005 C 
ATOM     19  C   UNL     1       5.097  -4.990  -1.486  0.00  0.00    +0.005 C 
ATOM     20  C   UNL     1       4.498  -3.686  -2.015  0.00  0.00    +0.036 C 
ATOM     21  H   UNL     1       5.117  -0.397  -3.591  0.00  0.00    +0.156 HD
ENDROOT
BRANCH   1  27
ATOM     22  C   UNL     1       9.060   3.914  -3.137  0.00  0.00    +0.044 C 
ATOM     23  C   UNL     1       8.555   2.568  -3.590  0.00  0.00    -0.049 A 
ATOM     24  C   UNL     1       9.283   1.830  -4.505  0.00  0.00    +0.004 A 
ATOM     25  C   UNL     1       8.823   0.595  -4.923  0.00  0.00    +0.005 A 
ATOM     26  C   UNL     1       7.638   0.092  -4.423  0.00  0.00    -0.029 A 
ATOM     27  C   UNL     1       6.902   0.833  -3.508  0.00  0.00    +0.038 A 
ATOM     28  C   UNL     1       7.366   2.073  -3.090  0.00  0.00    +0.027 A 
ATOM     29  C   UNL     1       7.141  -1.257  -4.875  0.00  0.00    +0.045 C 
ENDBRANCH   1  27
BRANCH  16  30
ATOM     30  C   UNL     1       4.044  -0.401   1.085  0.00  0.00    -0.021 A 
ATOM     31  C   UNL     1       3.283  -0.590   2.224  0.00  0.00    +0.006 A 
ATOM     32  C   UNL     1       3.677  -1.514   3.173  0.00  0.00    +0.000 A 
ATOM     33  C   UNL     1       4.838  -2.243   2.989  0.00  0.00    +0.000 A 
ATOM     34  C   UNL     1       5.601  -2.051   1.853  0.00  0.00    +0.000 A 
ATOM     35  C   UNL     1       5.204  -1.130   0.901  0.00  0.00    +0.006 A 
ENDBRANCH  16  30
TORSDOF 2
