REMARK  Name = ZINC23643621
REMARK  5 active torsions:
REMARK  status: ('A' for Active; 'I' for Inactive)
REMARK    1  A    between atoms: C_1  and  C_2
REMARK    2  A    between atoms: C_5  and  C_28
REMARK    3  A    between atoms: N_8  and  C_10
REMARK    4  A    between atoms: C_10  and  C_12
REMARK    5  A    between atoms: C_10  and  C_19
REMARK                            x       y       z     vdW  Elec       q    Type
REMARK                         _______ _______ _______ _____ _____    ______ ____
ROOT
ATOM      1  C   UNL     1       2.787  -0.345  -2.509  0.00  0.00    +0.006 C 
ENDROOT
BRANCH   1   7
ATOM      2  C   UNL     1      -0.019   1.526   0.010  0.00  0.00    +0.005 C 
ATOM      3  C   UNL     1       0.002  -0.004   0.002  0.00  0.00    -0.031 C 
ATOM      4  C   UNL     1       0.743  -0.512   1.242  0.00  0.00    +0.003 C 
ATOM      5  C   UNL     1       2.194  -0.026   1.196  0.00  0.00    -0.031 C 
ATOM      6  C   UNL     1       2.851  -0.519  -0.096  0.00  0.00    -0.074 C 
ATOM      7  N   UNL     1       2.106  -0.006  -1.252  0.00  0.00    +0.388 N 
ATOM      8  C   UNL     1       0.723  -0.498  -1.254  0.00  0.00    -0.074 C 
ATOM      9  C   UNL     1       2.957  -0.579   2.401  0.00  0.00    +0.005 C 
ATOM     10  H   UNL     1       2.072   1.090  -1.169  0.00  0.00    -0.080 HD
ENDBRANCH   1   7
BRANCH   1  11
ATOM     11  C   UNL     1       4.166   0.264  -2.513  0.00  0.00    +0.050 A 
ATOM     12  C   UNL     1       5.332  -0.289  -2.866  0.00  0.00    +0.282 A 
ATOM     13  N   UNL     1       6.498   0.436  -2.804  0.00  0.00    -0.170 N 
ATOM     14  C   UNL     1       6.410   1.721  -2.363  0.00  0.00    +0.199 A 
ATOM     15  S   UNL     1       4.673   1.910  -2.041  0.00  0.00    -0.050 S 
ATOM     16  N   UNL     1       7.597   2.264  -2.359  0.00  0.00    -0.208 NA
ATOM     17  C   UNL     1       8.490   1.375  -2.788  0.00  0.00    +0.246 A 
ATOM     18  N   UNL     1       7.880   0.255  -3.070  0.00  0.00    -0.150 NA
ATOM     19  O   UNL     1       5.364  -1.581  -3.293  0.00  0.00    -0.265 OA
ENDBRANCH   1  11
BRANCH   1  20
ATOM     20  C   UNL     1       1.996   0.197  -3.671  0.00  0.00    -0.053 A 
ATOM     21  C   UNL     1       1.403   1.443  -3.583  0.00  0.00    +0.002 A 
ATOM     22  C   UNL     1       0.680   1.944  -4.649  0.00  0.00    +0.003 A 
ATOM     23  C   UNL     1       0.541   1.194  -5.803  0.00  0.00    +0.038 A 
ATOM     24  C   UNL     1       1.130  -0.056  -5.891  0.00  0.00    +0.124 A 
ATOM     25  C   UNL     1       1.858  -0.554  -4.823  0.00  0.00    +0.040 A 
ATOM     26  F   UNL     1       0.994  -0.789  -7.017  0.00  0.00    -0.205 F 
ENDBRANCH   1  20
TORSDOF 3
