REMARK  Name = ZINC02747723
REMARK  15 active torsions:
REMARK  status: ('A' for Active; 'I' for Inactive)
REMARK    1  A    between atoms: C_1  and  C_2
REMARK    2  A    between atoms: C_2  and  O_3
REMARK    3  A    between atoms: O_3  and  C_4
REMARK    4  A    between atoms: C_4  and  C_6
REMARK    5  A    between atoms: C_7  and  C_36
REMARK    6  A    between atoms: C_8  and  C_35
REMARK    7  A    between atoms: C_10  and  N_11
REMARK    8  A    between atoms: C_12  and  C_14
REMARK    9  A    between atoms: C_14  and  S_15
REMARK   10  A    between atoms: S_15  and  C_16
REMARK   11  A    between atoms: C_19  and  C_28
REMARK   12  A    between atoms: N_20  and  C_21
REMARK   13  A    between atoms: C_24  and  C_27
REMARK   14  A    between atoms: C_30  and  C_34
REMARK   15  A    between atoms: N_31  and  C_33
REMARK                            x       y       z     vdW  Elec       q    Type
REMARK                         _______ _______ _______ _____ _____    ______ ____
ROOT
ATOM      1  C   UNL     1      -1.363  -3.198  -7.622  0.00  0.00    +0.197 A 
ATOM      2  N   UNL     1      -1.314  -1.894  -7.775  0.00  0.00    -0.122 NA
ATOM      3  N   UNL     1      -1.314  -1.595  -9.025  0.00  0.00    -0.126 NA
ATOM      4  C   UNL     1      -1.363  -2.689  -9.749  0.00  0.00    +0.190 A 
ATOM      5  N   UNL     1      -1.391  -3.752  -8.873  0.00  0.00    -0.269 N 
ENDROOT
BRANCH   5   6
ATOM      6  C   UNL     1      -1.440  -5.115  -9.196  0.00  0.00    +0.051 A 
ATOM      7  C   UNL     1      -0.378  -5.711  -9.862  0.00  0.00    +0.026 A 
ATOM      8  C   UNL     1      -0.426  -7.056 -10.173  0.00  0.00    +0.005 A 
ATOM      9  C   UNL     1      -1.536  -7.806  -9.832  0.00  0.00    -0.050 A 
ATOM     10  C   UNL     1      -2.599  -7.214  -9.174  0.00  0.00    +0.005 A 
ATOM     11  C   UNL     1      -2.553  -5.871  -8.855  0.00  0.00    +0.026 A 
ATOM     12  C   UNL     1      -1.589  -9.272 -10.179  0.00  0.00    +0.044 C 
ENDBRANCH   5   6
BRANCH   4  13
ATOM     13  C   UNL     1      -1.380  -2.766 -11.225  0.00  0.00    +0.130 A 
ATOM     14  C   UNL     1      -1.345  -1.672 -12.114  0.00  0.00    +0.056 A 
ATOM     15  C   UNL     1      -1.376  -2.160 -13.373  0.00  0.00    +0.037 A 
ATOM     16  N   UNL     1      -1.428  -3.507 -13.297  0.00  0.00    -0.271 N 
ATOM     17  N   UNL     1      -1.424  -3.870 -11.944  0.00  0.00    -0.168 NA
ATOM     18  C   UNL     1      -1.474  -4.430 -14.434  0.00  0.00    +0.172 C 
ATOM     19  C   UNL     1      -1.355  -1.344 -14.640  0.00  0.00    +0.065 C 
ENDBRANCH   4  13
BRANCH   1  20
ATOM     20  S   UNL     1      -1.382  -4.071  -6.091  0.00  0.00    -0.076 S 
BRANCH  20  21
ATOM     21  C   UNL     1      -1.318  -2.680  -4.935  0.00  0.00    +0.173 C 
BRANCH  21  23
ATOM     22  N   UNL     1      -1.281  -2.340  -2.485  0.00  0.00    -0.279 N 
ATOM     23  C   UNL     1      -1.324  -3.201  -3.521  0.00  0.00    +0.228 C 
ATOM     24  O   UNL     1      -1.368  -4.395  -3.315  0.00  0.00    -0.275 OA
ATOM     25  H   UNL     1      -1.246  -1.384  -2.650  0.00  0.00    +0.155 HD
BRANCH  22  30
ATOM     26  C   UNL     1      -1.248  -2.096   0.003  0.00  0.00    +0.091 A 
ATOM     27  C   UNL     1      -1.260  -2.860   1.228  0.00  0.00    -0.025 A 
ATOM     28  C   UNL     1      -1.318  -4.199   1.116  0.00  0.00    -0.008 A 
ATOM     29  S   UNL     1      -1.345  -4.463  -0.645  0.00  0.00    -0.078 S 
ATOM     30  C   UNL     1      -1.287  -2.819  -1.185  0.00  0.00    +0.086 A 
ATOM     31  C   UNL     1      -1.348  -5.228   2.216  0.00  0.00    +0.052 C 
ATOM     32  C   UNL     1      -1.215  -2.185   2.575  0.00  0.00    +0.045 C 
BRANCH  26  33
ATOM     33  C   UNL     1      -1.191  -0.633   0.010  0.00  0.00    +0.342 C 
ATOM     34  O   UNL     1      -2.220   0.016   0.023  0.00  0.00    -0.245 OA
BRANCH  33  35
ATOM     35  O   UNL     1       0.002  -0.004   0.002  0.00  0.00    -0.461 OA
BRANCH  35  37
ATOM     36  C   UNL     1       1.418   1.977  -0.001  0.00  0.00    +0.048 C 
ATOM     37  C   UNL     1      -0.018   1.448   0.010  0.00  0.00    +0.229 C 
ENDBRANCH  35  37
ENDBRANCH  33  35
ENDBRANCH  26  33
ENDBRANCH  22  30
ENDBRANCH  21  23
ENDBRANCH  20  21
ENDBRANCH   1  20
TORSDOF 9
