REMARK  Name = ZINC65394653
REMARK  6 active torsions:
REMARK  status: ('A' for Active; 'I' for Inactive)
REMARK    1  A    between atoms: C_1  and  C_2
REMARK    2  A    between atoms: C_6  and  C_9
REMARK    3  A    between atoms: C_11  and  C_23
REMARK    4  A    between atoms: N_15  and  C_16
REMARK    5  A    between atoms: C_16  and  C_17
REMARK    6  A    between atoms: C_17  and  C_18
REMARK                            x       y       z     vdW  Elec       q    Type
REMARK                         _______ _______ _______ _____ _____    ______ ____
ROOT
ATOM      1  C   UNL     1      -0.024  -2.637   2.631  0.00  0.00    -0.010 C 
ATOM      2  C   UNL     1      -1.350  -3.404   2.798  0.00  0.00    +0.073 C 
ATOM      3  N   UNL     1      -0.998  -4.840   2.689  0.00  0.00    -0.327 NA
ATOM      4  C   UNL     1       0.440  -4.897   3.058  0.00  0.00    +0.006 C 
ATOM      5  N   UNL     1       1.017  -3.675   2.438  0.00  0.00    +0.394 N 
ATOM      6  H   UNL     1      -1.555  -5.397   3.320  0.00  0.00    +0.120 HD
ATOM      7  H   UNL     1       1.186  -3.825   1.454  0.00  0.00    -0.079 HD
ENDROOT
BRANCH   1  13
ATOM      8  C   UNL     1      -0.391   1.951   0.663  0.00  0.00    +0.045 C 
ATOM      9  C   UNL     1      -0.268   0.460   0.483  0.00  0.00    -0.032 A 
ATOM     10  C   UNL     1      -0.217  -0.080  -0.788  0.00  0.00    +0.007 A 
ATOM     11  C   UNL     1      -0.104  -1.447  -0.955  0.00  0.00    +0.039 A 
ATOM     12  C   UNL     1      -0.042  -2.277   0.153  0.00  0.00    +0.126 A 
ATOM     13  C   UNL     1      -0.092  -1.736   1.426  0.00  0.00    -0.005 A 
ATOM     14  C   UNL     1      -0.200  -0.366   1.591  0.00  0.00    +0.048 A 
ATOM     15 CL   UNL     1      -0.256   0.314   3.187  0.00  0.00    -0.083 Cl
ATOM     16  F   UNL     1       0.068  -3.614  -0.010  0.00  0.00    -0.205 F 
ENDBRANCH   1  13
BRANCH   2  17
ATOM     17  C   UNL     1      -2.315  -3.019   1.706  0.00  0.00    -0.032 A 
ATOM     18  C   UNL     1      -2.416  -3.796   0.567  0.00  0.00    +0.005 A 
ATOM     19  C   UNL     1      -3.301  -3.443  -0.435  0.00  0.00    +0.000 A 
ATOM     20  C   UNL     1      -4.085  -2.313  -0.297  0.00  0.00    +0.000 A 
ATOM     21  C   UNL     1      -3.985  -1.537   0.842  0.00  0.00    +0.000 A 
ATOM     22  C   UNL     1      -3.103  -1.892   1.845  0.00  0.00    +0.005 A 
ENDBRANCH   2  17
BRANCH   5  23
ATOM     23  C   UNL     1       2.259  -3.288   3.121  0.00  0.00    -0.068 C 
BRANCH  23  24
ATOM     24  C   UNL     1       3.353  -4.309   2.804  0.00  0.00    +0.062 C 
BRANCH  24  25
ATOM     25  C   UNL     1       4.628  -3.913   3.505  0.00  0.00    +0.175 A 
ATOM     26  N   UNL     1       5.581  -3.128   3.026  0.00  0.00    -0.111 NA
ATOM     27  N   UNL     1       6.499  -3.034   3.926  0.00  0.00    -0.021 NA
ATOM     28  N   UNL     1       6.153  -3.732   4.952  0.00  0.00    -0.021 NA
ATOM     29  N   UNL     1       5.007  -4.277   4.721  0.00  0.00    -0.111 NA
ENDBRANCH  24  25
ENDBRANCH  23  24
ENDBRANCH   5  23
TORSDOF 5
