REMARK  Name = ZINC23182367
REMARK  10 active torsions:
REMARK  status: ('A' for Active; 'I' for Inactive)
REMARK    1  A    between atoms: C_1  and  C_2
REMARK    2  A    between atoms: C_7  and  N_8
REMARK    3  A    between atoms: N_8  and  C_9
REMARK    4  A    between atoms: C_9  and  N_11
REMARK    5  A    between atoms: N_11  and  C_12
REMARK    6  A    between atoms: C_12  and  C_14
REMARK    7  A    between atoms: C_12  and  C_15
REMARK    8  A    between atoms: C_15  and  C_17
REMARK    9  A    between atoms: C_15  and  N_22
REMARK   10  A    between atoms: N_25  and  C_28
REMARK                            x       y       z     vdW  Elec       q    Type
REMARK                         _______ _______ _______ _____ _____    ______ ____
ROOT
ATOM      1  C   UNL     1       1.928   3.329   0.212  0.00  0.00    +0.114 C 
ENDROOT
BRANCH   1   2
ATOM      2  N   UNL     1       0.998   4.055  -0.663  0.00  0.00    -0.290 NA
ATOM      3  C   UNL     1       0.966   3.461  -2.006  0.00  0.00    +0.104 C 
ATOM      4  C   UNL     1      -0.071   4.194  -2.861  0.00  0.00    +0.120 C 
ATOM      5  N   UNL     1       0.274   5.620  -2.928  0.00  0.00    -0.327 N 
ATOM      6  C   UNL     1       0.306   6.215  -1.584  0.00  0.00    +0.120 C 
ATOM      7  C   UNL     1       1.343   5.482  -0.730  0.00  0.00    +0.104 C 
BRANCH   5   8
ATOM      8  C   UNL     1      -0.611   6.311  -3.759  0.00  0.00    +0.030 A 
ATOM      9  C   UNL     1      -1.320   7.400  -3.270  0.00  0.00    +0.023 A 
ATOM     10  C   UNL     1      -2.191   8.083  -4.096  0.00  0.00    +0.002 A 
ATOM     11  C   UNL     1      -2.365   7.678  -5.407  0.00  0.00    +0.000 A 
ATOM     12  C   UNL     1      -1.664   6.590  -5.896  0.00  0.00    +0.002 A 
ATOM     13  C   UNL     1      -0.788   5.906  -5.076  0.00  0.00    +0.023 A 
ENDBRANCH   5   8
ENDBRANCH   1   2
BRANCH   1  14
ATOM     14  C   UNL     1       1.585   1.862   0.204  0.00  0.00    +0.009 A 
ATOM     15  C   UNL     1       2.414   0.791   0.152  0.00  0.00    +0.013 A 
ATOM     16  C   UNL     1       1.869  -0.479   0.155  0.00  0.00    +0.008 A 
ATOM     17  C   UNL     1       0.522  -0.617   0.209  0.00  0.00    +0.045 A 
ATOM     18  S   UNL     1      -0.021   1.083   0.259  0.00  0.00    -0.100 S 
ENDBRANCH   1  14
BRANCH   1  19
ATOM     19  C   UNL     1       1.816   3.871   1.638  0.00  0.00    +0.091 C 
ATOM     20  C   UNL     1       0.357   3.806   2.095  0.00  0.00    +0.030 C 
BRANCH  19  21
ATOM     21  N   UNL     1       2.644   3.062   2.535  0.00  0.00    -0.322 N 
ATOM     22  H   UNL     1       2.883   2.021   2.273  0.00  0.00    +0.148 HD
BRANCH  21  23
ATOM     23  C   UNL     1       3.114   3.594   3.681  0.00  0.00    +0.135 C 
ATOM     24  S   UNL     1       2.743   5.214   4.089  0.00  0.00    -0.019 S 
BRANCH  23  25
ATOM     25  N   UNL     1       3.877   2.849   4.506  0.00  0.00    -0.297 N 
ATOM     26  H   UNL     1       4.185   1.837   4.207  0.00  0.00    +0.154 HD
BRANCH  25  33
ATOM     27  C   UNL     1       3.812   1.120   6.765  0.00  0.00    +0.045 C 
ATOM     28  C   UNL     1       4.260   2.555   6.872  0.00  0.00    -0.029 A 
ATOM     29  C   UNL     1       4.655   3.066   8.093  0.00  0.00    +0.005 A 
ATOM     30  C   UNL     1       5.067   4.382   8.193  0.00  0.00    +0.000 A 
ATOM     31  C   UNL     1       5.085   5.191   7.071  0.00  0.00    +0.002 A 
ATOM     32  C   UNL     1       4.696   4.684   5.846  0.00  0.00    +0.023 A 
ATOM     33  C   UNL     1       4.276   3.364   5.744  0.00  0.00    +0.036 A 
ENDBRANCH  25  33
ENDBRANCH  23  25
ENDBRANCH  21  23
ENDBRANCH  19  21
ENDBRANCH   1  19
TORSDOF 8
