REMARK  Name = ZINC22620675
REMARK  7 active torsions:
REMARK  status: ('A' for Active; 'I' for Inactive)
REMARK    1  A    between atoms: C_1  and  C_2
REMARK    2  A    between atoms: C_2  and  C_4
REMARK    3  A    between atoms: C_2  and  N_28
REMARK    4  A    between atoms: C_7  and  S_16
REMARK    5  A    between atoms: N_8  and  C_9
REMARK    6  A    between atoms: S_16  and  C_17
REMARK    7  A    between atoms: C_17  and  C_18
REMARK                            x       y       z     vdW  Elec       q    Type
REMARK                         _______ _______ _______ _____ _____    ______ ____
ROOT
ATOM      1  C   UNL     1      -4.312  -4.519  -0.176  0.00  0.00    +0.125 A 
ATOM      2  N   UNL     1      -4.528  -3.235  -0.222  0.00  0.00    -0.135 NA
ATOM      3  N   UNL     1      -3.421  -2.606  -0.401  0.00  0.00    -0.122 NA
ATOM      4  C   UNL     1      -2.428  -3.462  -0.480  0.00  0.00    +0.196 A 
ATOM      5  N   UNL     1      -2.966  -4.712  -0.345  0.00  0.00    -0.275 N 
ENDROOT
BRANCH   5   6
ATOM      6  C   UNL     1      -2.282  -5.936  -0.370  0.00  0.00    +0.050 A 
ATOM      7  C   UNL     1      -2.525  -6.848  -1.387  0.00  0.00    +0.028 A 
ATOM      8  C   UNL     1      -1.847  -8.051  -1.413  0.00  0.00    +0.022 A 
ATOM      9  C   UNL     1      -0.932  -8.352  -0.419  0.00  0.00    +0.041 A 
ATOM     10  C   UNL     1      -0.692  -7.447   0.600  0.00  0.00    +0.022 A 
ATOM     11  C   UNL     1      -1.364  -6.240   0.626  0.00  0.00    +0.028 A 
ATOM     12 CL   UNL     1      -0.085  -9.867  -0.450  0.00  0.00    -0.084 Cl
ENDBRANCH   5   6
BRANCH   1  14
ATOM     13  C   UNL     1      -5.814  -5.596   1.477  0.00  0.00    -0.005 C 
ATOM     14  C   UNL     1      -5.350  -5.594   0.019  0.00  0.00    -0.002 C 
BRANCH  14  15
ATOM     15  N   UNL     1      -6.498  -5.331  -0.860  0.00  0.00    +0.386 N 
ATOM     16  C   UNL     1      -7.519  -6.376  -0.718  0.00  0.00    -0.078 C 
ATOM     17  C   UNL     1      -8.757  -5.996  -1.535  0.00  0.00    -0.019 C 
ATOM     18  C   UNL     1      -8.363  -5.837  -3.006  0.00  0.00    -0.004 C 
ATOM     19  C   UNL     1      -7.263  -4.778  -3.120  0.00  0.00    -0.019 C 
ATOM     20  C   UNL     1      -6.069  -5.193  -2.258  0.00  0.00    -0.078 C 
ATOM     21  H   UNL     1      -6.950  -4.376  -0.552  0.00  0.00    -0.081 HD
ENDBRANCH  14  15
ENDBRANCH   1  14
BRANCH   4  22
ATOM     22  S   UNL     1      -0.727  -3.073  -0.724  0.00  0.00    -0.078 S 
BRANCH  22  23
ATOM     23  C   UNL     1      -0.827  -1.268  -0.814  0.00  0.00    +0.151 C 
BRANCH  23  24
ATOM     24  C   UNL     1       0.552  -0.699  -1.025  0.00  0.00    +0.122 A 
ATOM     25  N   UNL     1       0.687   0.650  -1.120  0.00  0.00    -0.194 NA
ATOM     26  C   UNL     1       1.918   1.183  -1.311  0.00  0.00    +0.288 A 
ATOM     27  O   UNL     1       2.072   2.390  -1.399  0.00  0.00    -0.265 OA
ATOM     28  C   UNL     1       3.004   0.312  -1.403  0.00  0.00    +0.102 A 
ATOM     29  C   UNL     1       2.838  -1.080  -1.301  0.00  0.00    +0.060 A 
ATOM     30  N   UNL     1       1.550  -1.519  -1.109  0.00  0.00    -0.342 N 
ATOM     31  C   UNL     1       4.011  -1.837  -1.411  0.00  0.00    +0.034 A 
ATOM     32  C   UNL     1       5.200  -1.225  -1.600  0.00  0.00    +0.048 A 
ATOM     33  S   UNL     1       4.751   0.502  -1.640  0.00  0.00    -0.090 S 
ATOM     34  H   UNL     1       1.381  -2.602  -1.024  0.00  0.00    +0.167 HD
ENDBRANCH  23  24
ENDBRANCH  22  23
ENDBRANCH   4  22
TORSDOF 6
