REMARK  Name = ZINC20449772
REMARK  7 active torsions:
REMARK  status: ('A' for Active; 'I' for Inactive)
REMARK    1  A    between atoms: C_1  and  N_2
REMARK    2  A    between atoms: N_2  and  C_3
REMARK    3  A    between atoms: N_2  and  C_16
REMARK    4  A    between atoms: C_3  and  C_4
REMARK    5  A    between atoms: C_4  and  C_5
REMARK    6  A    between atoms: C_16  and  C_17
REMARK    7  A    between atoms: C_22  and  C_23
REMARK                            x       y       z     vdW  Elec       q    Type
REMARK                         _______ _______ _______ _____ _____    ______ ____
ROOT
ATOM      1  C   UNL     1       0.364   1.438  -0.011  0.00  0.00    -0.096 C 
ATOM      2  N   UNL     1       0.147  -0.015  -0.042  0.00  0.00    +0.381 N 
ATOM      3  H   UNL     1      -0.837  -0.210   0.062  0.00  0.00    -0.082 HD
ENDROOT
BRANCH   2   4
ATOM      4  C   UNL     1       0.890  -0.645   1.058  0.00  0.00    -0.071 C 
BRANCH   4   5
ATOM      5  C   UNL     1       0.313  -0.178   2.396  0.00  0.00    +0.056 C 
BRANCH   5   6
ATOM      6  C   UNL     1       1.075  -0.824   3.524  0.00  0.00    +0.106 A 
ATOM      7  N   UNL     1       1.679  -0.153   4.542  0.00  0.00    -0.342 N 
ATOM      8  H   UNL     1       1.694   0.809   4.666  0.00  0.00    +0.167 HD
ATOM      9  C   UNL     1       2.265  -1.095   5.364  0.00  0.00    +0.066 A 
ATOM     10  C   UNL     1       3.008  -1.025   6.535  0.00  0.00    +0.029 A 
ATOM     11  C   UNL     1       3.463  -2.183   7.128  0.00  0.00    +0.022 A 
ATOM     12  C   UNL     1       3.185  -3.420   6.562  0.00  0.00    +0.043 A 
ATOM     13  C   UNL     1       2.450  -3.508   5.401  0.00  0.00    +0.050 A 
ATOM     14  C   UNL     1       1.981  -2.344   4.787  0.00  0.00    +0.090 A 
ATOM     15  N   UNL     1       1.246  -2.106   3.670  0.00  0.00    -0.233 NA
ATOM     16 CL   UNL     1       3.768  -4.867   7.324  0.00  0.00    -0.083 Cl
ENDBRANCH   5   6
ENDBRANCH   4   5
ENDBRANCH   2   4
BRANCH   2  17
ATOM     17  C   UNL     1       0.621  -0.553  -1.324  0.00  0.00    -0.040 C 
BRANCH  17  18
ATOM     18  C   UNL     1      -0.234  -0.014  -2.442  0.00  0.00    -0.019 A 
ATOM     19  C   UNL     1       0.139   0.967  -3.362  0.00  0.00    +0.136 A 
ATOM     20  N   UNL     1      -0.862   1.174  -4.179  0.00  0.00    -0.182 NA
ATOM     21  H   UNL     1      -2.783   0.275  -4.248  0.00  0.00    +0.189 HD
ATOM     22  N   UNL     1      -1.918   0.331  -3.813  0.00  0.00    -0.277 N 
ATOM     23  C   UNL     1      -1.510  -0.402  -2.738  0.00  0.00    +0.067 A 
BRANCH  23  24
ATOM     24  C   UNL     1      -2.303  -1.427  -2.024  0.00  0.00    +0.004 A 
ATOM     25  C   UNL     1      -1.735  -2.664  -1.720  0.00  0.00    +0.014 A 
ATOM     26  C   UNL     1      -2.475  -3.619  -1.054  0.00  0.00    +0.050 A 
ATOM     27  C   UNL     1      -3.785  -3.353  -0.684  0.00  0.00    +0.166 A 
ATOM     28  C   UNL     1      -4.358  -2.118  -0.985  0.00  0.00    +0.167 A 
ATOM     29  C   UNL     1      -3.618  -1.155  -1.647  0.00  0.00    +0.059 A 
ATOM     30  O   UNL     1      -5.642  -2.108  -0.518  0.00  0.00    -0.453 OA
ATOM     31  C   UNL     1      -5.980  -3.489  -0.295  0.00  0.00    +0.466 C 
ATOM     32  O   UNL     1      -4.710  -4.114  -0.030  0.00  0.00    -0.453 OA
ENDBRANCH  23  24
ENDBRANCH  17  18
ENDBRANCH   2  17
TORSDOF 6
