REMARK  Name = ZINC01499944
REMARK  6 active torsions:
REMARK  status: ('A' for Active; 'I' for Inactive)
REMARK    1  A    between atoms: C_5  and  S_7
REMARK    2  A    between atoms: S_7  and  C_8
REMARK    3  A    between atoms: C_8  and  C_9
REMARK    4  A    between atoms: N_11  and  N_12
REMARK    5  A    between atoms: C_13  and  C_14
REMARK    6  A    between atoms: C_17  and  O_21
REMARK                            x       y       z     vdW  Elec       q    Type
REMARK                         _______ _______ _______ _____ _____    ______ ____
ROOT
ATOM      1  C   UNL     1       2.043   7.442   0.022  0.00  0.00    +0.242 C 
ATOM      2  O   UNL     1       1.075   8.175   0.035  0.00  0.00    -0.273 OA
ATOM      3  N   UNL     1       3.284   7.966   0.013  0.00  0.00    -0.206 N 
ATOM      4  H   UNL     1       4.058   7.381   0.003  0.00  0.00    +0.177 HD
ENDROOT
BRANCH   3   5
ATOM      5  N   UNL     1       3.458   9.356   0.019  0.00  0.00    -0.188 NA
ATOM      6  C   UNL     1       4.654   9.861   0.010  0.00  0.00    +0.138 C 
BRANCH   6   7
ATOM      7  C   UNL     1       4.837  11.324   0.017  0.00  0.00    -0.003 A 
ATOM      8  C   UNL     1       3.724  12.169   0.026  0.00  0.00    +0.028 A 
ATOM      9  C   UNL     1       3.900  13.537   0.037  0.00  0.00    +0.061 A 
ATOM     10  C   UNL     1       5.181  14.075   0.028  0.00  0.00    +0.145 A 
ATOM     11  C   UNL     1       6.290  13.238   0.013  0.00  0.00    +0.061 A 
ATOM     12  C   UNL     1       6.123  11.869   0.007  0.00  0.00    +0.028 A 
ATOM     13 BR   UNL     1       8.030  13.977   0.000  0.00  0.00    -0.046 Br
ATOM     14 BR   UNL     1       2.395  14.682   0.058  0.00  0.00    -0.046 Br
BRANCH  10  15
ATOM     15  O   UNL     1       5.350  15.423   0.033  0.00  0.00    -0.505 OA
ATOM     16  H   UNL     1       5.390  15.817  -0.849  0.00  0.00    +0.292 HD
ENDBRANCH  10  15
ENDBRANCH   6   7
ENDBRANCH   3   5
BRANCH   1  17
ATOM     17  C   UNL     1       1.856   5.947   0.016  0.00  0.00    +0.173 C 
BRANCH  17  18
ATOM     18  S   UNL     1       0.084   5.559   0.031  0.00  0.00    -0.097 S 
BRANCH  18  23
ATOM     19  C   UNL     1      -1.221   1.761   0.017  0.00  0.00    +0.004 A 
ATOM     20  C   UNL     1      -0.013   1.076   0.008  0.00  0.00    +0.020 A 
ATOM     21  C   UNL     1       1.169   1.789   0.001  0.00  0.00    +0.112 A 
ATOM     22  N   UNL     1       1.163   3.109   0.007  0.00  0.00    -0.249 NA
ATOM     23  C   UNL     1       0.033   3.798   0.022  0.00  0.00    +0.097 A 
ATOM     24  C   UNL     1      -1.196   3.143   0.030  0.00  0.00    +0.035 A 
ENDBRANCH  18  23
ENDBRANCH  17  18
ENDBRANCH   1  17
TORSDOF 6
