REMARK  Name = ZINC05868788
REMARK  8 active torsions:
REMARK  status: ('A' for Active; 'I' for Inactive)
REMARK    1  A    between atoms: C_1  and  C_2
REMARK    2  A    between atoms: C_2  and  C_3
REMARK    3  A    between atoms: C_3  and  C_4
REMARK    4  A    between atoms: C_4  and  S_5
REMARK    5  A    between atoms: S_5  and  C_6
REMARK    6  A    between atoms: C_17  and  C_19
REMARK    7  A    between atoms: C_22  and  O_25
REMARK    8  A    between atoms: O_25  and  C_26
REMARK                            x       y       z     vdW  Elec       q    Type
REMARK                         _______ _______ _______ _____ _____    ______ ____
ROOT
ATOM      1  C   UNL     1      -1.907  -1.427   3.470  0.00  0.00    +0.171 A 
ATOM      2  N   UNL     1      -0.631  -0.960   3.566  0.00  0.00    -0.302 N 
ATOM      3  H   UNL     1      -0.118  -0.960   4.539  0.00  0.00    +0.171 HD
ATOM      4  C   UNL     1       0.005  -0.497   2.470  0.00  0.00    +0.258 A 
ATOM      5  O   UNL     1       1.148  -0.074   2.546  0.00  0.00    -0.267 OA
ATOM      6  C   UNL     1      -0.669  -0.511   1.244  0.00  0.00    +0.069 A 
ATOM      7  C   UNL     1      -1.963  -1.001   1.199  0.00  0.00    +0.135 A 
ATOM      8  N   UNL     1      -2.547  -1.443   2.318  0.00  0.00    -0.208 NA
ATOM      9  N   UNL     1      -2.640  -1.033  -0.004  0.00  0.00    -0.302 N 
ATOM     10  C   UNL     1      -1.958  -0.976  -1.189  0.00  0.00    +0.017 C 
ATOM     11  C   UNL     1      -0.697  -0.501  -1.238  0.00  0.00    +0.024 C 
ATOM     12  C   UNL     1       0.002  -0.004   0.002  0.00  0.00    +0.092 C 
ATOM     13  C   UNL     1       0.013  -0.454  -2.453  0.00  0.00    +0.162 C 
ATOM     14  O   UNL     1       1.144  -0.010  -2.466  0.00  0.00    -0.292 OA
ATOM     15  C   UNL     1      -0.602  -0.942  -3.736  0.00  0.00    +0.080 C 
ATOM     16  C   UNL     1      -1.629  -2.033  -3.413  0.00  0.00    +0.014 C 
ATOM     17  C   UNL     1      -2.657  -1.455  -2.438  0.00  0.00    +0.051 C 
ATOM     18  H   UNL     1      -3.738  -1.106  -0.016  0.00  0.00    +0.153 HD
ENDROOT
BRANCH  12  19
ATOM     19  C   UNL     1      -0.018   1.503   0.010  0.00  0.00    -0.035 A 
ATOM     20  C   UNL     1      -1.226   2.177   0.020  0.00  0.00    +0.008 A 
ATOM     21  C   UNL     1      -1.247   3.558   0.033  0.00  0.00    +0.046 A 
ATOM     22  C   UNL     1      -0.056   4.269   0.025  0.00  0.00    +0.120 A 
ATOM     23  C   UNL     1       1.154   3.591   0.010  0.00  0.00    +0.046 A 
ATOM     24  C   UNL     1       1.170   2.209   0.003  0.00  0.00    +0.008 A 
BRANCH  22  25
ATOM     25  O   UNL     1      -0.074   5.628   0.033  0.00  0.00    -0.495 OA
ATOM     26  C   UNL     1      -1.356   6.259   0.049  0.00  0.00    +0.277 C 
ENDBRANCH  22  25
ENDBRANCH  12  19
BRANCH   1  27
ATOM     27  S   UNL     1      -2.720  -2.022   4.916  0.00  0.00    -0.088 S 
BRANCH  27  28
ATOM     28  C   UNL     1      -4.318  -2.490   4.208  0.00  0.00    +0.077 C 
BRANCH  28  29
ATOM     29  C   UNL     1      -5.220  -3.051   5.310  0.00  0.00    +0.011 C 
BRANCH  29  31
ATOM     30  C   UNL     1      -7.472  -4.008   5.814  0.00  0.00    +0.004 C 
ATOM     31  C   UNL     1      -6.571  -3.447   4.712  0.00  0.00    -0.003 C 
ENDBRANCH  29  31
ENDBRANCH  28  29
ENDBRANCH  27  28
ENDBRANCH   1  27
TORSDOF 6
