REMARK  Name = ZINC10442419
REMARK  8 active torsions:
REMARK  status: ('A' for Active; 'I' for Inactive)
REMARK    1  A    between atoms: C_1  and  C_2
REMARK    2  A    between atoms: C_5  and  N_8
REMARK    3  A    between atoms: C_18  and  S_19
REMARK    4  A    between atoms: S_19  and  C_20
REMARK    5  A    between atoms: C_20  and  C_22
REMARK    6  A    between atoms: C_20  and  C_23
REMARK    7  A    between atoms: C_29  and  C_35
REMARK    8  A    between atoms: C_30  and  C_34
REMARK                            x       y       z     vdW  Elec       q    Type
REMARK                         _______ _______ _______ _____ _____    ______ ____
ROOT
ATOM      1  N   UNL     1      -4.444   7.127   1.670  0.00  0.00    -0.255 N 
ATOM      2  C   UNL     1      -5.455   7.782   1.055  0.00  0.00    +0.267 A 
ATOM      3  O   UNL     1      -5.525   8.997   1.075  0.00  0.00    -0.267 OA
ATOM      4  C   UNL     1      -6.469   6.973   0.365  0.00  0.00    +0.065 A 
ATOM      5  C   UNL     1      -7.553   7.554  -0.292  0.00  0.00    +0.015 A 
ATOM      6  C   UNL     1      -8.468   6.753  -0.918  0.00  0.00    +0.001 A 
ATOM      7  C   UNL     1      -8.330   5.371  -0.905  0.00  0.00    +0.002 A 
ATOM      8  C   UNL     1      -7.278   4.776  -0.267  0.00  0.00    +0.028 A 
ATOM      9  C   UNL     1      -6.325   5.567   0.381  0.00  0.00    +0.079 A 
ATOM     10  N   UNL     1      -5.268   5.019   1.025  0.00  0.00    -0.223 NA
ATOM     11  C   UNL     1      -4.376   5.762   1.633  0.00  0.00    +0.177 A 
ENDROOT
BRANCH   1  16
ATOM     12  C   UNL     1      -0.437  10.070   4.407  0.00  0.00    +0.044 C 
ATOM     13  C   UNL     1      -1.501   9.289   3.680  0.00  0.00    -0.050 A 
ATOM     14  C   UNL     1      -2.633   8.871   4.356  0.00  0.00    +0.005 A 
ATOM     15  C   UNL     1      -3.610   8.155   3.692  0.00  0.00    +0.026 A 
ATOM     16  C   UNL     1      -3.455   7.854   2.346  0.00  0.00    +0.052 A 
ATOM     17  C   UNL     1      -2.314   8.270   1.671  0.00  0.00    +0.026 A 
ATOM     18  C   UNL     1      -1.343   8.990   2.339  0.00  0.00    +0.005 A 
ENDBRANCH   1  16
BRANCH  11  19
ATOM     19  S   UNL     1      -3.032   4.964   2.446  0.00  0.00    -0.076 S 
BRANCH  19  20
ATOM     20  C   UNL     1      -3.435   3.235   2.097  0.00  0.00    +0.117 C 
ATOM     21  C   UNL     1      -3.343   2.984   0.590  0.00  0.00    +0.027 C 
BRANCH  20  22
ATOM     22  C   UNL     1      -2.461   2.337   2.816  0.00  0.00    +0.124 A 
ATOM     23  N   UNL     1      -2.889   1.146   3.308  0.00  0.00    -0.309 N 
ATOM     24  H   UNL     1      -3.817   0.890   3.190  0.00  0.00    +0.170 HD
ATOM     25  C   UNL     1      -2.054   0.317   3.961  0.00  0.00    +0.260 A 
ATOM     26  O   UNL     1      -2.456  -0.747   4.400  0.00  0.00    -0.267 OA
ATOM     27  C   UNL     1      -0.684   0.702   4.126  0.00  0.00    +0.075 A 
ATOM     28  C   UNL     1       0.400  -0.009   4.779  0.00  0.00    -0.026 A 
ATOM     29  C   UNL     1       1.621   0.548   4.816  0.00  0.00    -0.008 A 
ATOM     30  S   UNL     1       1.394   2.096   3.961  0.00  0.00    -0.073 S 
ATOM     31  C   UNL     1      -0.332   1.949   3.579  0.00  0.00    +0.116 A 
ATOM     32  N   UNL     1      -1.218   2.716   2.951  0.00  0.00    -0.225 NA
ATOM     33  C   UNL     1       2.881  -0.003   5.433  0.00  0.00    +0.052 C 
ATOM     34  C   UNL     1       0.158  -1.358   5.407  0.00  0.00    +0.045 C 
ENDBRANCH  20  22
ENDBRANCH  19  20
ENDBRANCH  11  19
TORSDOF 4
