REMARK  Name = ZINC39280211
REMARK  7 active torsions:
REMARK  status: ('A' for Active; 'I' for Inactive)
REMARK    1  A    between atoms: C_1  and  C_2
REMARK    2  A    between atoms: C_2  and  O_3
REMARK    3  A    between atoms: O_3  and  C_4
REMARK    4  A    between atoms: C_4  and  C_6
REMARK    5  A    between atoms: C_7  and  C_37
REMARK    6  A    between atoms: C_14  and  C_15
REMARK    7  A    between atoms: C_25  and  C_27
REMARK                            x       y       z     vdW  Elec       q    Type
REMARK                         _______ _______ _______ _____ _____    ______ ____
ROOT
ATOM      1  C   UNL     1      -2.663  -2.562  -0.062  0.00  0.00    +0.085 C 
ATOM      2  C   UNL     1      -2.786  -3.922  -0.049  0.00  0.00    +0.053 C 
ATOM      3  N   UNL     1      -3.985  -4.492  -0.041  0.00  0.00    -0.228 NA
ATOM      4  C   UNL     1      -5.120  -3.844  -0.044  0.00  0.00    +0.178 A 
ATOM      5  N   UNL     1      -5.223  -2.472  -0.057  0.00  0.00    -0.275 N 
ATOM      6  C   UNL     1      -6.442  -1.917  -0.060  0.00  0.00    +0.268 A 
ATOM      7  O   UNL     1      -6.583  -0.709  -0.072  0.00  0.00    -0.266 OA
ATOM      8  C   UNL     1      -7.610  -2.822  -0.050  0.00  0.00    +0.080 A 
ATOM      9  C   UNL     1      -8.957  -2.517  -0.050  0.00  0.00    +0.026 C 
ATOM     10  S   UNL     1      -6.808  -4.417  -0.035  0.00  0.00    -0.046 S 
ATOM     11  C   UNL     1      -3.928  -1.734  -0.061  0.00  0.00    +0.162 C 
ATOM     12  C   UNL     1      -1.549  -4.784  -0.044  0.00  0.00    +0.066 C 
ENDROOT
BRANCH   9  13
ATOM     13  C   UNL     1      -9.905  -3.542  -0.039  0.00  0.00    -0.018 C 
ATOM     14  C   UNL     1     -11.293  -3.408  -0.044  0.00  0.00    +0.003 A 
ATOM     15  C   UNL     1     -12.143  -2.281  -0.059  0.00  0.00    +0.010 A 
ATOM     16  C   UNL     1     -13.489  -2.453  -0.060  0.00  0.00    +0.001 A 
ATOM     17  C   UNL     1     -14.066  -3.727  -0.044  0.00  0.00    +0.002 A 
ATOM     18  C   UNL     1     -13.314  -4.853  -0.029  0.00  0.00    +0.026 A 
ATOM     19  C   UNL     1     -11.895  -4.754  -0.028  0.00  0.00    +0.043 A 
ATOM     20  N   UNL     1     -10.959  -5.676  -0.014  0.00  0.00    -0.380 N 
ATOM     21  C   UNL     1      -9.642  -5.032  -0.026  0.00  0.00    +0.149 C 
ATOM     22  H   UNL     1     -11.115  -6.633  -0.002  0.00  0.00    +0.160 HD
ENDBRANCH   9  13
BRANCH  11  23
ATOM     23  C   UNL     1      -3.894  -0.840   1.151  0.00  0.00    -0.012 A 
ATOM     24  C   UNL     1      -4.460  -1.249   2.320  0.00  0.00    +0.006 A 
ATOM     25  C   UNL     1      -4.439  -0.436   3.451  0.00  0.00    +0.001 A 
ATOM     26  C   UNL     1      -3.853   0.792   3.420  0.00  0.00    +0.008 A 
ATOM     27  C   UNL     1      -3.259   1.249   2.232  0.00  0.00    -0.018 A 
ATOM     28  C   UNL     1      -3.275   0.419   1.083  0.00  0.00    -0.012 A 
ATOM     29  C   UNL     1      -2.675   0.874  -0.104  0.00  0.00    +0.009 A 
ATOM     30  C   UNL     1      -2.084   2.100  -0.133  0.00  0.00    +0.001 A 
ATOM     31  C   UNL     1      -2.063   2.913   0.999  0.00  0.00    +0.001 A 
ATOM     32  C   UNL     1      -2.645   2.512   2.162  0.00  0.00    +0.008 A 
ENDBRANCH  11  23
BRANCH   1  33
ATOM     33  C   UNL     1      -1.397  -1.950  -0.071  0.00  0.00    +0.339 C 
ATOM     34  O   UNL     1      -0.932  -1.527  -1.115  0.00  0.00    -0.245 OA
BRANCH  33  35
ATOM     35  O   UNL     1      -0.696  -1.830   1.077  0.00  0.00    -0.462 OA
BRANCH  35  37
ATOM     36  C   UNL     1       1.237  -1.175   2.370  0.00  0.00    +0.048 C 
ATOM     37  C   UNL     1       0.531  -1.100   1.016  0.00  0.00    +0.229 C 
ENDBRANCH  35  37
ENDBRANCH  33  35
ENDBRANCH   1  33
TORSDOF 5
