REMARK  Name = ZINC11791473
REMARK  7 active torsions:
REMARK  status: ('A' for Active; 'I' for Inactive)
REMARK    1  A    between atoms: C_4  and  C_7
REMARK    2  A    between atoms: C_8  and  C_9
REMARK    3  A    between atoms: C_9  and  N_66
REMARK    4  A    between atoms: N_12  and  C_15
REMARK    5  A    between atoms: N_23  and  C_26
REMARK    6  A    between atoms: C_26  and  C_27
REMARK    7  A    between atoms: C_29  and  C_32
REMARK                            x       y       z     vdW  Elec       q    Type
REMARK                         _______ _______ _______ _____ _____    ______ ____
ROOT
ATOM      1  C   UNL     1       2.017  -2.463  -4.570  0.00  0.00    +0.043 A 
ATOM      2  C   UNL     1       2.380  -3.808  -4.666  0.00  0.00    +0.024 A 
ATOM      3  C   UNL     1       3.121  -4.255  -5.739  0.00  0.00    +0.003 A 
ATOM      4  C   UNL     1       3.517  -3.376  -6.739  0.00  0.00    +0.014 A 
ATOM      5  C   UNL     1       3.167  -2.040  -6.663  0.00  0.00    +0.051 A 
ATOM      6  C   UNL     1       2.404  -1.574  -5.570  0.00  0.00    +0.070 A 
ATOM      7  C   UNL     1       2.206  -0.133  -5.801  0.00  0.00    +0.256 C 
ATOM      8  O   UNL     1       1.597   0.624  -5.071  0.00  0.00    -0.269 OA
ATOM      9  N   UNL     1       2.811   0.206  -6.953  0.00  0.00    -0.228 N 
ATOM     10  C   UNL     1       3.407  -0.859  -7.519  0.00  0.00    +0.254 C 
ATOM     11  O   UNL     1       4.028  -0.854  -8.562  0.00  0.00    -0.270 OA
ENDROOT
BRANCH   1  14
ATOM     12  C   UNL     1       0.421  -2.492  -1.242  0.00  0.00    -0.059 C 
ATOM     13  C   UNL     1       1.183  -3.050  -2.447  0.00  0.00    +0.086 C 
ATOM     14  N   UNL     1       1.271  -2.017  -3.489  0.00  0.00    -0.333 N 
ATOM     15  C   UNL     1      -0.069  -1.587  -3.915  0.00  0.00    +0.086 C 
ATOM     16  C   UNL     1      -0.830  -1.029  -2.710  0.00  0.00    -0.059 C 
ATOM     17  N   UNL     1      -0.930  -2.084  -1.680  0.00  0.00    +0.384 N 
ATOM     18  H   UNL     1      -1.411  -2.898  -2.081  0.00  0.00    -0.081 HD
BRANCH  17  19
ATOM     19  C   UNL     1      -1.708  -1.589  -0.524  0.00  0.00    -0.051 C 
BRANCH  19  21
ATOM     20  C   UNL     1      -1.641  -2.660   1.684  0.00  0.00    +0.002 C 
ATOM     21  C   UNL     1      -1.984  -2.742   0.406  0.00  0.00    -0.045 C 
BRANCH  20  25
ATOM     22  C   UNL     1      -2.419  -5.909   4.306  0.00  0.00    +0.000 A 
ATOM     23  C   UNL     1      -1.807  -4.767   4.789  0.00  0.00    +0.001 A 
ATOM     24  C   UNL     1      -1.552  -3.707   3.942  0.00  0.00    +0.008 A 
ATOM     25  C   UNL     1      -1.912  -3.791   2.597  0.00  0.00    -0.025 A 
ATOM     26  C   UNL     1      -2.534  -4.944   2.117  0.00  0.00    +0.008 A 
ATOM     27  C   UNL     1      -2.779  -5.999   2.973  0.00  0.00    +0.001 A 
ENDBRANCH  20  25
ENDBRANCH  19  21
ENDBRANCH  17  19
ENDBRANCH   1  14
BRANCH   9  28
ATOM     28  C   UNL     1       2.829   1.560  -7.512  0.00  0.00    +0.179 C 
BRANCH  28  29
ATOM     29  C   UNL     1       4.034   2.302  -6.993  0.00  0.00    +0.097 A 
ATOM     30  N   UNL     1       5.240   2.366  -7.501  0.00  0.00    -0.242 NA
ATOM     31  C   UNL     1       6.198   3.072  -6.920  0.00  0.00    +0.078 A 
ATOM     32  C   UNL     1       5.895   3.729  -5.759  0.00  0.00    +0.075 A 
ATOM     33  S   UNL     1       4.176   3.281  -5.566  0.00  0.00    -0.078 S 
BRANCH  31  34
ATOM     34  C   UNL     1       7.559   3.144  -7.507  0.00  0.00    +0.001 A 
ATOM     35  C   UNL     1       8.552   3.893  -6.880  0.00  0.00    +0.010 A 
ATOM     36  C   UNL     1       9.818   3.952  -7.428  0.00  0.00    +0.001 A 
ATOM     37  C   UNL     1      10.097   3.279  -8.604  0.00  0.00    +0.000 A 
ATOM     38  C   UNL     1       9.114   2.537  -9.233  0.00  0.00    +0.001 A 
ATOM     39  C   UNL     1       7.846   2.467  -8.691  0.00  0.00    +0.010 A 
ENDBRANCH  31  34
ENDBRANCH  28  29
ENDBRANCH   9  28
TORSDOF 7
