REMARK  Name = ZINC20455085
REMARK  4 active torsions:
REMARK  status: ('A' for Active; 'I' for Inactive)
REMARK    1  A    between atoms: C_1  and  O_2
REMARK    2  A    between atoms: O_2  and  C_3
REMARK    3  A    between atoms: C_10  and  N_14
REMARK    4  A    between atoms: C_19  and  C_23
REMARK                            x       y       z     vdW  Elec       q    Type
REMARK                         _______ _______ _______ _____ _____    ______ ____
ROOT
ATOM      1  N   UNL     1      -1.728   7.502   0.412  0.00  0.00    -0.294 NA
ATOM      2  C   UNL     1      -1.480   7.716  -1.021  0.00  0.00    +0.091 C 
ATOM      3  C   UNL     1      -1.731   9.189  -1.374  0.00  0.00    +0.070 C 
ATOM      4  C   UNL     1      -0.988  10.038  -0.371  0.00  0.00    +0.042 A 
ATOM      5  C   UNL     1      -0.510   9.552   0.803  0.00  0.00    +0.015 A 
ATOM      6  C   UNL     1       0.125  10.602   1.477  0.00  0.00    +0.100 A 
ATOM      7  N   UNL     1       0.025  11.682   0.726  0.00  0.00    -0.173 NA
ATOM      8  N   UNL     1      -0.675  11.341  -0.441  0.00  0.00    -0.281 N 
ATOM      9  H   UNL     1      -0.974  11.932  -1.319  0.00  0.00    +0.189 HD
ATOM     10  C   UNL     1      -0.675   8.118   1.238  0.00  0.00    +0.124 C 
ENDROOT
BRANCH   1  18
ATOM     11  C   UNL     1       0.217   1.661   0.476  0.00  0.00    +0.120 A 
ATOM     12  C   UNL     1      -1.042   1.080   0.527  0.00  0.00    +0.046 A 
ATOM     13  C   UNL     1      -2.164   1.881   0.505  0.00  0.00    +0.007 A 
ATOM     14  C   UNL     1      -2.046   3.264   0.443  0.00  0.00    -0.044 A 
ATOM     15  C   UNL     1      -0.798   3.841   0.386  0.00  0.00    -0.039 A 
ATOM     16  C   UNL     1       0.334   3.038   0.406  0.00  0.00    +0.049 A 
ATOM     17  C   UNL     1      -0.597   5.332   0.293  0.00  0.00    +0.054 C 
ATOM     18  C   UNL     1      -1.865   6.072   0.715  0.00  0.00    +0.062 C 
ATOM     19  C   UNL     1      -3.048   5.490  -0.069  0.00  0.00    +0.024 C 
ATOM     20  C   UNL     1      -3.315   4.075   0.442  0.00  0.00    +0.037 C 
BRANCH  11  22
ATOM     21  C   UNL     1       1.130  -0.533   0.569  0.00  0.00    +0.277 C 
ATOM     22  O   UNL     1       1.330   0.880   0.495  0.00  0.00    -0.495 OA
ENDBRANCH  11  22
ENDBRANCH   1  18
BRANCH   6  23
ATOM     23  C   UNL     1       0.792  10.516   2.800  0.00  0.00    +0.038 A 
ATOM     24  C   UNL     1       1.671   9.471   3.073  0.00  0.00    +0.013 A 
ATOM     25  C   UNL     1       2.289   9.395   4.305  0.00  0.00    +0.001 A 
ATOM     26  C   UNL     1       2.037  10.355   5.269  0.00  0.00    +0.003 A 
ATOM     27  C   UNL     1       1.166  11.395   5.006  0.00  0.00    +0.039 A 
ATOM     28  C   UNL     1       0.544  11.484   3.774  0.00  0.00    +0.133 A 
ATOM     29  F   UNL     1      -0.304  12.504   3.515  0.00  0.00    -0.205 F 
ENDBRANCH   6  23
TORSDOF 3
