REMARK  Name = ZINC61673474
REMARK  2 active torsions:
REMARK  status: ('A' for Active; 'I' for Inactive)
REMARK    1  A    between atoms: C_6  and  C_7
REMARK    2  A    between atoms: C_7  and  C_9
REMARK                            x       y       z     vdW  Elec       q    Type
REMARK                         _______ _______ _______ _____ _____    ______ ____
ROOT
ATOM      1  C   UNL     1       1.177  -0.470   0.258  0.00  0.00    +0.007 A 
ATOM      2  C   UNL     1       2.317   0.308   0.217  0.00  0.00    +0.030 A 
ATOM      3  C   UNL     1       2.225   1.649  -0.121  0.00  0.00    +0.087 A 
ATOM      4  C   UNL     1       0.983   2.210  -0.419  0.00  0.00    +0.157 A 
ATOM      5  C   UNL     1      -0.156   1.421  -0.375  0.00  0.00    +0.053 A 
ATOM      6  C   UNL     1      -0.056   0.085  -0.037  0.00  0.00    -0.026 A 
ATOM      7  O   UNL     1       1.191   3.517  -0.709  0.00  0.00    -0.408 OA
ATOM      8  C   UNL     1       2.501   3.789  -0.604  0.00  0.00    +0.419 A 
ATOM      9  O   UNL     1       3.010   4.876  -0.802  0.00  0.00    -0.223 OA
ATOM     10  N   UNL     1       3.164   2.672  -0.247  0.00  0.00    -0.288 N 
ATOM     11  H   UNL     1       4.120   2.594  -0.103  0.00  0.00    +0.172 HD
ENDROOT
BRANCH   6  12
ATOM     12  C   UNL     1      -1.295  -0.772   0.010  0.00  0.00    +0.114 C 
ATOM     13 CL   UNL     1      -2.432  -0.255  -1.290  0.00  0.00    -0.116 Cl
BRANCH  12  14
ATOM     14  C   UNL     1      -1.972  -0.614   1.373  0.00  0.00    +0.015 C 
ATOM     15  C   UNL     1      -3.160  -1.577   1.469  0.00  0.00    +0.033 C 
ATOM     16  C   UNL     1      -3.878  -1.357   2.803  0.00  0.00    +0.160 C 
ATOM     17  O   UNL     1      -4.296   0.006   2.898  0.00  0.00    -0.380 OA
ATOM     18  C   UNL     1      -3.224   0.950   2.862  0.00  0.00    +0.160 C 
ATOM     19  C   UNL     1      -2.479   0.823   1.530  0.00  0.00    +0.033 C 
ENDBRANCH  12  14
ENDBRANCH   6  12
TORSDOF 2
