REMARK  Name = ZINC12608765
REMARK  6 active torsions:
REMARK  status: ('A' for Active; 'I' for Inactive)
REMARK    1  A    between atoms: C_4  and  N_27
REMARK    2  A    between atoms: C_5  and  C_7
REMARK    3  A    between atoms: N_9  and  N_10
REMARK    4  A    between atoms: C_11  and  C_13
REMARK    5  A    between atoms: C_13  and  C_14
REMARK    6  A    between atoms: C_14  and  N_15
REMARK                            x       y       z     vdW  Elec       q    Type
REMARK                         _______ _______ _______ _____ _____    ______ ____
ROOT
ATOM      1  N   UNL     1      -0.884   7.437  -0.515  0.00  0.00    -0.234 N 
ATOM      2  C   UNL     1      -2.005   8.184  -0.552  0.00  0.00    +0.231 C 
ATOM      3  O   UNL     1      -3.091   7.655  -0.445  0.00  0.00    -0.274 OA
ATOM      4  H   UNL     1      -0.015   7.860  -0.601  0.00  0.00    +0.173 HD
ENDROOT
BRANCH   1   7
ATOM      5  C   UNL     1       0.148   5.300  -0.317  0.00  0.00    +0.262 C 
ATOM      6  O   UNL     1       1.236   5.831  -0.424  0.00  0.00    -0.269 OA
ATOM      7  N   UNL     1      -0.973   6.048  -0.353  0.00  0.00    -0.230 N 
ATOM      8  H   UNL     1      -1.842   5.625  -0.268  0.00  0.00    +0.173 HD
BRANCH   5  13
ATOM      9  C   UNL     1      -1.274   1.840  -0.003  0.00  0.00    +0.001 A 
ATOM     10  C   UNL     1      -0.125   1.088   0.175  0.00  0.00    +0.002 A 
ATOM     11  C   UNL     1       1.114   1.697   0.189  0.00  0.00    +0.027 A 
ATOM     12  C   UNL     1       1.215   3.072   0.029  0.00  0.00    +0.058 A 
ATOM     13  C   UNL     1       0.053   3.837  -0.146  0.00  0.00    +0.062 A 
ATOM     14  C   UNL     1      -1.193   3.208  -0.158  0.00  0.00    +0.015 A 
BRANCH  12  15
ATOM     15  N   UNL     1       2.467   3.690   0.042  0.00  0.00    -0.322 N 
ATOM     16  C   UNL     1       3.507   3.401  -0.796  0.00  0.00    +0.091 A 
ATOM     17  C   UNL     1       4.540   4.206  -0.478  0.00  0.00    +0.019 A 
ATOM     18  C   UNL     1       4.130   5.016   0.600  0.00  0.00    +0.019 A 
ATOM     19  C   UNL     1       2.859   4.680   0.898  0.00  0.00    +0.091 A 
ENDBRANCH  12  15
ENDBRANCH   5  13
ENDBRANCH   1   7
BRANCH   2  20
ATOM     20  C   UNL     1      -1.908   9.678  -0.726  0.00  0.00    +0.117 C 
BRANCH  20  21
ATOM     21  C   UNL     1      -3.314  10.282  -0.734  0.00  0.00    +0.127 C 
BRANCH  21  22
ATOM     22  N   UNL     1      -3.221  11.734  -0.903  0.00  0.00    -0.224 N 
ATOM     23  C   UNL     1      -3.220  12.360  -2.099  0.00  0.00    +0.247 C 
ATOM     24  O   UNL     1      -3.294  11.848  -3.195  0.00  0.00    -0.273 OA
ATOM     25  C   UNL     1      -3.108  13.834  -1.783  0.00  0.00    +0.113 C 
ATOM     26  C   UNL     1      -4.333  14.582  -2.296  0.00  0.00    +0.035 C 
ATOM     27  C   UNL     1      -4.214  16.066  -1.942  0.00  0.00    +0.003 C 
ATOM     28  C   UNL     1      -2.944  16.640  -2.574  0.00  0.00    +0.000 C 
ATOM     29  C   UNL     1      -1.722  15.896  -2.031  0.00  0.00    +0.003 C 
ATOM     30  C   UNL     1      -1.831  14.411  -2.385  0.00  0.00    +0.035 C 
ATOM     31  N   UNL     1      -3.053  13.881  -0.316  0.00  0.00    -0.285 N 
ATOM     32  C   UNL     1      -3.131  12.605   0.109  0.00  0.00    +0.309 C 
ATOM     33  O   UNL     1      -3.118  12.282   1.280  0.00  0.00    -0.252 OA
ATOM     34  H   UNL     1      -2.979  14.674   0.237  0.00  0.00    +0.151 HD
ENDBRANCH  21  22
ENDBRANCH  20  21
ENDBRANCH   2  20
TORSDOF 6
