REMARK  Name = ZINC22798536
REMARK  9 active torsions:
REMARK  status: ('A' for Active; 'I' for Inactive)
REMARK    1  A    between atoms: C_1  and  C_2
REMARK    2  A    between atoms: C_2  and  N_3
REMARK    3  A    between atoms: N_6  and  C_9
REMARK    4  A    between atoms: C_9  and  C_11
REMARK    5  A    between atoms: C_9  and  C_19
REMARK    6  A    between atoms: C_15  and  O_17
REMARK    7  A    between atoms: O_17  and  C_18
REMARK    8  A    between atoms: C_20  and  O_32
REMARK    9  A    between atoms: C_25  and  C_27
REMARK                            x       y       z     vdW  Elec       q    Type
REMARK                         _______ _______ _______ _____ _____    ______ ____
ROOT
ATOM      1  C   UNL     1       3.433  -2.512  -3.697  0.00  0.00    +0.129 C 
ENDROOT
BRANCH   1   2
ATOM      2  C   UNL     1       2.708  -2.015  -4.922  0.00  0.00    +0.076 A 
ATOM      3  C   UNL     1       3.201  -1.395  -6.000  0.00  0.00    +0.228 A 
ATOM      4  N   UNL     1       2.374  -1.014  -7.029  0.00  0.00    -0.173 N 
ATOM      5  C   UNL     1       1.042  -1.298  -6.896  0.00  0.00    +0.200 A 
ATOM      6  S   UNL     1       0.969  -2.109  -5.317  0.00  0.00    -0.047 S 
ATOM      7  N   UNL     1       0.395  -0.877  -7.946  0.00  0.00    -0.197 NA
ATOM      8  C   UNL     1       1.258  -0.309  -8.800  0.00  0.00    +0.218 A 
ATOM      9  N   UNL     1       2.469  -0.367  -8.289  0.00  0.00    -0.138 NA
BRANCH   8  10
ATOM     10  C   UNL     1       0.907   0.287 -10.105  0.00  0.00    +0.173 A 
ATOM     11  C   UNL     1      -0.341   0.358 -10.640  0.00  0.00    +0.053 A 
ATOM     12  C   UNL     1      -0.213   1.002 -11.887  0.00  0.00    +0.042 A 
ATOM     13  C   UNL     1       1.093   1.288 -12.051  0.00  0.00    +0.196 A 
ATOM     14  O   UNL     1       1.766   0.860 -10.970  0.00  0.00    -0.460 OA
ENDBRANCH   8  10
BRANCH   3  15
ATOM     15  O   UNL     1       4.534  -1.138  -6.079  0.00  0.00    -0.492 OA
ATOM     16  H   UNL     1       4.801  -0.687  -6.892  0.00  0.00    +0.294 HD
ENDBRANCH   3  15
ENDBRANCH   1   2
BRANCH   1  20
ATOM     17  N   UNL     1       2.732  -0.404  -0.101  0.00  0.00    +0.381 N 
ATOM     18  C   UNL     1       2.754  -1.872  -0.048  0.00  0.00    -0.063 C 
ATOM     19  C   UNL     1       3.484  -2.416  -1.278  0.00  0.00    +0.067 C 
ATOM     20  N   UNL     1       2.794  -1.963  -2.494  0.00  0.00    -0.295 NA
ATOM     21  C   UNL     1       2.742  -0.495  -2.549  0.00  0.00    +0.067 C 
ATOM     22  C   UNL     1       2.018   0.033  -1.308  0.00  0.00    -0.063 C 
ATOM     23  H   UNL     1       3.678  -0.055  -0.125  0.00  0.00    -0.082 HD
BRANCH  17  25
ATOM     24  C   UNL     1       2.857  -0.232   2.338  0.00  0.00    -0.017 C 
ATOM     25  C   UNL     1       2.046   0.118   1.089  0.00  0.00    -0.082 C 
ENDBRANCH  17  25
ENDBRANCH   1  20
BRANCH   1  26
ATOM     26  C   UNL     1       3.375  -4.017  -3.655  0.00  0.00    -0.022 A 
ATOM     27  C   UNL     1       2.196  -4.653  -3.311  0.00  0.00    +0.006 A 
ATOM     28  C   UNL     1       2.139  -6.034  -3.271  0.00  0.00    +0.004 A 
ATOM     29  C   UNL     1       3.260  -6.782  -3.574  0.00  0.00    +0.045 A 
ATOM     30  C   UNL     1       4.444  -6.146  -3.920  0.00  0.00    +0.120 A 
ATOM     31  C   UNL     1       4.497  -4.760  -3.965  0.00  0.00    +0.051 A 
BRANCH  30  32
ATOM     32  O   UNL     1       5.548  -6.880  -4.219  0.00  0.00    -0.495 OA
ATOM     33  C   UNL     1       5.419  -8.301  -4.157  0.00  0.00    +0.277 C 
ENDBRANCH  30  32
ENDBRANCH   1  26
TORSDOF 7
