REMARK  Name = ZINC08583390
REMARK  15 active torsions:
REMARK  status: ('A' for Active; 'I' for Inactive)
REMARK    1  A    between atoms: C_1  and  C_2
REMARK    2  A    between atoms: C_2  and  C_3
REMARK    3  A    between atoms: C_2  and  C_4
REMARK    4  A    between atoms: C_4  and  N_5
REMARK    5  A    between atoms: N_5  and  C_6
REMARK    6  A    between atoms: N_5  and  C_32
REMARK    7  A    between atoms: C_6  and  C_7
REMARK    8  A    between atoms: C_7  and  N_8
REMARK    9  A    between atoms: C_9  and  C_11
REMARK   10  A    between atoms: C_11  and  N_12
REMARK   11  A    between atoms: C_15  and  S_23
REMARK   12  A    between atoms: S_23  and  N_26
REMARK   13  A    between atoms: C_32  and  C_33
REMARK   14  A    between atoms: C_33  and  C_34
REMARK   15  A    between atoms: C_33  and  C_35
REMARK                            x       y       z     vdW  Elec       q    Type
REMARK                         _______ _______ _______ _____ _____    ______ ____
ROOT
ATOM      1  N   UNL     1       4.487  -4.314   3.905  0.00  0.00    -0.261 N 
ATOM      2  C   UNL     1       5.415  -5.042   3.166  0.00  0.00    +0.052 A 
ATOM      3  C   UNL     1       5.040  -5.587   1.943  0.00  0.00    +0.053 A 
ATOM      4  C   UNL     1       5.947  -6.317   1.199  0.00  0.00    +0.107 A 
ATOM      5  C   UNL     1       7.235  -6.514   1.661  0.00  0.00    +0.030 A 
ATOM      6  C   UNL     1       7.623  -5.976   2.874  0.00  0.00    +0.018 A 
ATOM      7  C   UNL     1       6.719  -5.242   3.623  0.00  0.00    +0.030 A 
ATOM      8  S   UNL     1       7.203  -4.540   5.169  0.00  0.00    -0.114 S 
ATOM      9  C   UNL     1       6.158  -3.056   5.273  0.00  0.00    +0.170 C 
ATOM     10  C   UNL     1       4.761  -3.413   4.844  0.00  0.00    +0.230 C 
ATOM     11  O   UNL     1       3.833  -2.852   5.388  0.00  0.00    -0.274 OA
ENDROOT
BRANCH   4  12
ATOM     12  S   UNL     1       5.458  -7.002  -0.349  0.00  0.00    +0.061 S 
ATOM     13  O   UNL     1       6.323  -8.101  -0.598  0.00  0.00    -0.153 OA
ATOM     14  O   UNL     1       4.044  -7.139  -0.304  0.00  0.00    -0.153 OA
BRANCH  12  15
ATOM     15  N   UNL     1       5.786  -5.869  -1.512  0.00  0.00    -0.172 NA
ATOM     16  C   UNL     1       4.785  -4.860  -1.890  0.00  0.00    +0.137 C 
ATOM     17  C   UNL     1       5.447  -3.478  -1.840  0.00  0.00    +0.177 C 
ATOM     18  O   UNL     1       6.648  -3.503  -2.616  0.00  0.00    -0.377 OA
ATOM     19  C   UNL     1       7.639  -4.412  -2.131  0.00  0.00    +0.177 C 
ATOM     20  C   UNL     1       7.091  -5.838  -2.192  0.00  0.00    +0.137 C 
ENDBRANCH  12  15
ENDBRANCH   4  12
BRANCH   1  21
ATOM     21  C   UNL     1       3.072  -4.559   3.616  0.00  0.00    +0.209 C 
BRANCH  21  23
ATOM     22  N   UNL     1       1.335  -3.666   2.097  0.00  0.00    -0.316 N 
ATOM     23  C   UNL     1       2.611  -3.621   2.530  0.00  0.00    +0.231 C 
ATOM     24  O   UNL     1       3.388  -2.827   2.045  0.00  0.00    -0.274 OA
ATOM     25  H   UNL     1       0.714  -4.302   2.485  0.00  0.00    +0.149 HD
BRANCH  22  26
ATOM     26  C   UNL     1       0.888  -2.754   1.041  0.00  0.00    +0.086 C 
BRANCH  26  27
ATOM     27  C   UNL     1      -0.590  -3.010   0.740  0.00  0.00    -0.060 C 
BRANCH  27  28
ATOM     28  N   UNL     1      -1.012  -2.171  -0.390  0.00  0.00    +0.381 N 
ATOM     29  H   UNL     1      -0.401  -2.334  -1.177  0.00  0.00    -0.082 HD
BRANCH  28  30
ATOM     30  C   UNL     1      -0.942  -0.756  -0.002  0.00  0.00    -0.076 C 
BRANCH  30  32
ATOM     31  C   UNL     1      -1.287   1.590  -0.790  0.00  0.00    +0.005 C 
ATOM     32  C   UNL     1      -1.235   0.122  -1.220  0.00  0.00    -0.034 C 
ATOM     33  C   UNL     1      -0.130  -0.066  -2.261  0.00  0.00    +0.005 C 
ENDBRANCH  30  32
ENDBRANCH  28  30
BRANCH  28  34
ATOM     34  C   UNL     1      -2.392  -2.509  -0.763  0.00  0.00    -0.076 C 
BRANCH  34  35
ATOM     35  C   UNL     1      -2.436  -3.935  -1.316  0.00  0.00    -0.034 C 
ATOM     36  C   UNL     1      -3.887  -4.326  -1.603  0.00  0.00    +0.005 C 
ATOM     37  C   UNL     1      -1.624  -4.005  -2.611  0.00  0.00    +0.005 C 
ENDBRANCH  34  35
ENDBRANCH  28  34
ENDBRANCH  27  28
ENDBRANCH  26  27
ENDBRANCH  22  26
ENDBRANCH  21  23
ENDBRANCH   1  21
TORSDOF 11
