REMARK  Name = ZINC21260239
REMARK  11 active torsions:
REMARK  status: ('A' for Active; 'I' for Inactive)
REMARK    1  A    between atoms: C_1  and  O_2
REMARK    2  A    between atoms: O_2  and  C_3
REMARK    3  A    between atoms: C_5  and  C_13
REMARK    4  A    between atoms: C_7  and  O_11
REMARK    5  A    between atoms: C_8  and  O_9
REMARK    6  A    between atoms: O_9  and  C_10
REMARK    7  A    between atoms: O_11  and  C_12
REMARK    8  A    between atoms: C_18  and  C_24
REMARK    9  A    between atoms: C_29  and  O_30
REMARK   10  A    between atoms: O_30  and  C_31
REMARK   11  A    between atoms: C_31  and  C_32
REMARK                            x       y       z     vdW  Elec       q    Type
REMARK                         _______ _______ _______ _____ _____    ______ ____
ROOT
ATOM      1  C   UNL     1       0.211   6.048  -0.479  0.00  0.00    +0.032 C 
ATOM      2  C   UNL     1      -0.898   6.936  -1.047  0.00  0.00    +0.059 C 
ATOM      3  C   UNL     1      -0.313   7.900  -2.048  0.00  0.00    +0.018 C 
ATOM      4  C   UNL     1       0.954   8.348  -1.918  0.00  0.00    +0.020 C 
ATOM      5  C   UNL     1       1.514   9.325  -2.925  0.00  0.00    +0.066 C 
ATOM      6  C   UNL     1       0.947   9.008  -4.310  0.00  0.00    +0.109 C 
ATOM      7  C   UNL     1      -0.548   8.844  -4.205  0.00  0.00    +0.218 C 
ATOM      8  O   UNL     1      -1.259   9.187  -5.125  0.00  0.00    -0.275 OA
ATOM      9  N   UNL     1      -1.094   8.319  -3.095  0.00  0.00    -0.289 N 
ATOM     10  C   UNL     1       1.774   7.925  -0.859  0.00  0.00    +0.162 C 
ATOM     11  O   UNL     1       2.905   8.359  -0.769  0.00  0.00    -0.292 OA
ATOM     12  C   UNL     1       1.273   6.944   0.167  0.00  0.00    +0.088 C 
ATOM     13  H   UNL     1      -2.189   8.228  -3.035  0.00  0.00    +0.155 HD
ENDROOT
BRANCH   1  16
ATOM     14  C   UNL     1      -0.787   2.893   1.346  0.00  0.00    +0.165 A 
ATOM     15  C   UNL     1      -0.259   3.751   0.394  0.00  0.00    +0.053 A 
ATOM     16  C   UNL     1      -0.366   5.119   0.558  0.00  0.00    -0.036 A 
ATOM     17  C   UNL     1      -1.000   5.638   1.672  0.00  0.00    +0.053 A 
ATOM     18  C   UNL     1      -1.531   4.787   2.629  0.00  0.00    +0.165 A 
ATOM     19  C   UNL     1      -1.431   3.410   2.464  0.00  0.00    +0.204 A 
BRANCH  14  21
ATOM     20  C   UNL     1      -0.013   1.086   0.008  0.00  0.00    +0.277 C 
ATOM     21  O   UNL     1      -0.682   1.547   1.184  0.00  0.00    -0.491 OA
ENDBRANCH  14  21
BRANCH  19  22
ATOM     22  O   UNL     1      -1.957   2.571   3.398  0.00  0.00    -0.488 OA
ATOM     23  C   UNL     1      -1.102   2.182   4.475  0.00  0.00    +0.277 C 
ENDBRANCH  19  22
BRANCH  18  24
ATOM     24  O   UNL     1      -2.156   5.298   3.723  0.00  0.00    -0.491 OA
ATOM     25  C   UNL     1      -2.228   6.721   3.823  0.00  0.00    +0.277 C 
ENDBRANCH  18  24
ENDBRANCH   1  16
BRANCH   5  26
ATOM     26  C   UNL     1       1.128  10.728  -2.532  0.00  0.00    +0.002 A 
ATOM     27  C   UNL     1      -0.206  11.077  -2.435  0.00  0.00    +0.008 A 
ATOM     28  C   UNL     1      -0.561  12.363  -2.074  0.00  0.00    +0.001 A 
ATOM     29  C   UNL     1       0.417  13.304  -1.809  0.00  0.00    +0.004 A 
ATOM     30  C   UNL     1       1.752  12.960  -1.904  0.00  0.00    +0.046 A 
ATOM     31  C   UNL     1       2.111  11.669  -2.262  0.00  0.00    +0.125 A 
BRANCH  31  32
ATOM     32  O   UNL     1       3.423  11.327  -2.351  0.00  0.00    -0.487 OA
BRANCH  32  33
ATOM     33  C   UNL     1       4.380  12.346  -2.058  0.00  0.00    +0.264 C 
BRANCH  33  34
ATOM     34  C   UNL     1       5.772  11.787  -2.208  0.00  0.00    -0.010 A 
ATOM     35  C   UNL     1       6.406  11.211  -1.124  0.00  0.00    +0.007 A 
ATOM     36  C   UNL     1       7.680  10.693  -1.262  0.00  0.00    +0.000 A 
ATOM     37  C   UNL     1       8.324  10.761  -2.484  0.00  0.00    +0.000 A 
ATOM     38  C   UNL     1       7.692  11.342  -3.567  0.00  0.00    +0.000 A 
ATOM     39  C   UNL     1       6.416  11.855  -3.430  0.00  0.00    +0.007 A 
ENDBRANCH  33  34
ENDBRANCH  32  33
ENDBRANCH  31  32
ENDBRANCH   5  26
TORSDOF 8
