REMARK  Name = ZINC03073719
REMARK  5 active torsions:
REMARK  status: ('A' for Active; 'I' for Inactive)
REMARK    1  A    between atoms: C_1  and  C_2
REMARK    2  A    between atoms: C_3  and  C_22
REMARK    3  A    between atoms: C_4  and  C_16
REMARK    4  A    between atoms: C_10  and  C_14
REMARK    5  A    between atoms: C_10  and  C_15
REMARK                            x       y       z     vdW  Elec       q    Type
REMARK                         _______ _______ _______ _____ _____    ______ ____
ROOT
ATOM      1  C   UNL     1       4.163  -3.261   2.261  0.00  0.00    +0.061 C 
ATOM      2  C   UNL     1       3.342  -2.967   1.032  0.00  0.00    +0.014 C 
ATOM      3  C   UNL     1       2.037  -2.678   1.155  0.00  0.00    +0.043 C 
ATOM      4  C   UNL     1       1.190  -2.373  -0.045  0.00  0.00    +0.090 C 
ATOM      5  C   UNL     1       1.854  -2.852  -1.312  0.00  0.00    +0.024 C 
ATOM      6  C   UNL     1       3.175  -3.131  -1.334  0.00  0.00    +0.016 C 
ATOM      7  N   UNL     1       3.933  -2.997  -0.202  0.00  0.00    -0.321 N 
ATOM      8  C   UNL     1       3.849  -3.599  -2.600  0.00  0.00    +0.058 C 
ATOM      9  C   UNL     1       2.853  -4.389  -3.451  0.00  0.00    -0.023 C 
ATOM     10  C   UNL     1       1.653  -3.487  -3.758  0.00  0.00    +0.086 C 
ATOM     11  C   UNL     1       1.062  -3.000  -2.463  0.00  0.00    +0.162 C 
ATOM     12  O   UNL     1      -0.122  -2.731  -2.412  0.00  0.00    -0.292 OA
ATOM     13  C   UNL     1       2.383  -5.624  -2.679  0.00  0.00    +0.011 C 
ATOM     14  C   UNL     1       3.518  -4.823  -4.758  0.00  0.00    +0.011 C 
ATOM     15  H   UNL     1       5.026  -2.913  -0.291  0.00  0.00    +0.152 HD
ENDROOT
BRANCH   3  16
ATOM     16  C   UNL     1       1.448  -2.660   2.444  0.00  0.00    +0.245 C 
ATOM     17  O   UNL     1       0.748  -3.588   2.806  0.00  0.00    -0.270 OA
ATOM     18  N   UNL     1       1.662  -1.616   3.268  0.00  0.00    -0.298 N 
ATOM     19  C   UNL     1       2.410  -0.438   2.807  0.00  0.00    +0.108 C 
ATOM     20  C   UNL     1       1.557   0.814   3.064  0.00  0.00    +0.019 C 
ATOM     21  C   UNL     1       1.163   0.860   4.543  0.00  0.00    +0.003 C 
ATOM     22  C   UNL     1       0.324  -0.373   4.887  0.00  0.00    +0.019 C 
ATOM     23  C   UNL     1       1.158  -1.636   4.648  0.00  0.00    +0.108 C 
ENDBRANCH   3  16
BRANCH   4  24
ATOM     24  C   UNL     1       0.973  -0.884  -0.133  0.00  0.00    -0.035 A 
ATOM     25  C   UNL     1      -0.299  -0.362   0.009  0.00  0.00    +0.004 A 
ATOM     26  C   UNL     1      -0.498   1.004  -0.070  0.00  0.00    +0.000 A 
ATOM     27  C   UNL     1       0.575   1.847  -0.292  0.00  0.00    +0.000 A 
ATOM     28  C   UNL     1       1.847   1.324  -0.436  0.00  0.00    +0.000 A 
ATOM     29  C   UNL     1       2.046  -0.041  -0.355  0.00  0.00    +0.004 A 
ENDBRANCH   4  24
TORSDOF 2
