REMARK  Name = ZINC09417724
REMARK  5 active torsions:
REMARK  status: ('A' for Active; 'I' for Inactive)
REMARK    1  A    between atoms: C_3  and  C_6
REMARK    2  A    between atoms: C_12  and  C_14
REMARK    3  A    between atoms: C_14  and  S_15
REMARK    4  A    between atoms: S_15  and  C_16
REMARK    5  A    between atoms: C_20  and  N_22
REMARK                            x       y       z     vdW  Elec       q    Type
REMARK                         _______ _______ _______ _____ _____    ______ ____
ROOT
ATOM      1  C   UNL     1      -1.859   5.815   0.049  0.00  0.00    +0.173 C 
ENDROOT
BRANCH   1   7
ATOM      2  C   UNL     1      -3.799   9.168   0.090  0.00  0.00    +0.113 C 
ATOM      3  C   UNL     1      -5.341   9.205   0.127  0.00  0.00    +0.029 C 
ATOM      4  C   UNL     1      -5.706   7.813   0.708  0.00  0.00    +0.021 C 
ATOM      5  C   UNL     1      -4.609   6.917   0.081  0.00  0.00    +0.108 C 
ATOM      6  N   UNL     1      -3.396   7.754   0.073  0.00  0.00    -0.293 N 
ATOM      7  C   UNL     1      -2.128   7.298   0.059  0.00  0.00    +0.226 C 
ATOM      8  O   UNL     1      -1.202   8.082   0.054  0.00  0.00    -0.275 OA
BRANCH   2  11
ATOM      9  C   UNL     1      -2.403  11.534  -2.549  0.00  0.00    +0.008 A 
ATOM     10  C   UNL     1      -2.806  11.110  -1.296  0.00  0.00    +0.013 A 
ATOM     11  C   UNL     1      -3.302   9.857  -1.155  0.00  0.00    +0.010 A 
ATOM     12  S   UNL     1      -3.222   9.237  -2.827  0.00  0.00    -0.100 S 
ATOM     13  C   UNL     1      -2.525  10.688  -3.600  0.00  0.00    +0.045 A 
ENDBRANCH   2  11
ENDBRANCH   1   7
BRANCH   1  14
ATOM     14  S   UNL     1      -0.073   5.525   0.031  0.00  0.00    -0.077 S 
BRANCH  14  15
ATOM     15  C   UNL     1      -0.049   3.764   0.022  0.00  0.00    +0.192 A 
ATOM     16  N   UNL     1       1.117   3.134   0.008  0.00  0.00    -0.207 NA
ATOM     17  C   UNL     1       1.173   1.804   0.001  0.00  0.00    +0.122 A 
ATOM     18  C   UNL     1      -0.013   1.076   0.008  0.00  0.00    +0.086 A 
ATOM     19  C   UNL     1      -1.218   1.772   0.017  0.00  0.00    +0.122 A 
ATOM     20  N   UNL     1      -1.197   3.103   0.029  0.00  0.00    -0.207 NA
ATOM     21  N   UNL     1       2.397   1.154  -0.015  0.00  0.00    -0.343 N 
ATOM     22  H   UNL     1       2.431   0.184  -0.020  0.00  0.00    +0.144 HD
ATOM     23  H   UNL     1       3.220   1.668  -0.020  0.00  0.00    +0.144 HD
BRANCH  19  24
ATOM     24  N   UNL     1      -2.424   1.088   0.019  0.00  0.00    -0.343 N 
ATOM     25  H   UNL     1      -2.431   0.118   0.014  0.00  0.00    +0.144 HD
ATOM     26  H   UNL     1      -3.260   1.579   0.026  0.00  0.00    +0.144 HD
ENDBRANCH  19  24
ENDBRANCH  14  15
ENDBRANCH   1  14
TORSDOF 5
