REMARK  Name = ZINC64182311
REMARK  6 active torsions:
REMARK  status: ('A' for Active; 'I' for Inactive)
REMARK    1  A    between atoms: C_1  and  N_2
REMARK    2  A    between atoms: N_2  and  C_3
REMARK    3  A    between atoms: C_3  and  C_4
REMARK    4  A    between atoms: C_15  and  C_17
REMARK    5  A    between atoms: C_17  and  O_18
REMARK    6  A    between atoms: O_18  and  C_19
REMARK                            x       y       z     vdW  Elec       q    Type
REMARK                         _______ _______ _______ _____ _____    ______ ____
ROOT
ATOM      1  C   UNL     1      -0.018   1.461   0.010  0.00  0.00    +0.132 C 
ATOM      2  N   UNL     1       0.002  -0.004   0.002  0.00  0.00    -0.295 N 
ATOM      3  C   UNL     1       0.000  -0.672  -1.169  0.00  0.00    +0.253 C 
ATOM      4  O   UNL     1       0.017  -1.884  -1.175  0.00  0.00    -0.272 OA
ENDROOT
BRANCH   2   5
ATOM      5  C   UNL     1       0.024  -0.743   1.267  0.00  0.00    +0.181 C 
BRANCH   5   6
ATOM      6  C   UNL     1      -1.389  -1.016   1.714  0.00  0.00    +0.140 C 
ATOM      7  N   UNL     1      -2.379  -0.589   0.958  0.00  0.00    -0.163 NA
ATOM      8  C   UNL     1      -3.650  -0.977   1.129  0.00  0.00    +0.257 C 
ATOM      9  O   UNL     1      -4.565  -0.435   0.540  0.00  0.00    -0.272 OA
ATOM     10  C   UNL     1      -3.892  -2.108   2.079  0.00  0.00    +0.187 C 
ATOM     11  C   UNL     1      -2.821  -2.040   3.161  0.00  0.00    +0.066 C 
ATOM     12  N   UNL     1      -1.576  -1.681   2.848  0.00  0.00    -0.236 NA
ATOM     13  C   UNL     1      -3.364  -2.159   4.415  0.00  0.00    +0.032 C 
ATOM     14  C   UNL     1      -4.709  -2.115   4.608  0.00  0.00    +0.043 C 
ATOM     15  S   UNL     1      -5.413  -1.928   3.068  0.00  0.00    -0.114 S 
ENDBRANCH   5   6
ENDBRANCH   2   5
BRANCH   3  16
ATOM     16  C   UNL     1      -0.023   0.089  -2.470  0.00  0.00    +0.324 C 
BRANCH  16  17
ATOM     17  O   UNL     1      -0.020  -0.834  -3.561  0.00  0.00    -0.482 OA
BRANCH  17  18
ATOM     18  C   UNL     1      -0.039  -0.308  -4.814  0.00  0.00    +0.135 A 
ATOM     19  C   UNL     1      -0.054   1.068  -4.989  0.00  0.00    +0.048 A 
ATOM     20  C   UNL     1      -0.073   1.601  -6.264  0.00  0.00    +0.019 A 
ATOM     21  C   UNL     1      -0.077   0.764  -7.365  0.00  0.00    +0.019 A 
ATOM     22  C   UNL     1      -0.063  -0.609  -7.193  0.00  0.00    +0.034 A 
ATOM     23  C   UNL     1      -0.038  -1.146  -5.920  0.00  0.00    +0.061 A 
ATOM     24 BR   UNL     1      -0.011  -3.022  -5.685  0.00  0.00    -0.046 Br
ATOM     25 BR   UNL     1      -0.103   1.497  -9.108  0.00  0.00    -0.050 Br
ENDBRANCH  17  18
ENDBRANCH  16  17
ENDBRANCH   3  16
TORSDOF 5
