REMARK  Name = ZINC63234406
REMARK  8 active torsions:
REMARK  status: ('A' for Active; 'I' for Inactive)
REMARK    1  A    between atoms: C_7  and  C_10
REMARK    2  A    between atoms: C_10  and  C_12
REMARK    3  A    between atoms: C_10  and  C_28
REMARK    4  A    between atoms: C_12  and  N_13
REMARK    5  A    between atoms: C_14  and  C_16
REMARK    6  A    between atoms: C_16  and  N_17
REMARK    7  A    between atoms: N_17  and  S_18
REMARK    8  A    between atoms: S_18  and  C_21
REMARK                            x       y       z     vdW  Elec       q    Type
REMARK                         _______ _______ _______ _____ _____    ______ ____
ROOT
ATOM      1  C   UNL     1       0.691  -3.186  -0.024  0.00  0.00    +0.066 C 
ENDROOT
BRANCH   1   8
ATOM      2  C   UNL     1      -0.016   1.348   0.009  0.00  0.00    +0.001 A 
ATOM      3  C   UNL     1       1.166   2.101   0.002  0.00  0.00    +0.002 A 
ATOM      4  C   UNL     1       2.391   1.535  -0.013  0.00  0.00    +0.026 A 
ATOM      5  C   UNL     1       2.529   0.120  -0.022  0.00  0.00    +0.043 A 
ATOM      6  N   UNL     1       3.587  -0.654  -0.037  0.00  0.00    -0.380 N 
ATOM      7  C   UNL     1       3.143  -2.053  -0.041  0.00  0.00    +0.145 C 
ATOM      8  C   UNL     1       1.631  -2.008  -0.025  0.00  0.00    -0.033 C 
ATOM      9  C   UNL     1       1.295  -0.698  -0.014  0.00  0.00    -0.000 A 
ATOM     10  C   UNL     1       0.002  -0.004   0.002  0.00  0.00    +0.010 A 
ATOM     11  H   UNL     1       4.509  -0.353  -0.045  0.00  0.00    +0.160 HD
ENDBRANCH   1   8
BRANCH   1  12
ATOM     12  C   UNL     1       0.920  -4.014  -1.262  0.00  0.00    -0.020 A 
ATOM     13  C   UNL     1       2.158  -4.583  -1.493  0.00  0.00    +0.006 A 
ATOM     14  C   UNL     1       2.369  -5.342  -2.629  0.00  0.00    +0.000 A 
ATOM     15  C   UNL     1       1.341  -5.534  -3.534  0.00  0.00    +0.001 A 
ATOM     16  C   UNL     1       0.103  -4.965  -3.303  0.00  0.00    +0.020 A 
ATOM     17  C   UNL     1      -0.110  -4.210  -2.164  0.00  0.00    +0.045 A 
ATOM     18 CL   UNL     1      -1.668  -3.501  -1.871  0.00  0.00    -0.083 Cl
ENDBRANCH   1  12
BRANCH   1  19
ATOM     19  C   UNL     1       0.947  -4.042   1.218  0.00  0.00    +0.116 C 
BRANCH  19  20
ATOM     20  N   UNL     1      -0.044  -5.118   1.282  0.00  0.00    -0.313 N 
ATOM     21  C   UNL     1      -0.013  -6.003   2.298  0.00  0.00    +0.229 C 
ATOM     22  O   UNL     1       0.836  -5.909   3.159  0.00  0.00    -0.274 OA
ATOM     23  H   UNL     1      -0.723  -5.194   0.593  0.00  0.00    +0.149 HD
BRANCH  21  24
ATOM     24  C   UNL     1      -1.034  -7.111   2.364  0.00  0.00    +0.201 C 
BRANCH  24  25
ATOM     25  N   UNL     1      -0.788  -7.931   3.553  0.00  0.00    -0.181 NA
ATOM     26  H   UNL     1       0.056  -7.859   4.026  0.00  0.00    +0.149 HD
BRANCH  25  27
ATOM     27  S   UNL     1      -1.951  -8.980   4.090  0.00  0.00    +0.059 S 
ATOM     28  O   UNL     1      -1.410  -9.639   5.227  0.00  0.00    -0.153 OA
ATOM     29  O   UNL     1      -3.167  -8.247   4.141  0.00  0.00    -0.153 OA
BRANCH  27  30
ATOM     30  C   UNL     1      -2.157 -10.210   2.845  0.00  0.00    +0.105 A 
ATOM     31  C   UNL     1      -3.078 -10.021   1.833  0.00  0.00    +0.030 A 
ATOM     32  C   UNL     1      -3.240 -10.986   0.856  0.00  0.00    +0.022 A 
ATOM     33  C   UNL     1      -2.480 -12.141   0.893  0.00  0.00    +0.041 A 
ATOM     34  C   UNL     1      -1.558 -12.330   1.907  0.00  0.00    +0.022 A 
ATOM     35  C   UNL     1      -1.393 -11.362   2.879  0.00  0.00    +0.030 A 
ATOM     36 CL   UNL     1      -2.683 -13.354  -0.333  0.00  0.00    -0.084 Cl
ENDBRANCH  27  30
ENDBRANCH  25  27
ENDBRANCH  24  25
ENDBRANCH  21  24
ENDBRANCH  19  20
ENDBRANCH   1  19
TORSDOF 8
