REMARK  Name = ZINC04815536
REMARK  8 active torsions:
REMARK  status: ('A' for Active; 'I' for Inactive)
REMARK    1  A    between atoms: C_1  and  C_2
REMARK    2  A    between atoms: C_2  and  O_3
REMARK    3  A    between atoms: O_3  and  C_4
REMARK    4  A    between atoms: C_6  and  C_12
REMARK    5  A    between atoms: C_9  and  O_10
REMARK    6  A    between atoms: N_13  and  N_14
REMARK    7  A    between atoms: C_15  and  C_17
REMARK    8  A    between atoms: C_20  and  C_24
REMARK                            x       y       z     vdW  Elec       q    Type
REMARK                         _______ _______ _______ _____ _____    ______ ____
ROOT
ATOM      1  C   UNL     1      -5.980   3.799   5.852  0.00  0.00    +0.138 C 
ATOM      2  N   UNL     1      -4.698   3.600   5.872  0.00  0.00    -0.187 NA
ENDROOT
BRANCH   1   5
ATOM      3  C   UNL     1      -8.695   4.935   8.184  0.00  0.00    +0.164 A 
ATOM      4  C   UNL     1      -8.051   4.494   7.043  0.00  0.00    +0.059 A 
ATOM      5  C   UNL     1      -6.671   4.274   7.064  0.00  0.00    -0.000 A 
ATOM      6  C   UNL     1      -5.948   4.511   8.236  0.00  0.00    +0.033 A 
ATOM      7  C   UNL     1      -6.597   4.957   9.369  0.00  0.00    +0.087 A 
ATOM      8  C   UNL     1      -7.968   5.170   9.348  0.00  0.00    +0.177 A 
ATOM      9 CL   UNL     1      -5.696   5.251  10.824  0.00  0.00    -0.080 Cl
BRANCH   8  10
ATOM     10  O   UNL     1      -8.604   5.608  10.468  0.00  0.00    -0.502 OA
ATOM     11  H   UNL     1      -8.654   6.571  10.540  0.00  0.00    +0.292 HD
ENDBRANCH   8  10
BRANCH   3  12
ATOM     12  O   UNL     1     -10.039   5.145   8.168  0.00  0.00    -0.489 OA
BRANCH  12  14
ATOM     13  C   UNL     1     -12.214   5.175   7.114  0.00  0.00    +0.048 C 
ATOM     14  C   UNL     1     -10.722   4.884   6.940  0.00  0.00    +0.226 C 
ENDBRANCH  12  14
ENDBRANCH   3  12
ENDBRANCH   1   5
BRANCH   2  15
ATOM     15  N   UNL     1      -4.041   3.148   4.720  0.00  0.00    -0.203 N 
ATOM     16  C   UNL     1      -2.709   2.942   4.741  0.00  0.00    +0.265 C 
ATOM     17  O   UNL     1      -2.078   3.148   5.759  0.00  0.00    -0.268 OA
ATOM     18  H   UNL     1      -4.545   2.984   3.907  0.00  0.00    +0.178 HD
BRANCH  16  19
ATOM     19  C   UNL     1      -2.017   2.466   3.526  0.00  0.00    +0.057 A 
ATOM     20  C   UNL     1      -2.739   2.228   2.354  0.00  0.00    +0.015 A 
ATOM     21  C   UNL     1      -2.085   1.788   1.222  0.00  0.00    +0.004 A 
ATOM     22  C   UNL     1      -0.718   1.572   1.248  0.00  0.00    -0.049 A 
ATOM     23  C   UNL     1       0.004   1.805   2.404  0.00  0.00    +0.024 A 
ATOM     24  C   UNL     1      -0.636   2.251   3.544  0.00  0.00    +0.053 A 
ATOM     25 CL   UNL     1       0.272   2.543   4.994  0.00  0.00    -0.083 Cl
ATOM     26  C   UNL     1      -0.013   1.086   0.008  0.00  0.00    +0.044 C 
ENDBRANCH  16  19
ENDBRANCH   2  15
TORSDOF 6
