REMARK  Name = ZINC62725564
REMARK  4 active torsions:
REMARK  status: ('A' for Active; 'I' for Inactive)
REMARK    1  A    between atoms: C_1  and  C_2
REMARK    2  A    between atoms: C_3  and  N_19
REMARK    3  A    between atoms: C_7  and  S_8
REMARK    4  A    between atoms: S_8  and  C_9
REMARK                            x       y       z     vdW  Elec       q    Type
REMARK                         _______ _______ _______ _____ _____    ______ ____
ROOT
ATOM      1  S   UNL     1       0.025   0.164   2.732  0.00  0.00    -0.050 S 
ENDROOT
BRANCH   1   2
ATOM      2  C   UNL     1      -0.095  -1.109   3.944  0.00  0.00    +0.196 A 
ATOM      3  N   UNL     1      -0.070  -2.405   3.725  0.00  0.00    -0.122 NA
ATOM      4  N   UNL     1      -0.173  -3.040   4.840  0.00  0.00    -0.134 NA
ATOM      5  C   UNL     1      -0.266  -2.195   5.824  0.00  0.00    +0.134 A 
ATOM      6  N   UNL     1      -0.225  -0.940   5.288  0.00  0.00    -0.306 N 
ATOM      7  C   UNL     1      -0.322   0.323   6.021  0.00  0.00    +0.125 C 
ATOM      8  C   UNL     1       0.216   0.127   7.441  0.00  0.00    +0.022 C 
ATOM      9  C   UNL     1      -0.916  -0.320   8.364  0.00  0.00    +0.002 C 
ATOM     10  C   UNL     1      -1.490  -1.656   7.904  0.00  0.00    +0.008 C 
ATOM     11  C   UNL     1      -0.384  -2.512   7.293  0.00  0.00    +0.076 C 
ENDBRANCH   1   2
BRANCH   1  18
ATOM     12  C   UNL     1       2.697  -1.049   1.963  0.00  0.00    +0.047 C 
ATOM     13  C   UNL     1       1.583  -1.226   0.965  0.00  0.00    -0.016 A 
ATOM     14  C   UNL     1       1.812  -1.915  -0.218  0.00  0.00    +0.029 A 
ATOM     15  C   UNL     1       0.781  -2.078  -1.136  0.00  0.00    +0.023 A 
ATOM     16  C   UNL     1      -0.470  -1.554  -0.873  0.00  0.00    +0.003 A 
ATOM     17  C   UNL     1      -0.702  -0.867   0.303  0.00  0.00    +0.015 A 
ATOM     18  C   UNL     1       0.323  -0.706   1.229  0.00  0.00    +0.020 A 
BRANCH  14  19
ATOM     19  N   UNL     1       3.076  -2.445  -0.485  0.00  0.00    -0.358 N 
ATOM     20  H   UNL     1       3.795  -2.331   0.156  0.00  0.00    +0.142 HD
ATOM     21  H   UNL     1       3.236  -2.926  -1.312  0.00  0.00    +0.142 HD
ENDBRANCH  14  19
ENDBRANCH   1  18
TORSDOF 3
