REMARK  Name = ZINC03343190
REMARK  8 active torsions:
REMARK  status: ('A' for Active; 'I' for Inactive)
REMARK    1  A    between atoms: C_2  and  C_3
REMARK    2  A    between atoms: C_3  and  N_4
REMARK    3  A    between atoms: C_5  and  C_26
REMARK    4  A    between atoms: C_8  and  S_9
REMARK    5  A    between atoms: S_9  and  C_10
REMARK    6  A    between atoms: C_10  and  C_11
REMARK    7  A    between atoms: N_13  and  C_14
REMARK    8  A    between atoms: C_15  and  C_23
REMARK                            x       y       z     vdW  Elec       q    Type
REMARK                         _______ _______ _______ _____ _____    ______ ____
ROOT
ATOM      1  C   UNL     1      -4.935  -2.800   1.027  0.00  0.00    +0.228 C 
ATOM      2  O   UNL     1      -4.612  -3.046  -0.115  0.00  0.00    -0.275 OA
ATOM      3  N   UNL     1      -5.791  -3.614   1.676  0.00  0.00    -0.279 N 
ATOM      4  H   UNL     1      -6.049  -3.417   2.590  0.00  0.00    +0.155 HD
ENDROOT
BRANCH   3   5
ATOM      5  C   UNL     1      -6.302  -4.734   1.037  0.00  0.00    +0.084 A 
ATOM      6  C   UNL     1      -7.181  -5.684   1.535  0.00  0.00    +0.068 A 
ATOM      7  C   UNL     1      -7.568  -6.770   0.650  0.00  0.00    -0.023 A 
ATOM      8  C   UNL     1      -7.010  -6.737  -0.580  0.00  0.00    -0.004 A 
ATOM      9  S   UNL     1      -5.992  -5.288  -0.575  0.00  0.00    -0.077 S 
ATOM     10  C   UNL     1      -7.215  -7.718  -1.692  0.00  0.00    +0.043 C 
ATOM     11  C   UNL     1      -7.867  -8.981  -1.109  0.00  0.00    +0.005 C 
ATOM     12  C   UNL     1      -9.045  -8.564  -0.224  0.00  0.00    +0.005 C 
ATOM     13  C   UNL     1      -8.527  -7.886   1.046  0.00  0.00    +0.037 C 
BRANCH   6  14
ATOM     14  C   UNL     1      -7.704  -5.595   2.902  0.00  0.00    +0.244 C 
ATOM     15  O   UNL     1      -8.736  -4.987   3.120  0.00  0.00    -0.270 OA
ATOM     16  N   UNL     1      -7.042  -6.185   3.916  0.00  0.00    -0.325 N 
ATOM     17  H   UNL     1      -6.219  -6.669   3.742  0.00  0.00    +0.145 HD
ATOM     18  H   UNL     1      -7.387  -6.126   4.821  0.00  0.00    +0.145 HD
ENDBRANCH   6  14
ENDBRANCH   3   5
BRANCH   1  19
ATOM     19  C   UNL     1      -4.379  -1.583   1.722  0.00  0.00    +0.173 C 
BRANCH  19  20
ATOM     20  S   UNL     1      -3.268  -0.701   0.598  0.00  0.00    -0.077 S 
BRANCH  20  25
ATOM     21  N   UNL     1      -1.923   1.645   1.308  0.00  0.00    -0.298 N 
ATOM     22  C   UNL     1      -1.849   2.449   2.423  0.00  0.00    +0.165 A 
ATOM     23  N   UNL     1      -2.622   1.911   3.337  0.00  0.00    -0.128 NA
ATOM     24  N   UNL     1      -3.167   0.841   2.877  0.00  0.00    -0.122 NA
ATOM     25  C   UNL     1      -2.779   0.635   1.637  0.00  0.00    +0.193 A 
BRANCH  22  26
ATOM     26  C   UNL     1      -1.049   3.683   2.564  0.00  0.00    +0.022 A 
ATOM     27  C   UNL     1       0.014   3.956   1.694  0.00  0.00    +0.031 A 
ATOM     28  C   UNL     1       0.730   5.122   1.860  0.00  0.00    +0.111 A 
ATOM     29  N   UNL     1       0.432   5.970   2.826  0.00  0.00    -0.263 NA
ATOM     30  C   UNL     1      -0.558   5.749   3.670  0.00  0.00    +0.111 A 
ATOM     31  C   UNL     1      -1.330   4.610   3.575  0.00  0.00    +0.031 A 
ENDBRANCH  22  26
BRANCH  21  32
ATOM     32  C   UNL     1      -1.232   1.838   0.030  0.00  0.00    +0.152 C 
BRANCH  32  34
ATOM     33  C   UNL     1       1.192   1.701  -0.231  0.00  0.00    +0.005 C 
ATOM     34  C   UNL     1       0.071   1.081   0.045  0.00  0.00    -0.013 C 
ENDBRANCH  32  34
ENDBRANCH  21  32
ENDBRANCH  20  25
ENDBRANCH  19  20
ENDBRANCH   1  19
TORSDOF 8
