REMARK  Name = ZINC45726241
REMARK  5 active torsions:
REMARK  status: ('A' for Active; 'I' for Inactive)
REMARK    1  A    between atoms: C_1  and  C_2
REMARK    2  A    between atoms: C_2  and  C_29
REMARK    3  A    between atoms: N_5  and  C_9
REMARK    4  A    between atoms: C_9  and  C_10
REMARK    5  A    between atoms: C_23  and  C_25
REMARK                            x       y       z     vdW  Elec       q    Type
REMARK                         _______ _______ _______ _____ _____    ______ ____
ROOT
ATOM      1  C   UNL     1       4.020  -0.950  -1.644  0.00  0.00    +0.238 C 
ATOM      2  O   UNL     1       3.975   0.180  -1.206  0.00  0.00    -0.273 OA
ATOM      3  N   UNL     1       5.097  -1.360  -2.343  0.00  0.00    -0.256 N 
ATOM      4  C   UNL     1       5.159  -2.661  -2.859  0.00  0.00    +0.058 A 
ATOM      5  C   UNL     1       5.345  -3.747  -2.019  0.00  0.00    +0.025 A 
ATOM      6  C   UNL     1       5.427  -5.021  -2.549  0.00  0.00    +0.002 A 
ATOM      7  C   UNL     1       5.327  -5.216  -3.915  0.00  0.00    +0.002 A 
ATOM      8  C   UNL     1       5.133  -4.138  -4.760  0.00  0.00    +0.025 A 
ATOM      9  C   UNL     1       5.038  -2.860  -4.235  0.00  0.00    +0.055 A 
ATOM     10  N   UNL     1       4.786  -1.761  -5.064  0.00  0.00    -0.284 N 
ATOM     11  C   UNL     1       5.530  -0.638  -4.959  0.00  0.00    +0.219 C 
ATOM     12  O   UNL     1       5.248   0.336  -5.624  0.00  0.00    -0.275 OA
ATOM     13  C   UNL     1       6.707  -0.589  -4.021  0.00  0.00    +0.128 C 
ATOM     14  C   UNL     1       6.220  -0.451  -2.582  0.00  0.00    +0.194 C 
ATOM     15  H   UNL     1       4.072  -1.806  -5.719  0.00  0.00    +0.155 HD
ENDROOT
BRANCH  14  16
ATOM     16  C   UNL     1       7.365  -0.797  -1.628  0.00  0.00    +0.409 C 
ATOM     17  F   UNL     1       7.776  -2.116  -1.850  0.00  0.00    -0.169 F 
ATOM     18  F   UNL     1       8.439   0.070  -1.855  0.00  0.00    -0.169 F 
ATOM     19  F   UNL     1       6.928  -0.661  -0.306  0.00  0.00    -0.169 F 
ENDBRANCH  14  16
BRANCH   1  20
ATOM     20  C   UNL     1       2.871  -1.896  -1.406  0.00  0.00    +0.214 C 
BRANCH  20  25
ATOM     21  C   UNL     1      -0.019   1.526   0.010  0.00  0.00    +0.047 C 
ATOM     22  C   UNL     1       0.002  -0.004   0.002  0.00  0.00    +0.135 C 
ATOM     23  C   UNL     1       0.815  -0.520  -1.169  0.00  0.00    +0.251 C 
ATOM     24  O   UNL     1       0.595  -0.342  -2.348  0.00  0.00    -0.272 OA
ATOM     25  N   UNL     1       1.833  -1.217  -0.627  0.00  0.00    -0.215 N 
ATOM     26  C   UNL     1       1.777  -1.214   0.710  0.00  0.00    +0.310 C 
ATOM     27  O   UNL     1       2.586  -1.776   1.421  0.00  0.00    -0.252 OA
ATOM     28  N   UNL     1       0.724  -0.519   1.178  0.00  0.00    -0.281 N 
ATOM     29  H   UNL     1       0.487  -0.383   2.109  0.00  0.00    +0.152 HD
BRANCH  22  30
ATOM     30  C   UNL     1      -1.401  -0.551  -0.040  0.00  0.00    -0.016 A 
ATOM     31  C   UNL     1      -2.005  -0.815  -1.256  0.00  0.00    +0.006 A 
ATOM     32  C   UNL     1      -3.292  -1.317  -1.294  0.00  0.00    +0.000 A 
ATOM     33  C   UNL     1      -3.976  -1.556  -0.117  0.00  0.00    +0.000 A 
ATOM     34  C   UNL     1      -3.372  -1.294   1.099  0.00  0.00    +0.000 A 
ATOM     35  C   UNL     1      -2.083  -0.796   1.137  0.00  0.00    +0.006 A 
ENDBRANCH  22  30
ENDBRANCH  20  25
ENDBRANCH   1  20
TORSDOF 4
