REMARK  Name = ZINC36638651
REMARK  5 active torsions:
REMARK  status: ('A' for Active; 'I' for Inactive)
REMARK    1  A    between atoms: C_1  and  C_2
REMARK    2  A    between atoms: N_7  and  C_9
REMARK    3  A    between atoms: C_9  and  C_10
REMARK    4  A    between atoms: N_15  and  C_16
REMARK    5  A    between atoms: C_16  and  C_18
REMARK                            x       y       z     vdW  Elec       q    Type
REMARK                         _______ _______ _______ _____ _____    ______ ____
ROOT
ATOM      1  C   UNL     1      -0.210  -8.252   2.467  0.00  0.00    +0.269 C 
ATOM      2  O   UNL     1       0.948  -8.628   2.400  0.00  0.00    -0.268 OA
ENDROOT
BRANCH   1   3
ATOM      3  C   UNL     1      -1.310  -9.245   2.527  0.00  0.00    +0.041 A 
ATOM      4  C   UNL     1      -2.636  -8.804   2.615  0.00  0.00    +0.014 A 
ATOM      5  C   UNL     1      -3.663  -9.705   2.672  0.00  0.00    +0.016 A 
ATOM      6  C   UNL     1      -3.392 -11.071   2.647  0.00  0.00    +0.065 A 
ATOM      7  C   UNL     1      -2.057 -11.527   2.579  0.00  0.00    +0.079 A 
ATOM      8  C   UNL     1      -1.017 -10.602   2.505  0.00  0.00    +0.041 A 
ATOM      9  N   UNL     1      -1.838 -12.856   2.625  0.00  0.00    -0.233 NA
ATOM     10  C   UNL     1      -2.800 -13.761   2.678  0.00  0.00    +0.113 A 
ATOM     11  N   UNL     1      -4.092 -13.409   2.591  0.00  0.00    -0.296 N 
ATOM     12  C   UNL     1      -4.448 -12.089   2.694  0.00  0.00    +0.262 A 
ATOM     13  O   UNL     1      -5.621 -11.793   2.818  0.00  0.00    -0.267 OA
ATOM     14  C   UNL     1      -5.214 -14.293   2.321  0.00  0.00    +0.126 C 
ATOM     15  C   UNL     1      -4.940 -15.783   2.641  0.00  0.00    +0.022 C 
ATOM     16  C   UNL     1      -4.710 -16.413   1.235  0.00  0.00    +0.002 C 
ATOM     17  C   UNL     1      -3.385 -15.840   0.702  0.00  0.00    +0.000 C 
ATOM     18  C   UNL     1      -2.193 -15.980   1.624  0.00  0.00    +0.008 C 
ATOM     19  C   UNL     1      -2.271 -15.156   2.893  0.00  0.00    +0.074 C 
ENDBRANCH   1   3
BRANCH   1  25
ATOM     20  C   UNL     1       1.562  -3.968   2.382  0.00  0.00    +0.008 A 
ATOM     21  C   UNL     1       2.716  -4.642   2.312  0.00  0.00    +0.067 A 
ATOM     22  S   UNL     1       2.157  -6.335   2.338  0.00  0.00    -0.061 S 
ATOM     23  C   UNL     1       0.501  -6.055   2.435  0.00  0.00    +0.163 A 
ATOM     24  N   UNL     1       0.416  -4.697   2.450  0.00  0.00    -0.341 N 
ATOM     25  N   UNL     1      -0.487  -6.947   2.488  0.00  0.00    -0.152 NA
ATOM     26  H   UNL     1      -0.446  -4.257   2.506  0.00  0.00    +0.167 HD
BRANCH  20  27
ATOM     27  C   UNL     1       1.534  -2.461   2.390  0.00  0.00    -0.024 C 
BRANCH  27  33
ATOM     28  C   UNL     1       1.826  -2.276  -2.493  0.00  0.00    +0.005 C 
ATOM     29  C   UNL     1       0.973  -1.905  -1.279  0.00  0.00    -0.031 C 
ATOM     30  C   UNL     1       0.756  -0.389  -1.251  0.00  0.00    -0.001 C 
ATOM     31  C   UNL     1      -0.032  -0.019   0.009  0.00  0.00    -0.018 C 
ATOM     32  C   UNL     1       0.724  -0.519   1.242  0.00  0.00    -0.078 C 
ATOM     33  N   UNL     1       0.876  -1.977   1.169  0.00  0.00    +0.384 N 
ATOM     34  C   UNL     1       1.691  -2.336   0.002  0.00  0.00    -0.075 C 
ATOM     35  H   UNL     1      -0.033  -2.405   1.086  0.00  0.00    -0.081 HD
ENDBRANCH  27  33
ENDBRANCH  20  27
ENDBRANCH   1  25
TORSDOF 4
