REMARK  Name = ZINC54617397
REMARK  12 active torsions:
REMARK  status: ('A' for Active; 'I' for Inactive)
REMARK    1  A    between atoms: C_1  and  C_2
REMARK    2  A    between atoms: C_2  and  C_3
REMARK    3  A    between atoms: C_3  and  C_4
REMARK    4  A    between atoms: C_4  and  S_5
REMARK    5  A    between atoms: S_5  and  C_6
REMARK    6  A    between atoms: C_11  and  C_27
REMARK    7  A    between atoms: C_13  and  C_17
REMARK    8  A    between atoms: C_14  and  C_16
REMARK    9  A    between atoms: N_19  and  C_20
REMARK   10  A    between atoms: C_24  and  C_26
REMARK   11  A    between atoms: C_30  and  O_36
REMARK   12  A    between atoms: C_31  and  N_33
REMARK                            x       y       z     vdW  Elec       q    Type
REMARK                         _______ _______ _______ _____ _____    ______ ____
ROOT
ATOM      1  C   UNL     1       1.619  -4.360  -2.448  0.00  0.00    +0.210 A 
ATOM      2  N   UNL     1       1.029  -5.099  -1.497  0.00  0.00    -0.187 NA
ATOM      3  C   UNL     1       1.167  -6.365  -1.781  0.00  0.00    +0.219 A 
ATOM      4  N   UNL     1       1.857  -6.464  -2.944  0.00  0.00    -0.220 N 
ATOM      5  N   UNL     1       2.135  -5.161  -3.355  0.00  0.00    -0.141 NA
ATOM      6  C   UNL     1       2.193  -7.735  -3.579  0.00  0.00    +0.177 C 
ATOM      7  C   UNL     1       1.929  -8.862  -2.617  0.00  0.00    +0.060 C 
ATOM      8  C   UNL     1       1.242  -8.704  -1.476  0.00  0.00    +0.018 C 
ATOM      9  N   UNL     1       0.732  -7.488  -1.091  0.00  0.00    -0.287 N 
ATOM     10  C   UNL     1       1.021  -9.901  -0.587  0.00  0.00    +0.061 C 
ATOM     11  H   UNL     1       0.092  -7.417  -0.365  0.00  0.00    +0.155 HD
ENDROOT
BRANCH   6  12
ATOM     12  C   UNL     1       1.347  -7.920  -4.813  0.00  0.00    -0.016 A 
ATOM     13  C   UNL     1      -0.032  -7.947  -4.707  0.00  0.00    +0.010 A 
ATOM     14  C   UNL     1      -0.809  -8.115  -5.835  0.00  0.00    +0.048 A 
ATOM     15  C   UNL     1      -0.206  -8.257  -7.077  0.00  0.00    +0.147 A 
ATOM     16  C   UNL     1       1.177  -8.229  -7.181  0.00  0.00    +0.168 A 
ATOM     17  C   UNL     1       1.950  -8.055  -6.049  0.00  0.00    +0.042 A 
BRANCH  16  18
ATOM     18  N   UNL     1       1.823  -8.380  -8.504  0.00  0.00    +0.060 N 
ATOM     19  O   UNL     1       3.028  -8.356  -8.594  0.00  0.00    -0.126 OA
ATOM     20  O   UNL     1       1.146  -8.529  -9.494  0.00  0.00    -0.126 OA
ENDBRANCH  16  18
BRANCH  15  21
ATOM     21  O   UNL     1      -0.969  -8.423  -8.189  0.00  0.00    -0.504 OA
ATOM     22  H   UNL     1      -1.217  -7.596  -8.624  0.00  0.00    +0.292 HD
ENDBRANCH  15  21
ENDBRANCH   6  12
BRANCH   7  23
ATOM     23  C   UNL     1       2.429 -10.148  -2.930  0.00  0.00    +0.248 C 
ATOM     24  O   UNL     1       3.615 -10.389  -2.800  0.00  0.00    -0.270 OA
ATOM     25  N   UNL     1       1.591 -11.107  -3.373  0.00  0.00    -0.282 N 
ATOM     26  H   UNL     1       0.659 -10.898  -3.539  0.00  0.00    +0.155 HD
BRANCH  25  27
ATOM     27  C   UNL     1       2.067 -12.403  -3.594  0.00  0.00    +0.034 A 
ATOM     28  C   UNL     1       1.250 -13.497  -3.340  0.00  0.00    +0.023 A 
ATOM     29  C   UNL     1       1.723 -14.776  -3.559  0.00  0.00    +0.002 A 
ATOM     30  C   UNL     1       3.008 -14.968  -4.031  0.00  0.00    +0.003 A 
ATOM     31  C   UNL     1       3.824 -13.881  -4.285  0.00  0.00    -0.049 A 
ATOM     32  C   UNL     1       3.356 -12.599  -4.074  0.00  0.00    +0.026 A 
ATOM     33  C   UNL     1       5.225 -14.095  -4.800  0.00  0.00    +0.044 C 
ENDBRANCH  25  27
ENDBRANCH   7  23
BRANCH   1  34
ATOM     34  S   UNL     1       1.686  -2.599  -2.481  0.00  0.00    -0.084 S 
BRANCH  34  35
ATOM     35  C   UNL     1       0.807  -2.098  -0.976  0.00  0.00    +0.077 C 
BRANCH  35  36
ATOM     36  C   UNL     1       0.791  -0.572  -0.879  0.00  0.00    +0.011 C 
BRANCH  36  38
ATOM     37  C   UNL     1       0.033   1.378   0.488  0.00  0.00    +0.004 C 
ATOM     38  C   UNL     1       0.050  -0.149   0.391  0.00  0.00    -0.003 C 
ENDBRANCH  36  38
ENDBRANCH  35  36
ENDBRANCH  34  35
ENDBRANCH   1  34
TORSDOF 9
