REMARK  Name = ZINC19107565
REMARK  6 active torsions:
REMARK  status: ('A' for Active; 'I' for Inactive)
REMARK    1  A    between atoms: C_5  and  C_7
REMARK    2  A    between atoms: C_10  and  S_13
REMARK    3  A    between atoms: N_11  and  N_12
REMARK    4  A    between atoms: S_13  and  C_14
REMARK    5  A    between atoms: C_14  and  C_15
REMARK    6  A    between atoms: N_17  and  C_18
REMARK                            x       y       z     vdW  Elec       q    Type
REMARK                         _______ _______ _______ _____ _____    ______ ____
ROOT
ATOM      1  C   UNL     1       1.253  -2.150   0.037  0.00  0.00    +0.183 A 
ATOM      2  N   UNL     1       0.217  -2.949   0.144  0.00  0.00    -0.127 NA
ATOM      3  N   UNL     1       0.599  -4.174   0.083  0.00  0.00    -0.121 NA
ATOM      4  C   UNL     1       1.905  -4.233  -0.058  0.00  0.00    +0.209 A 
ATOM      5  N   UNL     1       2.366  -2.948  -0.092  0.00  0.00    -0.224 N 
ENDROOT
BRANCH   1  10
ATOM      6  C   UNL     1       2.019   1.433  -0.788  0.00  0.00    +0.001 A 
ATOM      7  C   UNL     1       1.185   2.097   0.095  0.00  0.00    +0.001 A 
ATOM      8  C   UNL     1       0.374   1.384   0.959  0.00  0.00    +0.016 A 
ATOM      9  C   UNL     1       0.391   0.004   0.946  0.00  0.00    +0.029 A 
ATOM     10  C   UNL     1       1.229  -0.672   0.057  0.00  0.00    +0.035 A 
ATOM     11  C   UNL     1       2.045   0.054  -0.812  0.00  0.00    +0.013 A 
ATOM     12 BR   UNL     1      -0.719  -0.969   2.127  0.00  0.00    -0.050 Br
ENDBRANCH   1  10
BRANCH   5  13
ATOM     13  N   UNL     1       3.663  -2.541  -0.225  0.00  0.00    -0.295 N 
ATOM     14  H   UNL     1       4.131  -2.523   0.669  0.00  0.00    +0.163 HD
ATOM     15  H   UNL     1       4.160  -3.124  -0.881  0.00  0.00    +0.163 HD
ENDBRANCH   5  13
BRANCH   4  16
ATOM     16  S   UNL     1       2.878  -5.697  -0.179  0.00  0.00    -0.075 S 
BRANCH  16  17
ATOM     17  C   UNL     1       1.577  -6.950  -0.055  0.00  0.00    +0.173 C 
BRANCH  17  18
ATOM     18  C   UNL     1       2.193  -8.323  -0.137  0.00  0.00    +0.228 C 
ATOM     19  O   UNL     1       3.393  -8.443  -0.266  0.00  0.00    -0.275 OA
ATOM     20  N   UNL     1       1.411  -9.418  -0.066  0.00  0.00    -0.283 N 
ATOM     21  H   UNL     1       0.445  -9.323  -0.047  0.00  0.00    +0.155 HD
BRANCH  20  22
ATOM     22  C   UNL     1       1.989 -10.688  -0.021  0.00  0.00    +0.062 A 
ATOM     23  C   UNL     1       3.256 -10.844   0.453  0.00  0.00    +0.025 A 
ATOM     24  C   UNL     1       3.861 -12.097   0.511  0.00  0.00    +0.004 A 
ATOM     25  C   UNL     1       3.218 -13.217   0.100  0.00  0.00    +0.031 A 
ATOM     26  C   UNL     1       1.894 -13.133  -0.406  0.00  0.00    +0.102 A 
ATOM     27  C   UNL     1       1.253 -11.824  -0.465  0.00  0.00    +0.121 A 
ATOM     28  N   UNL     1       0.017 -11.893  -0.953  0.00  0.00    -0.189 NA
ATOM     29  S   UNL     1      -0.246 -13.406  -1.267  0.00  0.00    +0.117 S 
ATOM     30  N   UNL     1       1.097 -14.101  -0.856  0.00  0.00    -0.191 NA
ENDBRANCH  20  22
ENDBRANCH  17  18
ENDBRANCH  16  17
ENDBRANCH   4  16
TORSDOF 6
