REMARK  Name = ZINC40141131
REMARK  9 active torsions:
REMARK  status: ('A' for Active; 'I' for Inactive)
REMARK    1  A    between atoms: C_1  and  C_2
REMARK    2  A    between atoms: C_2  and  O_3
REMARK    3  A    between atoms: O_3  and  C_4
REMARK    4  A    between atoms: C_4  and  C_6
REMARK    5  A    between atoms: C_7  and  C_28
REMARK    6  A    between atoms: C_10  and  C_12
REMARK    7  A    between atoms: C_14  and  C_16
REMARK    8  A    between atoms: C_18  and  C_26
REMARK    9  A    between atoms: C_18  and  C_27
REMARK                            x       y       z     vdW  Elec       q    Type
REMARK                         _______ _______ _______ _____ _____    ______ ____
ROOT
ATOM      1  C   UNL     1       1.452  -2.346  -2.521  0.00  0.00    +0.067 C 
ATOM      2  C   UNL     1       1.631  -3.645  -2.826  0.00  0.00    +0.001 C 
ATOM      3  C   UNL     1       2.355  -3.745  -4.102  0.00  0.00    +0.124 C 
ATOM      4  N   UNL     1       2.619  -2.567  -4.578  0.00  0.00    -0.261 NA
ATOM      5  C   UNL     1       2.082  -1.563  -3.652  0.00  0.00    +0.141 C 
ATOM      6  C   UNL     1       3.213  -0.682  -3.118  0.00  0.00    +0.038 C 
ATOM      7  N   UNL     1       2.707  -4.936  -4.713  0.00  0.00    -0.267 N 
ATOM      8  C   UNL     1       3.372  -4.921  -5.886  0.00  0.00    +0.244 C 
ATOM      9  O   UNL     1       3.662  -3.860  -6.407  0.00  0.00    -0.270 OA
ATOM     10  C   UNL     1       1.164  -4.811  -1.992  0.00  0.00    +0.048 C 
ATOM     11  H   UNL     1       2.476  -5.782  -4.298  0.00  0.00    +0.157 HD
ENDROOT
BRANCH   8  12
ATOM     12  C   UNL     1       3.732  -6.137  -6.510  0.00  0.00    +0.087 C 
ATOM     13  C   UNL     1       4.398  -6.122  -7.684  0.00  0.00    +0.023 C 
ATOM     14  C   UNL     1       4.849  -7.327  -8.481  0.00  0.00    +0.030 C 
ATOM     15  C   UNL     1       5.534  -6.736  -9.691  0.00  0.00    -0.015 A 
ATOM     16  C   UNL     1       6.152  -7.305 -10.782  0.00  0.00    +0.006 A 
ATOM     17  C   UNL     1       6.707  -6.498 -11.761  0.00  0.00    +0.000 A 
ATOM     18  C   UNL     1       6.638  -5.122 -11.638  0.00  0.00    +0.002 A 
ATOM     19  C   UNL     1       6.020  -4.550 -10.546  0.00  0.00    +0.023 A 
ATOM     20  C   UNL     1       5.458  -5.356  -9.557  0.00  0.00    +0.035 A 
ATOM     21  N   UNL     1       4.788  -5.018  -8.383  0.00  0.00    -0.317 N 
ATOM     22  C   UNL     1       3.644  -8.170  -8.906  0.00  0.00    +0.022 C 
ATOM     23  C   UNL     1       5.832  -8.170  -7.666  0.00  0.00    +0.022 C 
ATOM     24  H   UNL     1       4.621  -4.106  -8.096  0.00  0.00    +0.152 HD
ENDBRANCH   8  12
BRANCH   1  25
ATOM     25  C   UNL     1       0.776  -1.799  -1.335  0.00  0.00    +0.338 C 
ATOM     26  O   UNL     1       0.312  -2.550  -0.500  0.00  0.00    -0.245 OA
BRANCH  25  27
ATOM     27  O   UNL     1       0.671  -0.465  -1.174  0.00  0.00    -0.462 OA
BRANCH  27  29
ATOM     28  C   UNL     1      -0.019   1.526   0.010  0.00  0.00    +0.048 C 
ATOM     29  C   UNL     1       0.002  -0.004   0.002  0.00  0.00    +0.229 C 
ENDBRANCH  27  29
ENDBRANCH  25  27
ENDBRANCH   1  25
TORSDOF 4
