REMARK  Name = ZINC02325115
REMARK  4 active torsions:
REMARK  status: ('A' for Active; 'I' for Inactive)
REMARK    1  A    between atoms: C_2  and  C_3
REMARK    2  A    between atoms: C_3  and  O_4
REMARK    3  A    between atoms: O_4  and  C_5
REMARK    4  A    between atoms: C_8  and  C_11
REMARK                            x       y       z     vdW  Elec       q    Type
REMARK                         _______ _______ _______ _____ _____    ______ ____
ROOT
ATOM      1  C   UNL     1      -0.484  -4.248  -0.015  0.00  0.00    +0.151 C 
ATOM      2  C   UNL     1      -0.069  -2.800  -0.012  0.00  0.00    +0.072 A 
ATOM      3  C   UNL     1       1.241  -2.143  -0.021  0.00  0.00    +0.199 A 
ATOM      4  O   UNL     1       2.278  -2.782  -0.034  0.00  0.00    -0.287 OA
ATOM      5  C   UNL     1       1.242  -0.666  -0.013  0.00  0.00    +0.064 A 
ATOM      6  C   UNL     1       2.431   0.061  -0.021  0.00  0.00    +0.015 A 
ATOM      7  C   UNL     1       2.388   1.427  -0.014  0.00  0.00    +0.001 A 
ATOM      8  C   UNL     1       1.168   2.091   0.002  0.00  0.00    +0.004 A 
ATOM      9  C   UNL     1      -0.017   1.388   0.010  0.00  0.00    +0.047 A 
ATOM     10  C   UNL     1       0.002  -0.004   0.002  0.00  0.00    +0.139 A 
ATOM     11  O   UNL     1      -1.146  -0.705   0.008  0.00  0.00    -0.450 OA
ATOM     12  C   UNL     1      -1.199  -2.052   0.002  0.00  0.00    +0.199 A 
ATOM     13  C   UNL     1      -2.365  -2.969   0.009  0.00  0.00    +0.289 C 
ATOM     14  O   UNL     1      -3.528  -2.614   0.023  0.00  0.00    -0.266 OA
ATOM     15  N   UNL     1      -1.952  -4.247  -0.001  0.00  0.00    -0.232 N 
ATOM     16  C   UNL     1      -2.766  -5.366   0.002  0.00  0.00    +0.169 A 
ATOM     17  N   UNL     1      -2.424  -6.634  -0.013  0.00  0.00    -0.224 NA
ATOM     18  C   UNL     1      -3.334  -7.631  -0.004  0.00  0.00    +0.080 A 
ATOM     19  C   UNL     1      -3.101  -9.026  -0.013  0.00  0.00    +0.030 A 
ATOM     20  C   UNL     1      -4.147  -9.912  -0.007  0.00  0.00    +0.022 A 
ATOM     21  C   UNL     1      -5.465  -9.476   0.008  0.00  0.00    +0.042 A 
ATOM     22  C   UNL     1      -5.730  -8.118   0.018  0.00  0.00    +0.037 A 
ATOM     23  C   UNL     1      -4.688  -7.225   0.012  0.00  0.00    +0.042 A 
ATOM     24  S   UNL     1      -4.551  -5.453   0.019  0.00  0.00    -0.052 S 
ATOM     25 CL   UNL     1      -6.768 -10.624   0.016  0.00  0.00    -0.084 Cl
ENDROOT
BRANCH   1  29
ATOM     26  C   UNL     1       0.953  -6.184  -3.544  0.00  0.00    +0.121 A 
ATOM     27  C   UNL     1       1.631  -6.336  -2.343  0.00  0.00    +0.046 A 
ATOM     28  C   UNL     1       1.164  -5.709  -1.204  0.00  0.00    +0.009 A 
ATOM     29  C   UNL     1       0.023  -4.931  -1.260  0.00  0.00    -0.022 A 
ATOM     30  C   UNL     1      -0.658  -4.783  -2.454  0.00  0.00    +0.009 A 
ATOM     31  C   UNL     1      -0.192  -5.403  -3.597  0.00  0.00    +0.046 A 
BRANCH  26  32
ATOM     32  O   UNL     1       1.409  -6.801  -4.666  0.00  0.00    -0.488 OA
BRANCH  32  33
ATOM     33  C   UNL     1       0.660  -6.600  -5.866  0.00  0.00    +0.256 C 
BRANCH  33  35
ATOM     34  C   UNL     1       0.580  -8.064  -7.818  0.00  0.00    +0.007 C 
ATOM     35  C   UNL     1       1.312  -7.354  -6.997  0.00  0.00    +0.006 C 
ENDBRANCH  33  35
ENDBRANCH  32  33
ENDBRANCH  26  32
ENDBRANCH   1  29
TORSDOF 4
