REMARK  Name = ZINC27833943
REMARK  10 active torsions:
REMARK  status: ('A' for Active; 'I' for Inactive)
REMARK    1  A    between atoms: C_1  and  C_2
REMARK    2  A    between atoms: C_2  and  N_3
REMARK    3  A    between atoms: N_3  and  C_4
REMARK    4  A    between atoms: N_3  and  C_6
REMARK    5  A    between atoms: C_4  and  C_5
REMARK    6  A    between atoms: C_6  and  C_7
REMARK    7  A    between atoms: C_7  and  S_8
REMARK    8  A    between atoms: S_8  and  C_9
REMARK    9  A    between atoms: N_19  and  C_20
REMARK   10  A    between atoms: C_23  and  C_26
REMARK                            x       y       z     vdW  Elec       q    Type
REMARK                         _______ _______ _______ _____ _____    ______ ____
ROOT
ATOM      1  C   UNL     1       1.638   2.162   0.306  0.00  0.00    +0.177 A 
ATOM      2  N   UNL     1       2.394   1.092   0.317  0.00  0.00    -0.223 NA
ATOM      3  C   UNL     1       3.716   1.157   0.035  0.00  0.00    +0.079 A 
ATOM      4  C   UNL     1       4.524   0.015   0.041  0.00  0.00    +0.028 A 
ATOM      5  C   UNL     1       5.855   0.128  -0.245  0.00  0.00    +0.002 A 
ATOM      6  C   UNL     1       6.421   1.361  -0.543  0.00  0.00    +0.001 A 
ATOM      7  C   UNL     1       5.657   2.495  -0.558  0.00  0.00    +0.015 A 
ATOM      8  C   UNL     1       4.295   2.410  -0.270  0.00  0.00    +0.065 A 
ATOM      9  C   UNL     1       3.426   3.594  -0.270  0.00  0.00    +0.267 A 
ATOM     10  O   UNL     1       3.867   4.700  -0.525  0.00  0.00    -0.267 OA
ATOM     11  N   UNL     1       2.118   3.411   0.022  0.00  0.00    -0.255 N 
ENDROOT
BRANCH  11  12
ATOM     12  C   UNL     1       1.248   4.509   0.035  0.00  0.00    +0.052 A 
ATOM     13  C   UNL     1       0.281   4.642  -0.953  0.00  0.00    +0.026 A 
ATOM     14  C   UNL     1      -0.578   5.723  -0.936  0.00  0.00    +0.005 A 
ATOM     15  C   UNL     1      -0.469   6.679   0.058  0.00  0.00    -0.050 A 
ATOM     16  C   UNL     1       0.497   6.552   1.040  0.00  0.00    +0.005 A 
ATOM     17  C   UNL     1       1.355   5.471   1.031  0.00  0.00    +0.026 A 
ATOM     18  C   UNL     1      -1.404   7.861   0.070  0.00  0.00    +0.044 C 
ENDBRANCH  11  12
BRANCH   1  19
ATOM     19  S   UNL     1      -0.075   1.985   0.680  0.00  0.00    -0.089 S 
BRANCH  19  20
ATOM     20  C   UNL     1      -0.152   0.199   0.962  0.00  0.00    +0.059 C 
BRANCH  20  21
ATOM     21  C   UNL     1      -1.586  -0.201   1.313  0.00  0.00    -0.068 C 
BRANCH  21  22
ATOM     22  N   UNL     1      -1.675  -1.663   1.421  0.00  0.00    +0.380 N 
ATOM     23  H   UNL     1      -1.099  -2.099   0.591  0.00  0.00    -0.082 HD
BRANCH  22  25
ATOM     24  C   UNL     1      -0.964  -3.660   2.647  0.00  0.00    -0.017 C 
ATOM     25  C   UNL     1      -1.081  -2.135   2.679  0.00  0.00    -0.082 C 
ENDBRANCH  22  25
BRANCH  22  26
ATOM     26  C   UNL     1      -3.066  -2.117   1.293  0.00  0.00    -0.082 C 
ATOM     27  C   UNL     1      -3.492  -2.049  -0.175  0.00  0.00    -0.017 C 
ENDBRANCH  22  26
ENDBRANCH  21  22
ENDBRANCH  20  21
ENDBRANCH  19  20
ENDBRANCH   1  19
TORSDOF 7
