REMARK  Name = ZINC49449402
REMARK  5 active torsions:
REMARK  status: ('A' for Active; 'I' for Inactive)
REMARK    1  A    between atoms: C_1  and  C_2
REMARK    2  A    between atoms: C_3  and  C_8
REMARK    3  A    between atoms: C_5  and  C_7
REMARK    4  A    between atoms: C_14  and  C_16
REMARK    5  A    between atoms: C_17  and  C_18
REMARK                            x       y       z     vdW  Elec       q    Type
REMARK                         _______ _______ _______ _____ _____    ______ ____
ROOT
ATOM      1  C   UNL     1      -0.008  -0.245  -2.563  0.00  0.00    +0.258 A 
ATOM      2  N   UNL     1      -0.022   1.008  -2.958  0.00  0.00    -0.105 NA
ATOM      3  N   UNL     1      -0.031   1.050  -4.244  0.00  0.00    -0.092 NA
ATOM      4  C   UNL     1      -0.023  -0.171  -4.721  0.00  0.00    +0.315 A 
ATOM      5  O   UNL     1      -0.003  -1.016  -3.673  0.00  0.00    -0.404 OA
ATOM      6  N   UNL     1      -0.029  -0.526  -6.060  0.00  0.00    -0.235 N 
ATOM      7  C   UNL     1      -0.044   0.429  -7.011  0.00  0.00    +0.244 C 
ATOM      8  O   UNL     1      -0.052   1.604  -6.693  0.00  0.00    -0.270 OA
ATOM      9  H   UNL     1      -0.022  -1.463  -6.313  0.00  0.00    +0.160 HD
ENDROOT
BRANCH   1  12
ATOM     10  C   UNL     1      -0.018   1.503   0.010  0.00  0.00    +0.067 C 
ATOM     11  C   UNL     1       0.002  -0.004   0.002  0.00  0.00    +0.058 A 
ATOM     12  C   UNL     1       0.006  -0.721  -1.171  0.00  0.00    +0.098 A 
ATOM     13  S   UNL     1       0.033  -2.389  -0.535  0.00  0.00    -0.067 S 
ATOM     14  C   UNL     1       0.036  -2.012   1.105  0.00  0.00    +0.076 A 
ATOM     15  N   UNL     1       0.023  -0.701   1.116  0.00  0.00    -0.249 NA
ATOM     16  C   UNL     1       0.055  -2.955   2.280  0.00  0.00    +0.073 C 
ENDBRANCH   1  12
BRANCH   7  17
ATOM     17  C   UNL     1      -0.050   0.053  -8.425  0.00  0.00    +0.068 C 
ATOM     18  C   UNL     1      -0.066   1.010  -9.377  0.00  0.00    +0.014 C 
BRANCH  18  19
ATOM     19  C   UNL     1      -0.072   0.632 -10.799  0.00  0.00    -0.007 A 
ATOM     20  C   UNL     1      -0.068  -0.717 -11.168  0.00  0.00    +0.009 A 
ATOM     21  C   UNL     1      -0.075  -1.063 -12.502  0.00  0.00    +0.001 A 
ATOM     22  C   UNL     1      -0.085  -0.080 -13.477  0.00  0.00    +0.001 A 
ATOM     23  C   UNL     1      -0.088   1.257 -13.121  0.00  0.00    +0.020 A 
ATOM     24  C   UNL     1      -0.088   1.621 -11.789  0.00  0.00    +0.048 A 
ATOM     25 CL   UNL     1      -0.099   3.299 -11.344  0.00  0.00    -0.083 Cl
ENDBRANCH  18  19
ENDBRANCH   7  17
TORSDOF 3
