REMARK  Name = ZINC00889648
REMARK  6 active torsions:
REMARK  status: ('A' for Active; 'I' for Inactive)
REMARK    1  A    between atoms: C_1  and  C_2
REMARK    2  A    between atoms: C_7  and  C_15
REMARK    3  A    between atoms: C_13  and  C_14
REMARK    4  A    between atoms: C_15  and  C_17
REMARK    5  A    between atoms: C_15  and  N_28
REMARK    6  A    between atoms: N_21  and  C_22
REMARK                            x       y       z     vdW  Elec       q    Type
REMARK                         _______ _______ _______ _____ _____    ______ ____
ROOT
ATOM      1  C   UNL     1      -2.518   4.282   0.048  0.00  0.00    +0.179 C 
ENDROOT
BRANCH   1   8
ATOM      2  C   UNL     1       3.106  -1.368   0.296  0.00  0.00    +0.044 C 
ATOM      3  C   UNL     1       1.895  -0.476   0.211  0.00  0.00    -0.046 A 
ATOM      4  C   UNL     1       0.644  -1.036  -0.016  0.00  0.00    +0.004 A 
ATOM      5  C   UNL     1      -0.467  -0.245  -0.096  0.00  0.00    +0.010 A 
ATOM      6  C   UNL     1      -0.345   1.140   0.053  0.00  0.00    -0.001 A 
ATOM      7  C   UNL     1      -1.516   2.016  -0.021  0.00  0.00    +0.021 A 
ATOM      8  C   UNL     1      -1.335   3.352   0.124  0.00  0.00    +0.045 A 
ATOM      9  C   UNL     1      -0.044   3.874   0.354  0.00  0.00    +0.255 A 
ATOM     10  O   UNL     1       0.095   5.078   0.488  0.00  0.00    -0.268 OA
ATOM     11  N   UNL     1       1.036   3.077   0.429  0.00  0.00    -0.322 N 
ATOM     12  H   UNL     1       1.909   3.469   0.587  0.00  0.00    +0.169 HD
ATOM     13  C   UNL     1       0.921   1.711   0.283  0.00  0.00    +0.052 A 
ATOM     14  C   UNL     1       2.038   0.886   0.361  0.00  0.00    -0.024 A 
ATOM     15  C   UNL     1       3.401   1.480   0.609  0.00  0.00    +0.046 C 
ENDBRANCH   1   8
BRANCH   1  16
ATOM     16  N   UNL     1      -2.559   5.122   1.253  0.00  0.00    -0.315 N 
ATOM     17  C   UNL     1      -2.497   4.296   2.478  0.00  0.00    +0.111 C 
ATOM     18  C   UNL     1      -3.318   5.128   3.490  0.00  0.00    +0.056 C 
ATOM     19  C   UNL     1      -4.244   5.927   2.595  0.00  0.00    -0.025 A 
ATOM     20  C   UNL     1      -3.740   5.874   1.300  0.00  0.00    +0.034 A 
ATOM     21  C   UNL     1      -4.425   6.530   0.279  0.00  0.00    +0.023 A 
ATOM     22  C   UNL     1      -5.583   7.227   0.556  0.00  0.00    +0.002 A 
ATOM     23  C   UNL     1      -6.073   7.278   1.848  0.00  0.00    +0.000 A 
ATOM     24  C   UNL     1      -5.400   6.627   2.867  0.00  0.00    +0.005 A 
ENDBRANCH   1  16
BRANCH   1  25
ATOM     25  C   UNL     1      -2.391   5.158  -1.171  0.00  0.00    +0.177 A 
ATOM     26  N   UNL     1      -1.583   6.180  -1.320  0.00  0.00    -0.111 NA
ATOM     27  N   UNL     1      -1.771   6.667  -2.498  0.00  0.00    -0.023 NA
ATOM     28  N   UNL     1      -2.677   5.983  -3.104  0.00  0.00    -0.044 NA
ATOM     29  N   UNL     1      -3.080   5.040  -2.321  0.00  0.00    -0.224 N 
BRANCH  29  30
ATOM     30  C   UNL     1      -4.099   4.033  -2.625  0.00  0.00    +0.111 C 
ATOM     31  C   UNL     1      -3.659   3.211  -3.839  0.00  0.00    +0.027 C 
ATOM     32  C   UNL     1      -4.723   2.159  -4.156  0.00  0.00    +0.002 C 
ATOM     33  C   UNL     1      -6.051   2.854  -4.466  0.00  0.00    +0.000 C 
ATOM     34  C   UNL     1      -6.491   3.675  -3.252  0.00  0.00    +0.002 C 
ATOM     35  C   UNL     1      -5.427   4.728  -2.935  0.00  0.00    +0.027 C 
ENDBRANCH  29  30
ENDBRANCH   1  25
TORSDOF 4
