REMARK  Name = ZINC11582553
REMARK  6 active torsions:
REMARK  status: ('A' for Active; 'I' for Inactive)
REMARK    1  A    between atoms: C_1  and  C_2
REMARK    2  A    between atoms: C_2  and  O_4
REMARK    3  A    between atoms: O_4  and  C_5
REMARK    4  A    between atoms: C_8  and  N_11
REMARK    5  A    between atoms: C_16  and  C_31
REMARK    6  A    between atoms: N_18  and  C_24
REMARK                            x       y       z     vdW  Elec       q    Type
REMARK                         _______ _______ _______ _____ _____    ______ ____
ROOT
ATOM      1  N   UNL     1      -1.288  -6.218  -0.156  0.00  0.00    -0.208 N 
ATOM      2  C   UNL     1      -2.447  -6.948  -0.230  0.00  0.00    +0.235 C 
ATOM      3  O   UNL     1      -3.561  -6.542  -0.486  0.00  0.00    -0.274 OA
ATOM      4  C   UNL     1      -2.051  -8.304   0.063  0.00  0.00    +0.145 C 
ATOM      5  C   UNL     1      -2.518  -9.684  -0.145  0.00  0.00    +0.157 C 
ATOM      6  N   UNL     1      -1.246 -10.470  -0.041  0.00  0.00    -0.244 N 
ATOM      7  O   UNL     1      -0.164  -9.527   0.129  0.00  0.00    -0.257 OA
ATOM      8  C   UNL     1      -0.614  -8.366  -0.593  0.00  0.00    +0.249 C 
ATOM      9  C   UNL     1      -0.171  -7.003  -0.135  0.00  0.00    +0.259 C 
ATOM     10  O   UNL     1       0.949  -6.671   0.190  0.00  0.00    -0.272 OA
ENDROOT
BRANCH   6  11
ATOM     11  C   UNL     1      -1.129 -11.861  -0.098  0.00  0.00    +0.065 A 
ATOM     12  C   UNL     1      -2.260 -12.649  -0.271  0.00  0.00    +0.029 A 
ATOM     13  C   UNL     1      -2.140 -14.023  -0.327  0.00  0.00    +0.022 A 
ATOM     14  C   UNL     1      -0.895 -14.616  -0.211  0.00  0.00    +0.041 A 
ATOM     15  C   UNL     1       0.233 -13.834  -0.039  0.00  0.00    +0.022 A 
ATOM     16  C   UNL     1       0.120 -12.459   0.012  0.00  0.00    +0.029 A 
ATOM     17 CL   UNL     1      -0.749 -16.345  -0.281  0.00  0.00    -0.084 Cl
ENDBRANCH   6  11
BRANCH   5  18
ATOM     18  C   UNL     1      -3.492 -10.088   0.932  0.00  0.00    -0.019 A 
ATOM     19  C   UNL     1      -3.044 -10.485   2.182  0.00  0.00    +0.023 A 
ATOM     20  C   UNL     1      -3.966 -10.849   3.144  0.00  0.00    +0.083 A 
ATOM     21  N   UNL     1      -5.259 -10.822   2.884  0.00  0.00    -0.367 N 
ATOM     22  C   UNL     1      -5.721 -10.449   1.706  0.00  0.00    +0.083 A 
ATOM     23  C   UNL     1      -4.859 -10.066   0.697  0.00  0.00    +0.023 A 
ATOM     24  H   UNL     1      -5.886 -11.082   3.577  0.00  0.00    +0.165 HD
ENDBRANCH   5  18
BRANCH   1  28
ATOM     25  C   UNL     1      -1.185  -2.050  -0.031  0.00  0.00    +0.132 A 
ATOM     26  C   UNL     1      -0.002  -2.774  -0.004  0.00  0.00    +0.048 A 
ATOM     27  C   UNL     1      -0.035  -4.153  -0.045  0.00  0.00    +0.027 A 
ATOM     28  C   UNL     1      -1.253  -4.816  -0.114  0.00  0.00    +0.044 A 
ATOM     29  C   UNL     1      -2.437  -4.091  -0.141  0.00  0.00    +0.027 A 
ATOM     30  C   UNL     1      -2.402  -2.712  -0.095  0.00  0.00    +0.048 A 
BRANCH  25  31
ATOM     31  O   UNL     1      -1.151  -0.691   0.009  0.00  0.00    -0.426 OA
BRANCH  31  33
ATOM     32  C   UNL     1      -0.883   1.471  -1.153  0.00  0.00    +0.136 C 
ATOM     33  C   UNL     1      -0.826  -0.035  -1.116  0.00  0.00    +0.309 C 
ATOM     34  O   UNL     1      -0.487  -0.651  -2.098  0.00  0.00    -0.251 OA
ENDBRANCH  31  33
ENDBRANCH  25  31
ENDBRANCH   1  28
TORSDOF 5
