REMARK  Name = ZINC04667866
REMARK  7 active torsions:
REMARK  status: ('A' for Active; 'I' for Inactive)
REMARK    1  A    between atoms: C_1  and  C_2
REMARK    2  A    between atoms: C_6  and  O_8
REMARK    3  A    between atoms: O_8  and  C_9
REMARK    4  A    between atoms: C_17  and  N_25
REMARK    5  A    between atoms: C_18  and  C_23
REMARK    6  A    between atoms: C_19  and  S_21
REMARK    7  A    between atoms: S_21  and  C_22
REMARK                            x       y       z     vdW  Elec       q    Type
REMARK                         _______ _______ _______ _____ _____    ______ ____
ROOT
ATOM      1  C   UNL     1       1.001   3.526  -0.352  0.00  0.00    +0.088 C 
ATOM      2  C   UNL     1       1.082   2.023  -0.264  0.00  0.00    +0.132 A 
ATOM      3  N   UNL     1       2.264   1.443  -0.285  0.00  0.00    -0.213 NA
ATOM      4  C   UNL     1       2.377   0.120  -0.210  0.00  0.00    +0.163 A 
ATOM      5  C   UNL     1       1.224  -0.651  -0.108  0.00  0.00    +0.116 A 
ATOM      6  C   UNL     1      -0.005   0.000  -0.089  0.00  0.00    +0.226 A 
ATOM      7  N   UNL     1      -0.033   1.327  -0.168  0.00  0.00    -0.198 NA
ATOM      8  N   UNL     1       3.632  -0.485  -0.232  0.00  0.00    -0.198 N 
ATOM      9  C   UNL     1       4.748   0.046  -0.792  0.00  0.00    +0.140 A 
ATOM     10  C   UNL     1       5.784  -0.865  -0.600  0.00  0.00    +0.125 A 
ATOM     11  C   UNL     1       5.202  -2.002   0.118  0.00  0.00    +0.138 A 
ATOM     12  N   UNL     1       3.935  -1.736   0.313  0.00  0.00    -0.156 NA
ENDROOT
BRANCH   9  13
ATOM     13  N   UNL     1       4.841   1.266  -1.432  0.00  0.00    -0.342 N 
ATOM     14  H   UNL     1       4.058   1.832  -1.513  0.00  0.00    +0.144 HD
ATOM     15  H   UNL     1       5.690   1.557  -1.801  0.00  0.00    +0.144 HD
ENDBRANCH   9  13
BRANCH  11  16
ATOM     16  S   UNL     1       6.052  -3.460   0.625  0.00  0.00    -0.106 S 
ATOM     17  C   UNL     1       4.774  -4.449   1.449  0.00  0.00    +0.091 C 
ENDBRANCH  11  16
BRANCH  10  18
ATOM     18  C   UNL     1       7.144  -0.722  -1.025  0.00  0.00    +0.105 C 
ATOM     19  N   UNL     1       8.223  -0.608  -1.361  0.00  0.00    -0.191 NA
ENDBRANCH  10  18
BRANCH   6  20
ATOM     20  O   UNL     1      -1.157  -0.707   0.010  0.00  0.00    -0.435 OA
BRANCH  20  21
ATOM     21  C   UNL     1      -2.321  -0.017   0.130  0.00  0.00    +0.165 A 
ATOM     22  C   UNL     1      -2.851   0.240   1.385  0.00  0.00    +0.049 A 
ATOM     23  C   UNL     1      -4.032   0.946   1.505  0.00  0.00    +0.004 A 
ATOM     24  C   UNL     1      -4.694   1.388   0.374  0.00  0.00    +0.003 A 
ATOM     25  C   UNL     1      -4.172   1.130  -0.880  0.00  0.00    +0.042 A 
ATOM     26  C   UNL     1      -2.987   0.428  -1.006  0.00  0.00    +0.165 A 
ATOM     27  F   UNL     1      -2.477   0.175  -2.231  0.00  0.00    -0.202 F 
ENDBRANCH  20  21
ENDBRANCH   6  20
TORSDOF 5
