REMARK  Name = ZINC43758242
REMARK  13 active torsions:
REMARK  status: ('A' for Active; 'I' for Inactive)
REMARK    1  A    between atoms: C_1  and  C_2
REMARK    2  A    between atoms: C_2  and  C_4
REMARK    3  A    between atoms: C_2  and  C_10
REMARK    4  A    between atoms: C_5  and  C_6
REMARK    5  A    between atoms: C_6  and  C_7
REMARK    6  A    between atoms: C_7  and  C_8
REMARK    7  A    between atoms: C_7  and  C_9
REMARK    8  A    between atoms: C_16  and  C_36
REMARK    9  A    between atoms: C_23  and  O_35
REMARK   10  A    between atoms: C_24  and  C_34
REMARK   11  A    between atoms: C_27  and  O_30
REMARK   12  A    between atoms: O_30  and  C_31
REMARK   13  A    between atoms: C_31  and  C_33
REMARK                            x       y       z     vdW  Elec       q    Type
REMARK                         _______ _______ _______ _____ _____    ______ ____
ROOT
ATOM      1  C   UNL     1       0.782  -0.603  -1.170  0.00  0.00    +0.002 C 
ATOM      2  C   UNL     1       0.151  -0.164  -2.515  0.00  0.00    +0.005 C 
ATOM      3  C   UNL     1      -0.385  -1.457  -3.189  0.00  0.00    +0.009 C 
ATOM      4  C   UNL     1      -0.603  -2.399  -2.001  0.00  0.00    +0.025 C 
ATOM      5  C   UNL     1       0.677  -2.123  -1.152  0.00  0.00    -0.018 C 
ATOM      6  C   UNL     1       0.478  -2.782   0.197  0.00  0.00    +0.035 C 
ATOM      7  C   UNL     1       0.260  -4.262  -0.033  0.00  0.00    -0.022 C 
ATOM      8  C   UNL     1      -0.173  -4.754  -1.182  0.00  0.00    -0.039 C 
ATOM      9  C   UNL     1      -0.578  -3.863  -2.315  0.00  0.00    -0.044 C 
ATOM     10  C   UNL     1      -0.870  -4.350  -3.500  0.00  0.00    -0.020 C 
ATOM     11  C   UNL     1      -0.851  -5.819  -3.808  0.00  0.00    +0.063 C 
ATOM     12  C   UNL     1       0.052  -6.576  -2.833  0.00  0.00    +0.082 C 
ATOM     13  C   UNL     1      -0.329  -6.243  -1.380  0.00  0.00    +0.022 C 
ATOM     14  C   UNL     1      -1.797  -6.634  -1.202  0.00  0.00    +0.018 C 
ATOM     15  C   UNL     1      -1.953  -8.138  -1.439  0.00  0.00    +0.046 C 
ATOM     16  C   UNL     1      -1.498  -8.483  -2.858  0.00  0.00    +0.179 C 
ATOM     17  C   UNL     1      -0.110  -8.082  -3.061  0.00  0.00    +0.080 C 
ATOM     18  C   UNL     1       0.548  -6.997  -0.379  0.00  0.00    +0.019 C 
ATOM     19  C   UNL     1       1.897  -2.733  -1.845  0.00  0.00    +0.012 C 
ENDROOT
BRANCH   1  21
ATOM     20  C   UNL     1      -1.491  -0.279  -0.185  0.00  0.00    +0.012 C 
ATOM     21  C   UNL     1       0.002  -0.004   0.002  0.00  0.00    +0.012 C 
BRANCH  21  22
ATOM     22  C   UNL     1       0.236   1.484   0.053  0.00  0.00    -0.028 C 
ATOM     23  C   UNL     1       0.887   2.010   1.060  0.00  0.00    -0.031 C 
BRANCH  23  24
ATOM     24  C   UNL     1       1.121   3.498   1.111  0.00  0.00    +0.030 C 
BRANCH  24  25
ATOM     25  C   UNL     1       0.584   4.054   2.431  0.00  0.00    -0.013 C 
ATOM     26  C   UNL     1       0.932   5.540   2.538  0.00  0.00    +0.007 C 
ATOM     27  C   UNL     1      -0.936   3.882   2.476  0.00  0.00    +0.007 C 
ENDBRANCH  24  25
ENDBRANCH  23  24
ENDBRANCH  21  22
ENDBRANCH   1  21
BRANCH  12  28
ATOM     28  O   UNL     1       1.414  -6.200  -3.048  0.00  0.00    -0.387 OA
ATOM     29  H   UNL     1       1.739  -6.389  -3.939  0.00  0.00    +0.210 HD
ENDBRANCH  12  28
BRANCH  16  30
ATOM     30  O   UNL     1      -1.635  -9.889  -3.072  0.00  0.00    -0.461 OA
BRANCH  30  31
ATOM     31  C   UNL     1      -2.808 -10.319  -3.563  0.00  0.00    +0.304 C 
ATOM     32  O   UNL     1      -3.689  -9.528  -3.802  0.00  0.00    -0.251 OA
ATOM     33  C   UNL     1      -3.025 -11.789  -3.815  0.00  0.00    +0.136 C 
ENDBRANCH  30  31
ENDBRANCH  16  30
TORSDOF 7
