REMARK  Name = ZINC63398426
REMARK  7 active torsions:
REMARK  status: ('A' for Active; 'I' for Inactive)
REMARK    1  A    between atoms: C_1  and  C_2
REMARK    2  A    between atoms: C_7  and  C_8
REMARK    3  A    between atoms: C_17  and  C_32
REMARK    4  A    between atoms: C_18  and  C_19
REMARK    5  A    between atoms: N_20  and  C_21
REMARK    6  A    between atoms: C_21  and  C_22
REMARK    7  A    between atoms: C_22  and  C_23
REMARK                            x       y       z     vdW  Elec       q    Type
REMARK                         _______ _______ _______ _____ _____    ______ ____
ROOT
ATOM      1  C   UNL     1       0.325   0.303   2.778  0.00  0.00    +0.088 C 
ATOM      2  C   UNL     1       1.703  -0.051   3.269  0.00  0.00    +0.007 A 
ATOM      3  C   UNL     1       2.796   0.655   2.801  0.00  0.00    +0.008 A 
ATOM      4  C   UNL     1       4.067   0.342   3.243  0.00  0.00    +0.001 A 
ATOM      5  C   UNL     1       4.250  -0.681   4.155  0.00  0.00    +0.004 A 
ATOM      6  C   UNL     1       3.163  -1.390   4.625  0.00  0.00    +0.046 A 
ATOM      7  C   UNL     1       1.883  -1.078   4.182  0.00  0.00    +0.133 A 
ATOM      8  O   UNL     1       0.826  -1.783   4.654  0.00  0.00    -0.455 OA
ATOM      9  C   UNL     1      -0.416  -1.273   4.557  0.00  0.00    +0.141 C 
ATOM     10  C   UNL     1      -0.716  -0.286   3.688  0.00  0.00    +0.023 C 
ENDROOT
BRANCH   1  17
ATOM     11  C   UNL     1       0.066   2.114   0.542  0.00  0.00    +0.044 C 
ATOM     12  C   UNL     1       0.012   0.625   0.316  0.00  0.00    -0.046 A 
ATOM     13  C   UNL     1      -0.156   0.126  -0.963  0.00  0.00    +0.003 A 
ATOM     14  C   UNL     1      -0.206  -1.240  -1.170  0.00  0.00    +0.000 A 
ATOM     15  C   UNL     1      -0.087  -2.107  -0.099  0.00  0.00    +0.000 A 
ATOM     16  C   UNL     1       0.082  -1.607   1.179  0.00  0.00    +0.005 A 
ATOM     17  C   UNL     1       0.136  -0.241   1.385  0.00  0.00    -0.032 A 
ENDBRANCH   1  17
BRANCH   9  18
ATOM     18  C   UNL     1      -1.480  -1.812   5.426  0.00  0.00    +0.018 A 
ATOM     19  C   UNL     1      -2.687  -2.246   4.872  0.00  0.00    +0.011 A 
ATOM     20  C   UNL     1      -3.677  -2.748   5.690  0.00  0.00    +0.001 A 
ATOM     21  C   UNL     1      -3.478  -2.822   7.057  0.00  0.00    +0.000 A 
ATOM     22  C   UNL     1      -2.285  -2.394   7.614  0.00  0.00    +0.001 A 
ATOM     23  C   UNL     1      -1.284  -1.896   6.807  0.00  0.00    +0.011 A 
ENDBRANCH   9  18
BRANCH  10  24
ATOM     24  C   UNL     1      -2.038   0.204   3.635  0.00  0.00    +0.086 C 
ATOM     25  N   UNL     1      -2.365   1.103   2.751  0.00  0.00    -0.390 N 
ATOM     26  H   UNL     1      -1.725   1.370   2.073  0.00  0.00    +0.159 HD
BRANCH  25  27
ATOM     27  C   UNL     1      -3.698   1.709   2.781  0.00  0.00    +0.116 C 
BRANCH  27  28
ATOM     28  C   UNL     1      -3.575   3.193   3.132  0.00  0.00    +0.054 C 
BRANCH  28  29
ATOM     29  C   UNL     1      -4.951   3.790   3.280  0.00  0.00    -0.040 C 
ATOM     30  C   UNL     1      -5.648   3.952   4.428  0.00  0.00    -0.001 A 
ATOM     31  C   UNL     1      -5.346   3.633   5.828  0.00  0.00    +0.010 A 
ATOM     32  C   UNL     1      -6.264   3.920   6.779  0.00  0.00    +0.001 A 
ATOM     33  C   UNL     1      -7.494   4.512   6.462  0.00  0.00    +0.002 A 
ATOM     34  C   UNL     1      -7.843   4.834   5.198  0.00  0.00    +0.026 A 
ATOM     35  C   UNL     1      -6.954   4.578   4.119  0.00  0.00    +0.043 A 
ATOM     36  N   UNL     1      -7.060   4.794   2.830  0.00  0.00    -0.380 N 
ATOM     37  C   UNL     1      -5.829   4.335   2.176  0.00  0.00    +0.144 C 
ATOM     38  H   UNL     1      -7.822   5.194   2.384  0.00  0.00    +0.160 HD
ENDBRANCH  28  29
ENDBRANCH  27  28
ENDBRANCH  25  27
ENDBRANCH  10  24
TORSDOF 6
