REMARK  Name = ZINC20161394
REMARK  10 active torsions:
REMARK  status: ('A' for Active; 'I' for Inactive)
REMARK    1  A    between atoms: C_1  and  C_2
REMARK    2  A    between atoms: C_2  and  C_37
REMARK    3  A    between atoms: C_10  and  C_34
REMARK    4  A    between atoms: C_12  and  C_14
REMARK    5  A    between atoms: N_16  and  N_17
REMARK    6  A    between atoms: C_18  and  C_20
REMARK    7  A    between atoms: C_27  and  C_30
REMARK    8  A    between atoms: C_30  and  C_31
REMARK    9  A    between atoms: C_30  and  C_32
REMARK   10  A    between atoms: C_30  and  C_33
REMARK                            x       y       z     vdW  Elec       q    Type
REMARK                         _______ _______ _______ _____ _____    ______ ____
ROOT
ATOM      1  C   UNL     1      -1.581   4.101  -2.084  0.00  0.00    +0.234 C 
ATOM      2  O   UNL     1      -0.374   4.162  -1.981  0.00  0.00    -0.274 OA
ATOM      3  N   UNL     1      -2.172   4.391  -3.260  0.00  0.00    -0.234 N 
ATOM      4  H   UNL     1      -3.266   4.336  -3.354  0.00  0.00    +0.173 HD
ENDROOT
BRANCH   1  13
ATOM      5  C   UNL     1      -0.090  -0.287  -0.432  0.00  0.00    +0.039 C 
ATOM      6  C   UNL     1      -0.080   1.185  -0.111  0.00  0.00    -0.076 C 
ATOM      7  C   UNL     1      -1.210   1.840  -0.003  0.00  0.00    -0.063 C 
ATOM      8  C   UNL     1      -1.510   3.322   0.317  0.00  0.00    +0.028 C 
ATOM      9  C   UNL     1      -2.495   3.168   1.516  0.00  0.00    +0.009 C 
ATOM     10  C   UNL     1      -3.273   1.876   1.208  0.00  0.00    +0.009 C 
ATOM     11  C   UNL     1      -2.679   1.381  -0.146  0.00  0.00    +0.030 C 
ATOM     12  C   UNL     1      -3.201   2.400  -1.204  0.00  0.00    +0.122 C 
ATOM     13  C   UNL     1      -2.419   3.699  -0.898  0.00  0.00    +0.098 C 
ATOM     14  C   UNL     1       1.230   1.906   0.078  0.00  0.00    +0.039 C 
BRANCH  12  15
ATOM     15  C   UNL     1      -4.682   2.623  -1.034  0.00  0.00    +0.360 C 
ATOM     16  O   UNL     1      -5.081   3.578  -0.410  0.00  0.00    -0.246 OA
ATOM     17  O   UNL     1      -5.557   1.762  -1.577  0.00  0.00    -0.246 OA
ENDBRANCH  12  15
ENDBRANCH   1  13
BRANCH   3  18
ATOM     18  N   UNL     1      -1.392   4.765  -4.363  0.00  0.00    -0.230 N 
ATOM     19  C   UNL     1      -1.983   5.056  -5.539  0.00  0.00    +0.261 C 
ATOM     20  O   UNL     1      -3.193   4.994  -5.643  0.00  0.00    -0.269 OA
ATOM     21  H   UNL     1      -0.297   4.821  -4.269  0.00  0.00    +0.173 HD
BRANCH  19  22
ATOM     22  C   UNL     1      -1.164   5.448  -6.697  0.00  0.00    +0.049 A 
ATOM     23  C   UNL     1       0.208   5.531  -6.603  0.00  0.00    +0.058 A 
ATOM     24  S   UNL     1       0.686   6.016  -8.195  0.00  0.00    -0.101 S 
ATOM     25  C   UNL     1      -0.910   6.112  -8.954  0.00  0.00    -0.006 A 
ATOM     26  C   UNL     1      -1.776   5.766  -7.973  0.00  0.00    -0.025 A 
ATOM     27  C   UNL     1      -3.277   5.724  -8.231  0.00  0.00    +0.037 C 
ATOM     28  C   UNL     1      -3.515   5.660  -9.741  0.00  0.00    +0.009 C 
ATOM     29  C   UNL     1      -2.751   6.790 -10.438  0.00  0.00    -0.000 C 
ATOM     30  C   UNL     1      -1.246   6.489 -10.363  0.00  0.00    +0.046 C 
BRANCH  29  31
ATOM     31  C   UNL     1      -3.187   6.877 -11.901  0.00  0.00    -0.035 C 
ATOM     32  C   UNL     1      -4.689   7.162 -11.969  0.00  0.00    +0.011 C 
ATOM     33  C   UNL     1      -2.422   8.007 -12.595  0.00  0.00    +0.011 C 
ATOM     34  C   UNL     1      -2.887   5.552 -12.603  0.00  0.00    +0.011 C 
ENDBRANCH  29  31
ENDBRANCH  19  22
ENDBRANCH   3  18
TORSDOF 5
