REMARK  Name = ZINC04478008
REMARK  5 active torsions:
REMARK  status: ('A' for Active; 'I' for Inactive)
REMARK    1  A    between atoms: C_4  and  N_7
REMARK    2  A    between atoms: N_14  and  N_15
REMARK    3  A    between atoms: C_16  and  C_17
REMARK    4  A    between atoms: C_21  and  O_23
REMARK    5  A    between atoms: N_24  and  C_25
REMARK                            x       y       z     vdW  Elec       q    Type
REMARK                         _______ _______ _______ _____ _____    ______ ____
ROOT
ATOM      1  N   UNL     1       5.721   7.397  -0.220  0.00  0.00    -0.283 N 
ATOM      2  C   UNL     1       4.543   8.098  -0.388  0.00  0.00    +0.225 A 
ATOM      3  N   UNL     1       4.512   9.409  -0.172  0.00  0.00    -0.181 NA
ATOM      4  C   UNL     1       3.378  10.083  -0.333  0.00  0.00    +0.222 A 
ATOM      5  N   UNL     1       2.274   9.446  -0.710  0.00  0.00    -0.180 NA
ATOM      6  C   UNL     1       2.304   8.135  -0.925  0.00  0.00    +0.241 A 
ATOM      7  N   UNL     1       3.438   7.459  -0.759  0.00  0.00    -0.179 NA
ATOM      8  N   UNL     1       1.157   7.472  -1.316  0.00  0.00    -0.205 N 
ATOM      9  N   UNL     1       3.347  11.445  -0.109  0.00  0.00    -0.307 N 
ATOM     10  H   UNL     1       6.544   7.872  -0.025  0.00  0.00    +0.155 HD
ATOM     11  H   UNL     1       1.196   6.533  -1.556  0.00  0.00    +0.177 HD
ATOM     12  H   UNL     1       4.152  11.910   0.166  0.00  0.00    +0.149 HD
ENDROOT
BRANCH   1  16
ATOM     13  C   UNL     1       5.743   3.245  -0.552  0.00  0.00    +0.000 A 
ATOM     14  C   UNL     1       6.842   3.976  -0.965  0.00  0.00    +0.002 A 
ATOM     15  C   UNL     1       6.838   5.353  -0.856  0.00  0.00    +0.023 A 
ATOM     16  C   UNL     1       5.729   6.003  -0.332  0.00  0.00    +0.034 A 
ATOM     17  C   UNL     1       4.628   5.266   0.087  0.00  0.00    +0.023 A 
ATOM     18  C   UNL     1       4.637   3.890  -0.029  0.00  0.00    +0.002 A 
ENDBRANCH   1  16
BRANCH   9  19
ATOM     19  C   UNL     1       2.096  12.188  -0.286  0.00  0.00    +0.100 C 
ATOM     20  C   UNL     1       2.415  13.649  -0.599  0.00  0.00    +0.053 C 
ATOM     21  C   UNL     1       2.970  14.327   0.625  0.00  0.00    -0.025 C 
ATOM     22  C   UNL     1       2.527  13.993   1.832  0.00  0.00    -0.004 C 
ATOM     23  C   UNL     1       1.492  12.956   1.970  0.00  0.00    -0.003 C 
ATOM     24  C   UNL     1       1.281  12.102   0.977  0.00  0.00    -0.005 C 
ENDBRANCH   9  19
BRANCH   8  25
ATOM     25  N   UNL     1      -0.065   8.157  -1.368  0.00  0.00    -0.188 NA
ATOM     26  C   UNL     1      -1.158   7.514  -1.640  0.00  0.00    +0.138 C 
BRANCH  26  27
ATOM     27  C   UNL     1      -2.425   8.251  -1.806  0.00  0.00    -0.002 A 
ATOM     28  C   UNL     1      -2.467   9.631  -1.590  0.00  0.00    +0.010 A 
ATOM     29  C   UNL     1      -3.654  10.316  -1.747  0.00  0.00    +0.004 A 
ATOM     30  C   UNL     1      -4.804   9.642  -2.117  0.00  0.00    +0.045 A 
ATOM     31  C   UNL     1      -4.773   8.270  -2.328  0.00  0.00    +0.117 A 
ATOM     32  C   UNL     1      -3.586   7.572  -2.180  0.00  0.00    +0.054 A 
BRANCH  31  33
ATOM     33  O   UNL     1      -5.907   7.612  -2.686  0.00  0.00    -0.507 OA
ATOM     34  H   UNL     1      -6.045   7.558  -3.642  0.00  0.00    +0.292 HD
ENDBRANCH  31  33
ENDBRANCH  26  27
ENDBRANCH   8  25
TORSDOF 5
