REMARK  Name = ZINC01783398
REMARK  13 active torsions:
REMARK  status: ('A' for Active; 'I' for Inactive)
REMARK    1  A    between atoms: C_1  and  O_2
REMARK    2  A    between atoms: O_2  and  C_3
REMARK    3  A    between atoms: C_5  and  C_13
REMARK    4  A    between atoms: C_7  and  O_11
REMARK    5  A    between atoms: C_8  and  O_9
REMARK    6  A    between atoms: O_9  and  C_10
REMARK    7  A    between atoms: O_11  and  C_12
REMARK    8  A    between atoms: C_13  and  C_15
REMARK    9  A    between atoms: C_20  and  N_21
REMARK   10  A    between atoms: N_21  and  C_22
REMARK   11  A    between atoms: C_23  and  C_24
REMARK   12  A    between atoms: C_23  and  C_26
REMARK   13  A    between atoms: C_28  and  C_31
REMARK                            x       y       z     vdW  Elec       q    Type
REMARK                         _______ _______ _______ _____ _____    ______ ____
ROOT
ATOM      1  C   UNL     1      -1.340   1.907   0.019  0.00  0.00    +0.045 A 
ATOM      2  C   UNL     1      -1.348   3.304  -0.022  0.00  0.00    +0.033 A 
ATOM      3  C   UNL     1      -2.546   3.986   0.011  0.00  0.00    +0.042 A 
ATOM      4  C   UNL     1      -3.744   3.292   0.096  0.00  0.00    +0.022 A 
ATOM      5  C   UNL     1      -3.752   1.913   0.142  0.00  0.00    +0.025 A 
ATOM      6  C   UNL     1      -2.556   1.208   0.105  0.00  0.00    +0.042 A 
ATOM      7 CL   UNL     1      -2.554   5.721  -0.046  0.00  0.00    -0.084 Cl
ENDROOT
BRANCH   1   8
ATOM      8  C   UNL     1      -0.064   1.171  -0.021  0.00  0.00    +0.195 C 
ATOM      9  O   UNL     1       0.543   1.062  -1.070  0.00  0.00    -0.287 OA
BRANCH   8  12
ATOM     10  C   UNL     1       2.143  -0.778   2.312  0.00  0.00    +0.166 A 
ATOM     11  C   UNL     1       1.634  -0.218   1.156  0.00  0.00    +0.061 A 
ATOM     12  C   UNL     1       0.481   0.571   1.212  0.00  0.00    +0.029 A 
ATOM     13  C   UNL     1      -0.150   0.795   2.438  0.00  0.00    +0.061 A 
ATOM     14  C   UNL     1       0.360   0.229   3.591  0.00  0.00    +0.166 A 
ATOM     15  C   UNL     1       1.508  -0.557   3.532  0.00  0.00    +0.204 A 
BRANCH  10  17
ATOM     16  C   UNL     1       3.864  -1.730   0.975  0.00  0.00    +0.277 C 
ATOM     17  O   UNL     1       3.265  -1.545   2.259  0.00  0.00    -0.491 OA
ENDBRANCH  10  17
BRANCH  15  18
ATOM     18  O   UNL     1       2.010  -1.109   4.668  0.00  0.00    -0.488 OA
ATOM     19  C   UNL     1       2.968  -0.338   5.396  0.00  0.00    +0.277 C 
ENDBRANCH  15  18
BRANCH  14  20
ATOM     20  O   UNL     1      -0.258   0.442   4.783  0.00  0.00    -0.491 OA
ATOM     21  C   UNL     1      -1.431   1.258   4.770  0.00  0.00    +0.277 C 
ENDBRANCH  14  20
ENDBRANCH   8  12
ENDBRANCH   1   8
BRANCH   6  22
ATOM     22  N   UNL     1      -2.562  -0.181   0.151  0.00  0.00    -0.319 N 
ATOM     23  H   UNL     1      -1.725  -0.668   0.208  0.00  0.00    +0.152 HD
BRANCH  22  24
ATOM     24  C   UNL     1      -3.747  -0.861   0.116  0.00  0.00    +0.093 C 
ATOM     25  C   UNL     1      -3.753  -2.223   0.162  0.00  0.00    +0.098 C 
BRANCH  25  26
ATOM     26  C   UNL     1      -5.033  -2.957   0.124  0.00  0.00    +0.120 A 
ATOM     27  N   UNL     1      -5.252  -4.263   0.157  0.00  0.00    -0.238 NA
ATOM     28  C   UNL     1      -6.478  -4.753   0.114  0.00  0.00    +0.079 A 
ATOM     29  C   UNL     1      -7.543  -3.897   0.033  0.00  0.00    +0.075 A 
ATOM     30  S   UNL     1      -6.700  -2.319   0.029  0.00  0.00    -0.074 S 
BRANCH  28  31
ATOM     31  C   UNL     1      -6.699  -6.220   0.153  0.00  0.00    +0.005 A 
ATOM     32  C   UNL     1      -7.985  -6.736   0.003  0.00  0.00    +0.014 A 
ATOM     33  C   UNL     1      -8.190  -8.101   0.039  0.00  0.00    +0.050 A 
ATOM     34  C   UNL     1      -7.119  -8.962   0.224  0.00  0.00    +0.166 A 
ATOM     35  C   UNL     1      -5.831  -8.451   0.375  0.00  0.00    +0.167 A 
ATOM     36  C   UNL     1      -5.621  -7.084   0.334  0.00  0.00    +0.059 A 
ATOM     37  O   UNL     1      -4.965  -9.493   0.541  0.00  0.00    -0.453 OA
ATOM     38  C   UNL     1      -5.675 -10.659   0.082  0.00  0.00    +0.466 C 
ATOM     39  O   UNL     1      -7.058 -10.324   0.296  0.00  0.00    -0.453 OA
ENDBRANCH  28  31
ENDBRANCH  25  26
BRANCH  25  40
ATOM     40  C   UNL     1      -2.518  -2.942   0.246  0.00  0.00    +0.103 C 
ATOM     41  N   UNL     1      -1.538  -3.512   0.313  0.00  0.00    -0.191 NA
ENDBRANCH  25  40
ENDBRANCH  22  24
ENDBRANCH   6  22
TORSDOF 10
