REMARK  Name = ZINC28065921
REMARK  8 active torsions:
REMARK  status: ('A' for Active; 'I' for Inactive)
REMARK    1  A    between atoms: C_1  and  C_2
REMARK    2  A    between atoms: C_5  and  C_8
REMARK    3  A    between atoms: C_11  and  C_35
REMARK    4  A    between atoms: C_18  and  C_21
REMARK    5  A    between atoms: C_21  and  C_22
REMARK    6  A    between atoms: N_24  and  C_25
REMARK    7  A    between atoms: C_28  and  N_31
REMARK    8  A    between atoms: C_32  and  C_34
REMARK                            x       y       z     vdW  Elec       q    Type
REMARK                         _______ _______ _______ _____ _____    ______ ____
ROOT
ATOM      1  C   UNL     1      12.581  -1.712  -3.425  0.00  0.00    +0.136 C 
ATOM      2  C   UNL     1      13.025  -1.063  -4.751  0.00  0.00    +0.087 C 
ATOM      3  C   UNL     1      11.836  -0.223  -5.161  0.00  0.00    +0.069 C 
ATOM      4  N   UNL     1      10.899  -0.347  -4.285  0.00  0.00    -0.182 NA
ATOM      5  N   UNL     1      11.218  -1.194  -3.226  0.00  0.00    -0.195 N 
ATOM      6  C   UNL     1      10.401  -1.492  -2.174  0.00  0.00    +0.170 C 
ATOM      7  N   UNL     1      10.650  -2.288  -1.142  0.00  0.00    -0.157 NA
ATOM      8  C   UNL     1       9.810  -2.520  -0.172  0.00  0.00    +0.252 C 
ATOM      9  O   UNL     1      10.077  -3.258   0.757  0.00  0.00    -0.272 OA
ATOM     10  C   UNL     1       8.470  -1.803  -0.283  0.00  0.00    +0.150 C 
ATOM     11  S   UNL     1       8.744  -0.899  -1.861  0.00  0.00    -0.078 S 
ENDROOT
BRANCH   1  16
ATOM     12  C   UNL     1      16.032  -0.069   0.909  0.00  0.00    +0.044 C 
ATOM     13  C   UNL     1      15.132  -0.497  -0.221  0.00  0.00    -0.050 A 
ATOM     14  C   UNL     1      15.256  -1.764  -0.761  0.00  0.00    +0.004 A 
ATOM     15  C   UNL     1      14.430  -2.157  -1.798  0.00  0.00    +0.006 A 
ATOM     16  C   UNL     1      13.481  -1.284  -2.295  0.00  0.00    -0.025 A 
ATOM     17  C   UNL     1      13.361  -0.015  -1.759  0.00  0.00    +0.006 A 
ATOM     18  C   UNL     1      14.183   0.376  -0.719  0.00  0.00    +0.004 A 
ENDBRANCH   1  16
BRANCH   3  19
ATOM     19  C   UNL     1      11.761   0.609  -6.376  0.00  0.00    -0.002 A 
ATOM     20  C   UNL     1      12.847   0.670  -7.253  0.00  0.00    +0.010 A 
ATOM     21  C   UNL     1      12.768   1.446  -8.390  0.00  0.00    +0.001 A 
ATOM     22  C   UNL     1      11.621   2.173  -8.657  0.00  0.00    +0.000 A 
ATOM     23  C   UNL     1      10.544   2.122  -7.790  0.00  0.00    +0.001 A 
ATOM     24  C   UNL     1      10.607   1.345  -6.652  0.00  0.00    +0.010 A 
ENDBRANCH   3  19
BRANCH  10  25
ATOM     25  C   UNL     1       7.312  -2.796  -0.402  0.00  0.00    +0.120 C 
BRANCH  25  26
ATOM     26  C   UNL     1       6.005  -2.047  -0.386  0.00  0.00    +0.219 C 
ATOM     27  O   UNL     1       5.999  -0.838  -0.289  0.00  0.00    -0.275 OA
ATOM     28  N   UNL     1       4.841  -2.721  -0.479  0.00  0.00    -0.285 N 
ATOM     29  H   UNL     1       4.847  -3.809  -0.642  0.00  0.00    +0.155 HD
BRANCH  28  30
ATOM     30  C   UNL     1       3.624  -2.037  -0.367  0.00  0.00    +0.033 A 
ATOM     31  C   UNL     1       2.541  -2.643   0.256  0.00  0.00    +0.025 A 
ATOM     32  C   UNL     1       1.342  -1.968   0.366  0.00  0.00    +0.025 A 
ATOM     33  C   UNL     1       1.219  -0.682  -0.145  0.00  0.00    +0.033 A 
ATOM     34  C   UNL     1       2.301  -0.078  -0.772  0.00  0.00    +0.025 A 
ATOM     35  C   UNL     1       3.501  -0.752  -0.879  0.00  0.00    +0.025 A 
BRANCH  33  36
ATOM     36  N   UNL     1       0.003   0.003  -0.033  0.00  0.00    -0.286 N 
ATOM     37  C   UNL     1      -0.005   1.341   0.126  0.00  0.00    +0.214 C 
ATOM     38  O   UNL     1       1.040   1.941   0.264  0.00  0.00    -0.276 OA
ATOM     39  C   UNL     1      -1.311   2.092   0.125  0.00  0.00    +0.109 C 
ATOM     40  H   UNL     1      -0.947  -0.552  -0.074  0.00  0.00    +0.155 HD
ENDBRANCH  33  36
ENDBRANCH  28  30
ENDBRANCH  25  26
ENDBRANCH  10  25
TORSDOF 6
