REMARK  Name = ZINC34923071
REMARK  14 active torsions:
REMARK  status: ('A' for Active; 'I' for Inactive)
REMARK    1  A    between atoms: C_1  and  C_2
REMARK    2  A    between atoms: C_2  and  C_3
REMARK    3  A    between atoms: C_4  and  C_34
REMARK    4  A    between atoms: C_5  and  C_26
REMARK    5  A    between atoms: C_8  and  C_13
REMARK    6  A    between atoms: C_14  and  N_16
REMARK    7  A    between atoms: N_16  and  C_17
REMARK    8  A    between atoms: C_17  and  C_18
REMARK    9  A    between atoms: C_18  and  C_19
REMARK   10  A    between atoms: C_19  and  N_20
REMARK   11  A    between atoms: C_31  and  O_32
REMARK   12  A    between atoms: O_32  and  C_33
REMARK   13  A    between atoms: C_34  and  O_36
REMARK   14  A    between atoms: O_36  and  C_37
REMARK                            x       y       z     vdW  Elec       q    Type
REMARK                         _______ _______ _______ _____ _____    ______ ____
ROOT
ATOM      1  C   UNL     1       0.956  -1.023   1.384  0.00  0.00    +0.056 C 
ATOM      2  C   UNL     1       0.161  -1.170   2.504  0.00  0.00    +0.083 C 
ATOM      3  C   UNL     1       0.850  -1.371   3.836  0.00  0.00    +0.153 C 
ATOM      4  N   UNL     1       2.337  -1.395   3.832  0.00  0.00    -0.267 N 
ATOM      5  C   UNL     1       3.168  -1.565   4.921  0.00  0.00    +0.048 C 
ATOM      6  C   UNL     1       4.501  -1.556   4.700  0.00  0.00    +0.072 C 
ATOM      7  S   UNL     1       4.580  -1.306   2.938  0.00  0.00    -0.060 S 
ATOM      8  C   UNL     1       2.935  -1.232   2.614  0.00  0.00    +0.166 C 
ATOM      9  N   UNL     1       2.274  -1.065   1.487  0.00  0.00    -0.229 NA
ENDROOT
BRANCH   3  10
ATOM     10  C   UNL     1       0.366  -2.676   4.415  0.00  0.00    +0.020 A 
ATOM     11  C   UNL     1       1.070  -3.841   4.177  0.00  0.00    +0.009 A 
ATOM     12  C   UNL     1       0.628  -5.038   4.707  0.00  0.00    +0.001 A 
ATOM     13  C   UNL     1      -0.520  -5.073   5.478  0.00  0.00    +0.004 A 
ATOM     14  C   UNL     1      -1.227  -3.912   5.719  0.00  0.00    +0.046 A 
ATOM     15  C   UNL     1      -0.782  -2.708   5.192  0.00  0.00    +0.125 A 
BRANCH  15  16
ATOM     16  O   UNL     1      -1.473  -1.562   5.433  0.00  0.00    -0.495 OA
ATOM     17  C   UNL     1      -2.584  -1.651   6.326  0.00  0.00    +0.277 C 
ENDBRANCH  15  16
ENDBRANCH   3  10
BRANCH   5  18
ATOM     18  C   UNL     1       2.622  -1.749   6.274  0.00  0.00    +0.091 C 
ATOM     19  C   UNL     1       3.444  -2.055   7.296  0.00  0.00    +0.239 C 
ATOM     20  O   UNL     1       4.785  -2.081   7.102  0.00  0.00    -0.271 OA
BRANCH  19  21
ATOM     21  N   UNL     1       2.919  -2.342   8.544  0.00  0.00    -0.312 N 
ATOM     22  H   UNL     1       1.959  -2.323   8.683  0.00  0.00    +0.149 HD
BRANCH  21  23
ATOM     23  C   UNL     1       3.813  -2.674   9.656  0.00  0.00    +0.106 C 
BRANCH  23  24
ATOM     24  C   UNL     1       2.984  -2.946  10.913  0.00  0.00    +0.038 C 
BRANCH  24  25
ATOM     25  C   UNL     1       3.918  -3.293  12.075  0.00  0.00    +0.109 C 
BRANCH  25  26
ATOM     26  N   UNL     1       3.125  -3.554  13.278  0.00  0.00    -0.301 N 
ATOM     27  C   UNL     1       2.738  -2.527  14.253  0.00  0.00    +0.108 C 
ATOM     28  C   UNL     1       1.586  -3.151  15.073  0.00  0.00    +0.028 C 
ATOM     29  C   UNL     1       1.874  -4.662  14.922  0.00  0.00    +0.097 C 
ATOM     30  C   UNL     1       2.653  -4.763  13.629  0.00  0.00    +0.216 C 
ATOM     31  O   UNL     1       2.829  -5.785  13.001  0.00  0.00    -0.276 OA
ENDBRANCH  25  26
ENDBRANCH  24  25
ENDBRANCH  23  24
ENDBRANCH  21  23
ENDBRANCH  19  21
ENDBRANCH   5  18
BRANCH   1  33
ATOM     32  C   UNL     1       0.156   0.677  -0.234  0.00  0.00    +0.010 C 
ATOM     33  C   UNL     1       0.317  -0.820   0.034  0.00  0.00    +0.053 C 
ENDBRANCH   1  33
BRANCH   2  34
ATOM     34  C   UNL     1      -1.235  -1.133   2.410  0.00  0.00    +0.339 C 
ATOM     35  O   UNL     1      -1.837  -0.105   2.672  0.00  0.00    -0.245 OA
BRANCH  34  36
ATOM     36  O   UNL     1      -1.917  -2.236   2.029  0.00  0.00    -0.465 OA
ATOM     37  C   UNL     1      -3.328  -2.098   1.850  0.00  0.00    +0.280 C 
ENDBRANCH  34  36
ENDBRANCH   2  34
TORSDOF 11
