REMARK  Name = ZINC12039054
REMARK  7 active torsions:
REMARK  status: ('A' for Active; 'I' for Inactive)
REMARK    1  A    between atoms: C_4  and  C_7
REMARK    2  A    between atoms: C_10  and  C_12
REMARK    3  A    between atoms: C_12  and  N_13
REMARK    4  A    between atoms: C_14  and  C_16
REMARK    5  A    between atoms: C_19  and  C_24
REMARK    6  A    between atoms: C_24  and  N_63
REMARK    7  A    between atoms: C_27  and  C_30
REMARK                            x       y       z     vdW  Elec       q    Type
REMARK                         _______ _______ _______ _____ _____    ______ ____
ROOT
ATOM      1  C   UNL     1       1.444   5.804   3.028  0.00  0.00    +0.101 A 
ATOM      2  C   UNL     1       1.502   7.170   3.295  0.00  0.00    +0.020 A 
ATOM      3  C   UNL     1       1.455   7.601   4.621  0.00  0.00    +0.020 A 
ATOM      4  C   UNL     1       1.365   6.697   5.629  0.00  0.00    +0.003 A 
ATOM      5  N   UNL     1       1.313   5.367   5.377  0.00  0.00    -0.327 N 
ATOM      6  H   UNL     1       1.248   4.743   6.117  0.00  0.00    +0.169 HD
ATOM      7  C   UNL     1       1.349   4.897   4.115  0.00  0.00    +0.261 A 
ATOM      8  O   UNL     1       1.302   3.697   3.908  0.00  0.00    -0.267 OA
ENDROOT
BRANCH   1  10
ATOM      9  N   UNL     1       1.309   3.998   1.390  0.00  0.00    -0.305 N 
ATOM     10  C   UNL     1       1.485   5.310   1.643  0.00  0.00    +0.250 C 
ATOM     11  O   UNL     1       1.679   6.085   0.726  0.00  0.00    -0.270 OA
ATOM     12  H   UNL     1       1.228   3.369   2.124  0.00  0.00    +0.149 HD
BRANCH   9  13
ATOM     13  C   UNL     1       1.239   3.521   0.006  0.00  0.00    +0.167 C 
BRANCH  13  17
ATOM     14  C   UNL     1      -0.090   0.026  -0.009  0.00  0.00    +0.078 A 
ATOM     15  C   UNL     1       1.117  -0.622  -0.017  0.00  0.00    +0.075 A 
ATOM     16  S   UNL     1       2.237   0.771  -0.013  0.00  0.00    -0.078 S 
ATOM     17  C   UNL     1       1.039   2.028  -0.001  0.00  0.00    +0.096 A 
ATOM     18  N   UNL     1      -0.082   1.349  -0.001  0.00  0.00    -0.242 NA
BRANCH  14  22
ATOM     19  C   UNL     1      -3.744  -2.147  -0.006  0.00  0.00    +0.000 A 
ATOM     20  C   UNL     1      -3.765  -0.764   0.002  0.00  0.00    +0.001 A 
ATOM     21  C   UNL     1      -2.582  -0.054   0.001  0.00  0.00    +0.010 A 
ATOM     22  C   UNL     1      -1.365  -0.733  -0.008  0.00  0.00    +0.001 A 
ATOM     23  C   UNL     1      -1.350  -2.126  -0.021  0.00  0.00    +0.010 A 
ATOM     24  C   UNL     1      -2.539  -2.826  -0.015  0.00  0.00    +0.001 A 
ENDBRANCH  14  22
ENDBRANCH  13  17
ENDBRANCH   9  13
ENDBRANCH   1  10
BRANCH   4  25
ATOM     25  C   UNL     1       1.321   7.181   7.055  0.00  0.00    -0.025 C 
BRANCH  25  31
ATOM     26  C   UNL     1      -1.066   7.584   6.988  0.00  0.00    -0.078 C 
ATOM     27  C   UNL     1      -2.414   7.103   7.528  0.00  0.00    -0.011 C 
ATOM     28  C   UNL     1      -2.463   7.330   9.041  0.00  0.00    +0.016 C 
ATOM     29  C   UNL     1      -1.295   6.589   9.698  0.00  0.00    -0.011 C 
ATOM     30  C   UNL     1       0.021   7.085   9.095  0.00  0.00    -0.078 C 
ATOM     31  N   UNL     1       0.015   6.815   7.642  0.00  0.00    +0.383 N 
ATOM     32  H   UNL     1      -0.150   5.813   7.490  0.00  0.00    -0.081 HD
BRANCH  28  33
ATOM     33  C   UNL     1      -3.765   6.804   9.589  0.00  0.00    -0.044 A 
ATOM     34  C   UNL     1      -4.092   5.470   9.432  0.00  0.00    +0.004 A 
ATOM     35  C   UNL     1      -5.285   4.987   9.939  0.00  0.00    +0.000 A 
ATOM     36  C   UNL     1      -6.154   5.840  10.593  0.00  0.00    +0.000 A 
ATOM     37  C   UNL     1      -5.829   7.175  10.745  0.00  0.00    +0.000 A 
ATOM     38  C   UNL     1      -4.634   7.657  10.243  0.00  0.00    +0.004 A 
ENDBRANCH  28  33
ENDBRANCH  25  31
ENDBRANCH   4  25
TORSDOF 7
