REMARK  Name = ZINC20906232
REMARK  7 active torsions:
REMARK  status: ('A' for Active; 'I' for Inactive)
REMARK    1  A    between atoms: C_3  and  C_8
REMARK    2  A    between atoms: C_5  and  O_7
REMARK    3  A    between atoms: N_9  and  N_10
REMARK    4  A    between atoms: C_13  and  S_16
REMARK    5  A    between atoms: S_16  and  C_17
REMARK    6  A    between atoms: C_17  and  C_18
REMARK    7  A    between atoms: N_20  and  C_21
REMARK                            x       y       z     vdW  Elec       q    Type
REMARK                         _______ _______ _______ _____ _____    ______ ____
ROOT
ATOM      1  N   UNL     1      -1.235   7.354   0.022  0.00  0.00    -0.205 N 
ATOM      2  C   UNL     1      -2.448   8.027   0.041  0.00  0.00    +0.232 A 
ATOM      3  N   UNL     1      -2.613   9.384   0.058  0.00  0.00    -0.186 NA
ATOM      4  C   UNL     1      -3.953   9.647   0.072  0.00  0.00    +0.211 A 
ATOM      5  N   UNL     1      -4.591   8.500   0.064  0.00  0.00    -0.144 NA
ATOM      6  N   UNL     1      -3.636   7.475   0.038  0.00  0.00    -0.245 N 
ATOM      7  H   UNL     1      -0.291   7.919   0.021  0.00  0.00    +0.177 HD
ATOM      8  H   UNL     1      -3.734   6.379   0.018  0.00  0.00    +0.192 HD
ENDROOT
BRANCH   1  10
ATOM      9  C   UNL     1      -0.077   5.322  -0.011  0.00  0.00    +0.138 C 
ATOM     10  N   UNL     1      -1.212   5.953   0.006  0.00  0.00    -0.188 NA
BRANCH   9  13
ATOM     11  C   UNL     1      -1.223   1.748  -0.050  0.00  0.00    +0.004 A 
ATOM     12  C   UNL     1      -1.250   3.127  -0.028  0.00  0.00    +0.010 A 
ATOM     13  C   UNL     1      -0.053   3.848  -0.029  0.00  0.00    -0.002 A 
ATOM     14  C   UNL     1       1.166   3.167  -0.047  0.00  0.00    +0.054 A 
ATOM     15  C   UNL     1       1.181   1.783  -0.064  0.00  0.00    +0.117 A 
ATOM     16  C   UNL     1      -0.015   1.075  -0.063  0.00  0.00    +0.045 A 
BRANCH  15  17
ATOM     17  O   UNL     1       2.365   1.116  -0.082  0.00  0.00    -0.507 OA
ATOM     18  H   UNL     1       2.376   0.017  -0.095  0.00  0.00    +0.292 HD
ENDBRANCH  15  17
ENDBRANCH   9  13
ENDBRANCH   1  10
BRANCH   4  19
ATOM     19  S   UNL     1      -4.696  11.244   0.098  0.00  0.00    -0.075 S 
BRANCH  19  20
ATOM     20  C   UNL     1      -6.477  10.900   0.109  0.00  0.00    +0.173 C 
BRANCH  20  21
ATOM     21  C   UNL     1      -7.239  12.200   0.131  0.00  0.00    +0.227 C 
ATOM     22  O   UNL     1      -6.640  13.254   0.139  0.00  0.00    -0.275 OA
ATOM     23  N   UNL     1      -8.587  12.190   0.142  0.00  0.00    -0.285 N 
ATOM     24  H   UNL     1      -9.131  11.238   0.058  0.00  0.00    +0.155 HD
BRANCH  23  25
ATOM     25  C   UNL     1      -9.294  13.392   0.260  0.00  0.00    +0.036 A 
ATOM     26  C   UNL     1     -10.492  13.428   0.964  0.00  0.00    +0.023 A 
ATOM     27  C   UNL     1     -11.186  14.616   1.083  0.00  0.00    +0.005 A 
ATOM     28  C   UNL     1     -10.696  15.768   0.495  0.00  0.00    +0.038 A 
ATOM     29  C   UNL     1      -9.505  15.735  -0.211  0.00  0.00    +0.125 A 
ATOM     30  C   UNL     1      -8.804  14.548  -0.330  0.00  0.00    +0.061 A 
ATOM     31  F   UNL     1      -9.029  16.861  -0.785  0.00  0.00    -0.205 F 
ENDBRANCH  23  25
ENDBRANCH  20  21
ENDBRANCH  19  20
ENDBRANCH   4  19
TORSDOF 7
