REMARK  Name = ZINC39846603
REMARK  8 active torsions:
REMARK  status: ('A' for Active; 'I' for Inactive)
REMARK    1  A    between atoms: C_4  and  S_7
REMARK    2  A    between atoms: S_7  and  C_8
REMARK    3  A    between atoms: C_13  and  N_14
REMARK    4  A    between atoms: C_15  and  C_17
REMARK    5  A    between atoms: C_17  and  C_18
REMARK    6  A    between atoms: C_18  and  C_19
REMARK    7  A    between atoms: C_19  and  C_20
REMARK    8  A    between atoms: C_28  and  C_30
REMARK                            x       y       z     vdW  Elec       q    Type
REMARK                         _______ _______ _______ _____ _____    ______ ____
ROOT
ATOM      1  C   UNL     1       8.191  -3.554   0.095  0.00  0.00    +0.096 C 
ENDROOT
BRANCH   1   3
ATOM      2  N   UNL     1       5.782  -2.998   0.188  0.00  0.00    -0.285 N 
ATOM      3  C   UNL     1       6.740  -3.946   0.203  0.00  0.00    +0.217 C 
ATOM      4  O   UNL     1       6.434  -5.115   0.305  0.00  0.00    -0.275 OA
ATOM      5  H   UNL     1       6.029  -2.060   0.173  0.00  0.00    +0.155 HD
BRANCH   2  11
ATOM      6  C   UNL     1       3.493  -2.602  -0.499  0.00  0.00    +0.034 A 
ATOM      7  C   UNL     1       2.156  -2.977  -0.492  0.00  0.00    +0.017 A 
ATOM      8  C   UNL     1       1.758  -4.101   0.204  0.00  0.00    +0.001 A 
ATOM      9  C   UNL     1       2.687  -4.857   0.897  0.00  0.00    +0.002 A 
ATOM     10  C   UNL     1       4.020  -4.491   0.896  0.00  0.00    +0.024 A 
ATOM     11  C   UNL     1       4.431  -3.367   0.195  0.00  0.00    +0.047 A 
BRANCH   6  12
ATOM     12  S   UNL     1       4.004  -1.168  -1.386  0.00  0.00    -0.088 S 
BRANCH  12  16
ATOM     13  C   UNL     1       0.129   0.640  -2.877  0.00  0.00    +0.000 A 
ATOM     14  C   UNL     1       0.583   0.936  -1.605  0.00  0.00    +0.001 A 
ATOM     15  C   UNL     1       1.764   0.386  -1.147  0.00  0.00    +0.015 A 
ATOM     16  C   UNL     1       2.496  -0.465  -1.966  0.00  0.00    +0.013 A 
ATOM     17  C   UNL     1       2.036  -0.760  -3.244  0.00  0.00    +0.015 A 
ATOM     18  C   UNL     1       0.854  -0.207  -3.695  0.00  0.00    +0.001 A 
ENDBRANCH  12  16
ENDBRANCH   6  12
ENDBRANCH   2  11
ENDBRANCH   1   3
BRANCH   1  19
ATOM     19  C   UNL     1       9.063  -4.809   0.137  0.00  0.00    +0.014 C 
BRANCH  19  20
ATOM     20  C   UNL     1      10.537  -4.411   0.026  0.00  0.00    +0.038 C 
BRANCH  20  21
ATOM     21  C   UNL     1      11.396  -5.648   0.068  0.00  0.00    -0.013 A 
ATOM     22  C   UNL     1      11.828  -6.446  -1.078  0.00  0.00    +0.003 A 
ATOM     23  C   UNL     1      11.618  -6.353  -2.457  0.00  0.00    +0.010 A 
ATOM     24  C   UNL     1      12.172  -7.282  -3.292  0.00  0.00    +0.001 A 
ATOM     25  C   UNL     1      12.942  -8.318  -2.782  0.00  0.00    +0.002 A 
ATOM     26  C   UNL     1      13.161  -8.430  -1.426  0.00  0.00    +0.026 A 
ATOM     27  C   UNL     1      12.608  -7.496  -0.556  0.00  0.00    +0.047 A 
ATOM     28  N   UNL     1      12.646  -7.342   0.811  0.00  0.00    -0.353 N 
ATOM     29  C   UNL     1      11.922  -6.229   1.175  0.00  0.00    +0.069 A 
ATOM     30  H   UNL     1      13.115  -7.927   1.426  0.00  0.00    +0.166 HD
BRANCH  29  31
ATOM     31  C   UNL     1      11.742  -5.744   2.559  0.00  0.00    +0.087 A 
ATOM     32  C   UNL     1      11.859  -6.636   3.627  0.00  0.00    +0.030 A 
ATOM     33  C   UNL     1      11.689  -6.166   4.916  0.00  0.00    +0.004 A 
ATOM     34  C   UNL     1      11.406  -4.819   5.100  0.00  0.00    +0.020 A 
ATOM     35  C   UNL     1      11.304  -3.991   3.998  0.00  0.00    +0.111 A 
ATOM     36  N   UNL     1      11.476  -4.461   2.779  0.00  0.00    -0.254 NA
ENDBRANCH  29  31
ENDBRANCH  20  21
ENDBRANCH  19  20
ENDBRANCH   1  19
TORSDOF 8
