REMARK  Name = ZINC36729343
REMARK  11 active torsions:
REMARK  status: ('A' for Active; 'I' for Inactive)
REMARK    1  A    between atoms: C_1  and  C_2
REMARK    2  A    between atoms: C_2  and  O_3
REMARK    3  A    between atoms: O_3  and  C_4
REMARK    4  A    between atoms: C_4  and  C_6
REMARK    5  A    between atoms: C_7  and  C_36
REMARK    6  A    between atoms: C_11  and  C_13
REMARK    7  A    between atoms: C_16  and  O_19
REMARK    8  A    between atoms: O_19  and  C_20
REMARK    9  A    between atoms: C_20  and  C_21
REMARK   10  A    between atoms: C_32  and  C_34
REMARK   11  A    between atoms: C_32  and  C_35
REMARK                            x       y       z     vdW  Elec       q    Type
REMARK                         _______ _______ _______ _____ _____    ______ ____
ROOT
ATOM      1  C   UNL     1       1.301  -2.346  -2.549  0.00  0.00    +0.065 C 
ATOM      2  C   UNL     1       1.608  -3.654  -2.578  0.00  0.00    +0.016 C 
ATOM      3  N   UNL     1       2.367  -4.165  -3.594  0.00  0.00    -0.321 N 
ATOM      4  C   UNL     1       3.147  -3.344  -4.363  0.00  0.00    +0.016 C 
ATOM      5  C   UNL     1       2.908  -2.017  -4.408  0.00  0.00    +0.024 C 
ATOM      6  C   UNL     1       1.765  -1.413  -3.629  0.00  0.00    +0.092 C 
ATOM      7  C   UNL     1       3.712  -1.161  -5.181  0.00  0.00    +0.162 C 
ATOM      8  O   UNL     1       3.465   0.029  -5.206  0.00  0.00    -0.292 OA
ATOM      9  C   UNL     1       4.872  -1.690  -5.979  0.00  0.00    +0.086 C 
ATOM     10  C   UNL     1       5.415  -2.950  -5.295  0.00  0.00    -0.023 C 
ATOM     11  C   UNL     1       4.273  -3.959  -5.158  0.00  0.00    +0.058 C 
ATOM     12  C   UNL     1       6.535  -3.554  -6.144  0.00  0.00    +0.011 C 
ATOM     13  C   UNL     1       5.952  -2.590  -3.908  0.00  0.00    +0.011 C 
ATOM     14  C   UNL     1       1.114  -4.564  -1.483  0.00  0.00    +0.061 C 
ATOM     15  H   UNL     1       2.352  -5.119  -3.771  0.00  0.00    +0.152 HD
ENDROOT
BRANCH   6  16
ATOM     16  C   UNL     1       0.618  -1.129  -4.564  0.00  0.00    -0.035 A 
ATOM     17  C   UNL     1       0.008  -2.167  -5.244  0.00  0.00    +0.008 A 
ATOM     18  C   UNL     1      -1.043  -1.909  -6.102  0.00  0.00    +0.046 A 
ATOM     19  C   UNL     1      -1.488  -0.607  -6.280  0.00  0.00    +0.121 A 
ATOM     20  C   UNL     1      -0.876   0.433  -5.596  0.00  0.00    +0.046 A 
ATOM     21  C   UNL     1       0.172   0.169  -4.735  0.00  0.00    +0.008 A 
BRANCH  19  22
ATOM     22  O   UNL     1      -2.522  -0.350  -7.124  0.00  0.00    -0.487 OA
BRANCH  22  23
ATOM     23  C   UNL     1      -2.927   1.014  -7.258  0.00  0.00    +0.266 C 
BRANCH  23  24
ATOM     24  C   UNL     1      -4.078   1.103  -8.227  0.00  0.00    +0.008 A 
ATOM     25  C   UNL     1      -4.572  -0.043  -8.820  0.00  0.00    +0.010 A 
ATOM     26  C   UNL     1      -5.627   0.038  -9.709  0.00  0.00    +0.020 A 
ATOM     27  C   UNL     1      -6.190   1.267 -10.006  0.00  0.00    +0.042 A 
ATOM     28  C   UNL     1      -5.695   2.414  -9.412  0.00  0.00    +0.040 A 
ATOM     29  C   UNL     1      -4.642   2.332  -8.519  0.00  0.00    +0.049 A 
ATOM     30 CL   UNL     1      -4.025   3.771  -7.769  0.00  0.00    -0.083 Cl
ATOM     31 CL   UNL     1      -7.514   1.369 -11.123  0.00  0.00    -0.083 Cl
ENDBRANCH  23  24
ENDBRANCH  22  23
ENDBRANCH  19  22
ENDBRANCH   6  16
BRANCH   1  32
ATOM     32  C   UNL     1       0.520  -1.840  -1.483  0.00  0.00    +0.338 C 
ATOM     33  O   UNL     1       1.043  -1.175  -0.609  0.00  0.00    -0.245 OA
BRANCH  32  34
ATOM     34  O   UNL     1      -0.804  -2.095  -1.436  0.00  0.00    -0.462 OA
BRANCH  34  36
ATOM     35  C   UNL     1      -3.005  -1.945  -0.449  0.00  0.00    +0.048 C 
ATOM     36  C   UNL     1      -1.530  -1.553  -0.331  0.00  0.00    +0.229 C 
ENDBRANCH  34  36
ENDBRANCH  32  34
ENDBRANCH   1  32
TORSDOF 7
