REMARK  Name = ZINC63666916
REMARK  11 active torsions:
REMARK  status: ('A' for Active; 'I' for Inactive)
REMARK    1  A    between atoms: C_1  and  C_2
REMARK    2  A    between atoms: C_7  and  C_12
REMARK    3  A    between atoms: C_12  and  C_13
REMARK    4  A    between atoms: C_13  and  N_14
REMARK    5  A    between atoms: C_15  and  C_17
REMARK    6  A    between atoms: C_17  and  C_18
REMARK    7  A    between atoms: C_18  and  N_19
REMARK    8  A    between atoms: C_20  and  C_33
REMARK    9  A    between atoms: C_21  and  S_25
REMARK   10  A    between atoms: C_22  and  C_24
REMARK   11  A    between atoms: S_25  and  N_28
REMARK                            x       y       z     vdW  Elec       q    Type
REMARK                         _______ _______ _______ _____ _____    ______ ____
ROOT
ATOM      1  N   UNL     1      -2.291  -7.292   1.789  0.00  0.00    -0.315 N 
ATOM      2  C   UNL     1      -2.444  -8.571   1.391  0.00  0.00    +0.215 C 
ATOM      3  O   UNL     1      -1.598  -9.097   0.699  0.00  0.00    -0.276 OA
ATOM      4  H   UNL     1      -2.967  -6.872   2.343  0.00  0.00    +0.149 HD
ENDROOT
BRANCH   1   5
ATOM      5  C   UNL     1      -1.102  -6.537   1.384  0.00  0.00    +0.108 C 
BRANCH   5   6
ATOM      6  C   UNL     1      -1.174  -5.123   1.965  0.00  0.00    +0.065 C 
BRANCH   6  13
ATOM      7  C   UNL     1      -0.018   1.503   0.010  0.00  0.00    +0.044 C 
ATOM      8  C   UNL     1       0.002  -0.004   0.002  0.00  0.00    -0.048 A 
ATOM      9  C   UNL     1       0.005  -0.672  -1.235  0.00  0.00    +0.005 A 
ATOM     10  C   UNL     1       0.022  -2.017  -1.335  0.00  0.00    +0.027 A 
ATOM     11  C   UNL     1       0.040  -2.834  -0.114  0.00  0.00    +0.060 A 
ATOM     12  N   UNL     1       0.057  -4.120   0.090  0.00  0.00    -0.363 N 
ATOM     13  C   UNL     1       0.067  -4.335   1.542  0.00  0.00    +0.175 C 
ATOM     14  N   UNL     1       0.053  -3.002   2.159  0.00  0.00    -0.363 N 
ATOM     15  C   UNL     1       0.037  -2.127   1.195  0.00  0.00    +0.060 A 
ATOM     16  C   UNL     1       0.022  -0.657   1.181  0.00  0.00    +0.030 A 
ATOM     17  H   UNL     1       0.062  -4.809  -0.593  0.00  0.00    +0.162 HD
ATOM     18  H   UNL     1       0.055  -2.810   3.109  0.00  0.00    +0.162 HD
ENDBRANCH   6  13
ENDBRANCH   5   6
ENDBRANCH   1   5
BRANCH   2  19
ATOM     19  C   UNL     1      -3.667  -9.348   1.808  0.00  0.00    +0.119 C 
BRANCH  19  20
ATOM     20  C   UNL     1      -3.595 -10.762   1.227  0.00  0.00    +0.153 C 
BRANCH  20  21
ATOM     21  N   UNL     1      -4.783 -11.517   1.632  0.00  0.00    -0.266 N 
ATOM     22  C   UNL     1      -4.907 -12.263   2.749  0.00  0.00    +0.063 A 
ATOM     23  C   UNL     1      -6.152 -12.794   2.754  0.00  0.00    +0.148 A 
ATOM     24  C   UNL     1      -6.811 -12.357   1.600  0.00  0.00    +0.087 A 
ATOM     25  N   UNL     1      -5.993 -11.587   0.930  0.00  0.00    -0.174 NA
ATOM     26  C   UNL     1      -8.221 -12.709   1.202  0.00  0.00    +0.069 C 
ATOM     27  C   UNL     1      -3.849 -12.468   3.803  0.00  0.00    +0.067 C 
BRANCH  23  28
ATOM     28  S   UNL     1      -6.824 -13.849   3.995  0.00  0.00    +0.064 S 
ATOM     29  O   UNL     1      -7.863 -14.595   3.375  0.00  0.00    -0.153 OA
ATOM     30  O   UNL     1      -5.720 -14.471   4.640  0.00  0.00    -0.153 OA
BRANCH  28  31
ATOM     31  N   UNL     1      -7.546 -12.878   5.125  0.00  0.00    -0.176 NA
ATOM     32  C   UNL     1      -6.891 -12.312   6.313  0.00  0.00    +0.109 C 
ATOM     33  C   UNL     1      -7.957 -11.501   7.081  0.00  0.00    +0.018 C 
ATOM     34  C   UNL     1      -9.290 -12.120   6.585  0.00  0.00    +0.018 C 
ATOM     35  C   UNL     1      -8.952 -12.434   5.103  0.00  0.00    +0.109 C 
ENDBRANCH  28  31
ENDBRANCH  23  28
ENDBRANCH  20  21
ENDBRANCH  19  20
ENDBRANCH   2  19
TORSDOF 8
