REMARK  Name = ZINC16575782
REMARK  6 active torsions:
REMARK  status: ('A' for Active; 'I' for Inactive)
REMARK    1  A    between atoms: C_1  and  C_2
REMARK    2  A    between atoms: C_2  and  C_3
REMARK    3  A    between atoms: C_2  and  C_4
REMARK    4  A    between atoms: C_7  and  N_10
REMARK    5  A    between atoms: C_11  and  C_12
REMARK    6  A    between atoms: N_19  and  C_22
REMARK                            x       y       z     vdW  Elec       q    Type
REMARK                         _______ _______ _______ _____ _____    ______ ____
ROOT
ATOM      1  C   UNL     1       1.028   2.959   0.662  0.00  0.00    +0.203 C 
ATOM      2  C   UNL     1       1.176   1.677  -0.136  0.00  0.00    +0.236 C 
ATOM      3  O   UNL     1       2.245   1.114  -0.228  0.00  0.00    -0.274 OA
ATOM      4  N   UNL     1       0.072   1.187  -0.739  0.00  0.00    -0.266 N 
ATOM      5  C   UNL     1      -1.114   1.800  -0.652  0.00  0.00    +0.150 C 
ATOM      6  S   UNL     1      -2.438   1.085  -1.468  0.00  0.00    -0.018 S 
ATOM      7  N   UNL     1      -1.342   2.928   0.031  0.00  0.00    -0.221 N 
ATOM      8  C   UNL     1      -0.361   3.568   0.701  0.00  0.00    +0.243 C 
ATOM      9  O   UNL     1      -0.581   4.592   1.312  0.00  0.00    -0.274 OA
ATOM     10  H   UNL     1       0.142   0.369  -1.255  0.00  0.00    +0.157 HD
ENDROOT
BRANCH   7  11
ATOM     11  C   UNL     1      -2.637   3.464   0.045  0.00  0.00    +0.043 A 
ATOM     12  C   UNL     1      -3.024   4.376  -0.927  0.00  0.00    +0.024 A 
ATOM     13  C   UNL     1      -4.303   4.898  -0.914  0.00  0.00    +0.002 A 
ATOM     14  C   UNL     1      -5.194   4.522   0.075  0.00  0.00    +0.000 A 
ATOM     15  C   UNL     1      -4.810   3.617   1.048  0.00  0.00    +0.002 A 
ATOM     16  C   UNL     1      -3.534   3.088   1.036  0.00  0.00    +0.024 A 
ENDBRANCH   7  11
BRANCH   1  18
ATOM     17  N   UNL     1       2.898   4.495   0.824  0.00  0.00    -0.259 NA
ATOM     18  C   UNL     1       1.972   3.982   0.085  0.00  0.00    +0.106 C 
BRANCH  17  22
ATOM     19  C   UNL     1       5.495   7.306  -0.763  0.00  0.00    -0.045 A 
ATOM     20  C   UNL     1       4.929   7.516   0.482  0.00  0.00    +0.006 A 
ATOM     21  C   UNL     1       4.063   6.584   1.016  0.00  0.00    +0.028 A 
ATOM     22  C   UNL     1       3.759   5.427   0.297  0.00  0.00    +0.064 A 
ATOM     23  C   UNL     1       4.337   5.218  -0.955  0.00  0.00    +0.028 A 
ATOM     24  C   UNL     1       5.197   6.161  -1.480  0.00  0.00    +0.006 A 
BRANCH  19  26
ATOM     25  C   UNL     1       7.803   7.681  -1.588  0.00  0.00    +0.012 C 
ATOM     26  C   UNL     1       6.439   8.329  -1.340  0.00  0.00    +0.013 C 
ATOM     27  C   UNL     1       5.876   8.853  -2.663  0.00  0.00    +0.012 C 
ENDBRANCH  19  26
ENDBRANCH  17  22
ENDBRANCH   1  18
TORSDOF 4
