REMARK  Name = ZINC41187011
REMARK  7 active torsions:
REMARK  status: ('A' for Active; 'I' for Inactive)
REMARK    1  A    between atoms: C_1  and  C_2
REMARK    2  A    between atoms: C_2  and  C_3
REMARK    3  A    between atoms: C_2  and  C_4
REMARK    4  A    between atoms: C_7  and  C_9
REMARK    5  A    between atoms: C_9  and  C_11
REMARK    6  A    between atoms: C_9  and  N_19
REMARK    7  A    between atoms: N_19  and  C_20
REMARK                            x       y       z     vdW  Elec       q    Type
REMARK                         _______ _______ _______ _____ _____    ______ ____
ROOT
ATOM      1  C   UNL     1      -3.535  -3.292  -1.288  0.00  0.00    +0.140 C 
ENDROOT
BRANCH   1   2
ATOM      2  C   UNL     1      -3.784  -4.351  -0.246  0.00  0.00    -0.021 A 
ATOM      3  C   UNL     1      -4.960  -4.344   0.480  0.00  0.00    +0.025 A 
ATOM      4  C   UNL     1      -5.189  -5.316   1.437  0.00  0.00    +0.043 A 
ATOM      5  C   UNL     1      -4.240  -6.296   1.668  0.00  0.00    +0.040 A 
ATOM      6  C   UNL     1      -3.062  -6.303   0.941  0.00  0.00    +0.043 A 
ATOM      7  C   UNL     1      -2.837  -5.333  -0.019  0.00  0.00    +0.025 A 
ATOM      8 CL   UNL     1      -1.871  -7.532   1.231  0.00  0.00    -0.083 Cl
ATOM      9 CL   UNL     1      -6.666  -5.307   2.349  0.00  0.00    -0.083 Cl
ENDBRANCH   1   2
BRANCH   1  13
ATOM     10  C   UNL     1      -1.920  -0.248   0.142  0.00  0.00    +0.051 A 
ATOM     11  C   UNL     1      -3.052   0.301   0.651  0.00  0.00    +0.070 A 
ATOM     12  S   UNL     1      -4.258  -0.925   0.172  0.00  0.00    -0.078 S 
ATOM     13  C   UNL     1      -3.211  -1.986  -0.610  0.00  0.00    +0.100 A 
ATOM     14  N   UNL     1      -2.046  -1.399  -0.490  0.00  0.00    -0.247 NA
BRANCH  10  16
ATOM     15  C   UNL     1      -0.766   1.945   0.220  0.00  0.00    +0.014 C 
ATOM     16  C   UNL     1      -0.581   0.428   0.287  0.00  0.00    +0.032 C 
ATOM     17  C   UNL     1       0.039   0.049   1.633  0.00  0.00    +0.014 C 
ENDBRANCH  10  16
ENDBRANCH   1  13
BRANCH   1  18
ATOM     18  N   UNL     1      -4.737  -3.128  -2.116  0.00  0.00    -0.307 NA
ATOM     19  C   UNL     1      -4.393  -2.617  -3.450  0.00  0.00    +0.102 C 
ATOM     20  H   UNL     1      -5.252  -3.994  -2.182  0.00  0.00    +0.123 HD
ENDBRANCH   1  18
TORSDOF 4
