REMARK  Name = ZINC56172734
REMARK  11 active torsions:
REMARK  status: ('A' for Active; 'I' for Inactive)
REMARK    1  A    between atoms: C_1  and  C_2
REMARK    2  A    between atoms: C_2  and  C_4
REMARK    3  A    between atoms: C_2  and  N_19
REMARK    4  A    between atoms: N_6  and  C_7
REMARK    5  A    between atoms: C_7  and  C_8
REMARK    6  A    between atoms: C_8  and  C_9
REMARK    7  A    between atoms: C_12  and  S_15
REMARK    8  A    between atoms: S_15  and  N_18
REMARK    9  A    between atoms: N_19  and  C_20
REMARK   10  A    between atoms: C_23  and  O_27
REMARK   11  A    between atoms: O_27  and  C_28
REMARK                            x       y       z     vdW  Elec       q    Type
REMARK                         _______ _______ _______ _____ _____    ______ ____
ROOT
ATOM      1  C   UNL     1       0.731  -0.503   1.223  0.00  0.00    +0.233 C 
ATOM      2  O   UNL     1       0.159  -1.213   2.023  0.00  0.00    -0.274 OA
ATOM      3  N   UNL     1       2.019  -0.161   1.426  0.00  0.00    -0.313 N 
ATOM      4  H   UNL     1       2.476   0.406   0.786  0.00  0.00    +0.149 HD
ENDROOT
BRANCH   1   6
ATOM      5  C   UNL     1      -0.019   1.526   0.010  0.00  0.00    +0.038 C 
ATOM      6  C   UNL     1       0.002  -0.004   0.002  0.00  0.00    +0.154 C 
BRANCH   6   7
ATOM      7  N   UNL     1      -1.372  -0.511   0.012  0.00  0.00    -0.333 N 
ATOM      8  H   UNL     1      -1.794  -0.752   0.852  0.00  0.00    +0.147 HD
BRANCH   7   9
ATOM      9  C   UNL     1      -2.077  -0.648  -1.189  0.00  0.00    +0.031 A 
ATOM     10  C   UNL     1      -1.471  -0.308  -2.392  0.00  0.00    +0.027 A 
ATOM     11  C   UNL     1      -2.167  -0.443  -3.578  0.00  0.00    +0.050 A 
ATOM     12  C   UNL     1      -3.470  -0.917  -3.568  0.00  0.00    +0.155 A 
ATOM     13  C   UNL     1      -4.077  -1.257  -2.367  0.00  0.00    +0.167 A 
ATOM     14  C   UNL     1      -3.379  -1.128  -1.179  0.00  0.00    +0.065 A 
ATOM     15  F   UNL     1      -5.346  -1.718  -2.358  0.00  0.00    -0.202 F 
BRANCH  12  16
ATOM     16  O   UNL     1      -4.154  -1.048  -4.737  0.00  0.00    -0.492 OA
ATOM     17  C   UNL     1      -3.468  -0.679  -5.935  0.00  0.00    +0.277 C 
ENDBRANCH  12  16
ENDBRANCH   7   9
ENDBRANCH   6   7
ENDBRANCH   1   6
BRANCH   3  18
ATOM     18  C   UNL     1       2.727  -0.647   2.613  0.00  0.00    +0.109 C 
BRANCH  18  19
ATOM     19  C   UNL     1       4.163  -0.117   2.602  0.00  0.00    +0.054 C 
BRANCH  19  20
ATOM     20  C   UNL     1       4.891  -0.616   3.823  0.00  0.00    -0.046 A 
ATOM     21  C   UNL     1       4.868   0.121   4.992  0.00  0.00    +0.005 A 
ATOM     22  C   UNL     1       5.537  -0.336   6.111  0.00  0.00    +0.029 A 
ATOM     23  C   UNL     1       6.228  -1.532   6.063  0.00  0.00    +0.105 A 
ATOM     24  C   UNL     1       6.251  -2.271   4.894  0.00  0.00    +0.029 A 
ATOM     25  C   UNL     1       5.579  -1.815   3.775  0.00  0.00    +0.005 A 
BRANCH  23  26
ATOM     26  S   UNL     1       7.082  -2.115   7.490  0.00  0.00    +0.056 S 
ATOM     27  O   UNL     1       8.103  -2.987   7.024  0.00  0.00    -0.153 OA
ATOM     28  O   UNL     1       7.360  -0.975   8.291  0.00  0.00    -0.153 OA
BRANCH  26  29
ATOM     29  N   UNL     1       6.017  -3.049   8.349  0.00  0.00    -0.204 NA
ATOM     30  H   UNL     1       6.344  -3.787   8.887  0.00  0.00    +0.144 HD
ATOM     31  H   UNL     1       5.067  -2.858   8.314  0.00  0.00    +0.144 HD
ENDBRANCH  26  29
ENDBRANCH  23  26
ENDBRANCH  19  20
ENDBRANCH  18  19
ENDBRANCH   3  18
TORSDOF 9
