REMARK  Name = ZINC39579070
REMARK  7 active torsions:
REMARK  status: ('A' for Active; 'I' for Inactive)
REMARK    1  A    between atoms: C_1  and  C_2
REMARK    2  A    between atoms: C_2  and  C_3
REMARK    3  A    between atoms: C_2  and  C_4
REMARK    4  A    between atoms: C_7  and  C_10
REMARK    5  A    between atoms: N_11  and  N_12
REMARK    6  A    between atoms: C_13  and  C_15
REMARK    7  A    between atoms: C_18  and  C_21
REMARK                            x       y       z     vdW  Elec       q    Type
REMARK                         _______ _______ _______ _____ _____    ______ ____
ROOT
ATOM      1  N   UNL     1       2.815  -3.143   6.643  0.00  0.00    -0.205 N 
ATOM      2  C   UNL     1       2.196  -3.941   7.535  0.00  0.00    +0.263 C 
ATOM      3  O   UNL     1       1.042  -4.268   7.358  0.00  0.00    -0.271 OA
ATOM      4  H   UNL     1       3.739  -2.882   6.784  0.00  0.00    +0.177 HD
ENDROOT
BRANCH   2   5
ATOM      5  C   UNL     1       2.939  -4.429   8.752  0.00  0.00    +0.240 C 
ATOM      6  C   UNL     1       2.928  -3.374   9.845  0.00  0.00    +0.041 C 
ATOM      7  C   UNL     1       2.280  -3.972  10.863  0.00  0.00    +0.093 C 
ATOM      8  N   UNL     1       1.910  -5.233  10.515  0.00  0.00    -0.153 NA
ATOM      9  N   UNL     1       2.236  -5.565   9.370  0.00  0.00    -0.170 NA
BRANCH   7  10
ATOM     10  C   UNL     1       2.009  -3.343  12.179  0.00  0.00    +0.020 A 
ATOM     11  C   UNL     1       2.537  -2.089  12.477  0.00  0.00    +0.013 A 
ATOM     12  C   UNL     1       2.282  -1.508  13.702  0.00  0.00    +0.021 A 
ATOM     13  C   UNL     1       1.502  -2.169  14.636  0.00  0.00    +0.042 A 
ATOM     14  C   UNL     1       0.975  -3.416  14.347  0.00  0.00    +0.040 A 
ATOM     15  C   UNL     1       1.219  -4.003  13.121  0.00  0.00    +0.052 A 
ATOM     16 CL   UNL     1       0.550  -5.563  12.755  0.00  0.00    -0.083 Cl
ATOM     17 CL   UNL     1       1.186  -1.433  16.176  0.00  0.00    -0.083 Cl
ENDBRANCH   7  10
ENDBRANCH   2   5
BRANCH   1  19
ATOM     18  C   UNL     1       2.720  -1.921   4.652  0.00  0.00    +0.138 C 
ATOM     19  N   UNL     1       2.124  -2.690   5.511  0.00  0.00    -0.188 NA
BRANCH  18  23
ATOM     20  C   UNL     1       0.628  -0.549   1.224  0.00  0.00    -0.045 A 
ATOM     21  C   UNL     1       1.945  -0.174   1.423  0.00  0.00    +0.004 A 
ATOM     22  C   UNL     1       2.631  -0.616   2.534  0.00  0.00    +0.010 A 
ATOM     23  C   UNL     1       1.993  -1.444   3.461  0.00  0.00    -0.005 A 
ATOM     24  C   UNL     1       0.663  -1.818   3.254  0.00  0.00    +0.010 A 
ATOM     25  C   UNL     1      -0.012  -1.364   2.140  0.00  0.00    +0.004 A 
BRANCH  20  27
ATOM     26  C   UNL     1      -0.155   1.467   0.011  0.00  0.00    +0.012 C 
ATOM     27  C   UNL     1      -0.115  -0.063   0.006  0.00  0.00    +0.013 C 
ATOM     28  C   UNL     1       0.600  -0.550  -1.256  0.00  0.00    +0.012 C 
ENDBRANCH  20  27
ENDBRANCH  18  23
ENDBRANCH   1  19
TORSDOF 5
