REMARK  Name = ZINC45570039
REMARK  9 active torsions:
REMARK  status: ('A' for Active; 'I' for Inactive)
REMARK    1  A    between atoms: C_1  and  C_2
REMARK    2  A    between atoms: C_8  and  N_10
REMARK    3  A    between atoms: C_14  and  C_16
REMARK    4  A    between atoms: C_16  and  N_17
REMARK    5  A    between atoms: N_17  and  C_18
REMARK    6  A    between atoms: N_17  and  C_19
REMARK    7  A    between atoms: C_19  and  C_20
REMARK    8  A    between atoms: C_23  and  S_26
REMARK    9  A    between atoms: S_26  and  C_27
REMARK                            x       y       z     vdW  Elec       q    Type
REMARK                         _______ _______ _______ _____ _____    ______ ____
ROOT
ATOM      1  N   UNL     1       2.116  -0.004   1.231  0.00  0.00    -0.296 N 
ATOM      2  C   UNL     1       2.795   0.128   2.388  0.00  0.00    +0.306 C 
ATOM      3  O   UNL     1       2.267  -0.174   3.440  0.00  0.00    -0.252 OA
ATOM      4  N   UNL     1       4.059   0.594   2.379  0.00  0.00    -0.242 N 
ATOM      5  C   UNL     1       4.738   0.726   3.536  0.00  0.00    +0.204 C 
ATOM      6  O   UNL     1       4.211   0.424   4.585  0.00  0.00    -0.277 OA
ATOM      7  H   UNL     1       2.538   0.237   0.392  0.00  0.00    +0.151 HD
ATOM      8  H   UNL     1       4.481   0.835   1.539  0.00  0.00    +0.159 HD
ENDROOT
BRANCH   1  15
ATOM      9  C   UNL     1      -0.019   1.526   0.010  0.00  0.00    +0.009 C 
ATOM     10  C   UNL     1       0.002  -0.004   0.002  0.00  0.00    +0.006 C 
ATOM     11  C   UNL     1      -1.433  -0.534   0.013  0.00  0.00    +0.005 C 
ATOM     12  C   UNL     1      -1.413  -2.063   0.004  0.00  0.00    +0.000 C 
ATOM     13  C   UNL     1      -0.673  -2.570   1.244  0.00  0.00    +0.002 C 
ATOM     14  C   UNL     1       0.763  -2.041   1.233  0.00  0.00    +0.022 C 
ATOM     15  C   UNL     1       0.742  -0.511   1.242  0.00  0.00    +0.077 C 
ENDBRANCH   1  15
BRANCH   5  16
ATOM     16  C   UNL     1       6.152   1.247   3.525  0.00  0.00    +0.019 C 
BRANCH  16  17
ATOM     17  N   UNL     1       6.666   1.296   4.900  0.00  0.00    +0.386 N 
ATOM     18  C   UNL     1       5.896   2.277   5.676  0.00  0.00    -0.095 C 
ATOM     19  H   UNL     1       6.576   0.386   5.325  0.00  0.00    -0.081 HD
BRANCH  17  20
ATOM     20  C   UNL     1       8.081   1.690   4.880  0.00  0.00    -0.043 C 
BRANCH  20  21
ATOM     21  C   UNL     1       8.642   1.621   6.277  0.00  0.00    -0.064 A 
ATOM     22  C   UNL     1       8.578   2.730   7.101  0.00  0.00    +0.003 A 
ATOM     23  C   UNL     1       9.091   2.671   8.382  0.00  0.00    +0.015 A 
ATOM     24  C   UNL     1       9.671   1.496   8.843  0.00  0.00    +0.008 A 
ATOM     25  C   UNL     1       9.733   0.383   8.012  0.00  0.00    +0.015 A 
ATOM     26  C   UNL     1       9.213   0.448   6.734  0.00  0.00    +0.003 A 
BRANCH  24  27
ATOM     27  S   UNL     1      10.328   1.416  10.476  0.00  0.00    -0.129 S 
ATOM     28  C   UNL     1      10.961  -0.279  10.612  0.00  0.00    +0.090 C 
ENDBRANCH  24  27
ENDBRANCH  20  21
ENDBRANCH  17  20
ENDBRANCH  16  17
ENDBRANCH   5  16
TORSDOF 6
