REMARK  Name = ZINC63808105
REMARK  3 active torsions:
REMARK  status: ('A' for Active; 'I' for Inactive)
REMARK    1  A    between atoms: C_1  and  C_2
REMARK    2  A    between atoms: C_4  and  C_15
REMARK    3  A    between atoms: C_18  and  C_20
REMARK                            x       y       z     vdW  Elec       q    Type
REMARK                         _______ _______ _______ _____ _____    ______ ____
ROOT
ATOM      1  C   UNL     1      -0.018   1.503   0.010  0.00  0.00    +0.067 C 
ATOM      2  C   UNL     1       0.002  -0.004   0.002  0.00  0.00    +0.065 C 
ATOM      3  C   UNL     1      -1.087  -0.780   0.003  0.00  0.00    +0.017 C 
ATOM      4  C   UNL     1      -2.502  -0.338   0.033  0.00  0.00    +0.144 C 
ATOM      5  S   UNL     1      -3.305  -0.733   1.600  0.00  0.00    -0.136 S 
ATOM      6  C   UNL     1      -3.409  -2.531   1.651  0.00  0.00    +0.165 C 
ATOM      7  C   UNL     1      -2.067  -3.168   1.696  0.00  0.00    +0.225 C 
ATOM      8  O   UNL     1      -2.014  -4.079   2.495  0.00  0.00    -0.275 OA
ATOM      9  N   UNL     1      -0.955  -2.986   1.092  0.00  0.00    -0.288 N 
ATOM     10  C   UNL     1      -0.536  -2.183  -0.018  0.00  0.00    +0.244 C 
ATOM     11  N   UNL     1       0.922  -1.976  -0.015  0.00  0.00    -0.160 NA
ATOM     12  N   UNL     1       1.124  -0.758  -0.013  0.00  0.00    -0.157 NA
ATOM     13  H   UNL     1      -0.232  -3.510   1.471  0.00  0.00    +0.151 HD
ENDROOT
BRANCH   4  14
ATOM     14  C   UNL     1      -3.251  -1.018  -1.084  0.00  0.00    +0.123 A 
ATOM     15  C   UNL     1      -3.883  -0.397  -2.099  0.00  0.00    +0.047 A 
ATOM     16  C   UNL     1      -4.447  -1.401  -2.911  0.00  0.00    +0.050 A 
ATOM     17  C   UNL     1      -4.125  -2.592  -2.341  0.00  0.00    +0.135 A 
ATOM     18  O   UNL     1      -3.394  -2.345  -1.237  0.00  0.00    -0.458 OA
BRANCH  17  19
ATOM     19  C   UNL     1      -4.505  -3.928  -2.848  0.00  0.00    +0.017 A 
ATOM     20  C   UNL     1      -5.259  -4.045  -4.017  0.00  0.00    +0.014 A 
ATOM     21  C   UNL     1      -5.611  -5.293  -4.485  0.00  0.00    +0.039 A 
ATOM     22  C   UNL     1      -5.218  -6.430  -3.797  0.00  0.00    +0.123 A 
ATOM     23  C   UNL     1      -4.469  -6.320  -2.637  0.00  0.00    +0.039 A 
ATOM     24  C   UNL     1      -4.106  -5.077  -2.163  0.00  0.00    +0.014 A 
ATOM     25  F   UNL     1      -5.566  -7.651  -4.260  0.00  0.00    -0.205 F 
ENDBRANCH  17  19
ENDBRANCH   4  14
TORSDOF 2
