REMARK  Name = ZINC13637134
REMARK  5 active torsions:
REMARK  status: ('A' for Active; 'I' for Inactive)
REMARK    1  A    between atoms: C_1  and  C_2
REMARK    2  A    between atoms: C_2  and  C_28
REMARK    3  A    between atoms: C_6  and  C_20
REMARK    4  A    between atoms: C_16  and  C_18
REMARK    5  A    between atoms: C_18  and  S_19
REMARK                            x       y       z     vdW  Elec       q    Type
REMARK                         _______ _______ _______ _____ _____    ______ ____
ROOT
ATOM      1  C   UNL     1       0.371   5.799  -4.447  0.00  0.00    +0.011 C 
ATOM      2  C   UNL     1       0.824   5.045  -5.699  0.00  0.00    -0.023 C 
ATOM      3  C   UNL     1       1.794   3.931  -5.310  0.00  0.00    +0.058 C 
ATOM      4  C   UNL     1       1.114   2.962  -4.356  0.00  0.00    +0.017 C 
ATOM      5  C   UNL     1      -0.201   2.717  -4.463  0.00  0.00    +0.040 C 
ATOM      6  C   UNL     1      -0.997   1.758  -3.608  0.00  0.00    +0.182 C 
ATOM      7  N   UNL     1      -0.288   1.272  -2.443  0.00  0.00    -0.254 N 
ATOM      8  C   UNL     1       0.858   0.491  -2.574  0.00  0.00    +0.058 A 
ATOM      9  C   UNL     1       0.877  -0.835  -2.169  0.00  0.00    +0.025 A 
ATOM     10  C   UNL     1       2.016  -1.593  -2.370  0.00  0.00    +0.002 A 
ATOM     11  C   UNL     1       3.131  -1.038  -2.973  0.00  0.00    +0.002 A 
ATOM     12  C   UNL     1       3.122   0.280  -3.354  0.00  0.00    +0.025 A 
ATOM     13  C   UNL     1       1.994   1.049  -3.132  0.00  0.00    +0.053 A 
ATOM     14  N   UNL     1       1.944   2.405  -3.436  0.00  0.00    -0.316 N 
ATOM     15  C   UNL     1      -0.742   1.585  -1.213  0.00  0.00    +0.230 C 
ATOM     16  O   UNL     1      -1.736   2.268  -1.088  0.00  0.00    -0.274 OA
ATOM     17  C   UNL     1      -0.976   3.386  -5.440  0.00  0.00    +0.163 C 
ATOM     18  O   UNL     1      -2.162   3.132  -5.522  0.00  0.00    -0.292 OA
ATOM     19  C   UNL     1      -0.386   4.394  -6.380  0.00  0.00    +0.086 C 
ATOM     20  C   UNL     1       1.507   6.013  -6.668  0.00  0.00    +0.011 C 
ATOM     21  H   UNL     1       2.545   2.996  -2.957  0.00  0.00    +0.152 HD
ENDROOT
BRANCH   6  22
ATOM     22  C   UNL     1      -1.392   0.576  -4.456  0.00  0.00    +0.130 A 
ATOM     23  C   UNL     1      -2.565   0.424  -5.096  0.00  0.00    +0.047 A 
ATOM     24  C   UNL     1      -2.507  -0.819  -5.767  0.00  0.00    +0.041 A 
ATOM     25  C   UNL     1      -1.306  -1.357  -5.489  0.00  0.00    +0.195 A 
ATOM     26  O   UNL     1      -0.635  -0.507  -4.694  0.00  0.00    -0.466 OA
ENDBRANCH   6  22
BRANCH  15  27
ATOM     27  C   UNL     1      -0.013   1.086   0.008  0.00  0.00    +0.161 C 
BRANCH  27  28
ATOM     28  S   UNL     1      -0.862   1.671   1.500  0.00  0.00    -0.169 S 
ATOM     29  H   UNL     1      -0.129   1.168   2.510  0.00  0.00    +0.102 HD
ENDBRANCH  27  28
ENDBRANCH  15  27
TORSDOF 3
