REMARK  Name = ZINC09019372
REMARK  8 active torsions:
REMARK  status: ('A' for Active; 'I' for Inactive)
REMARK    1  A    between atoms: C_1  and  C_2
REMARK    2  A    between atoms: C_2  and  C_27
REMARK    3  A    between atoms: N_3  and  N_4
REMARK    4  A    between atoms: C_5  and  C_7
REMARK    5  A    between atoms: C_7  and  S_8
REMARK    6  A    between atoms: S_8  and  C_9
REMARK    7  A    between atoms: C_12  and  C_20
REMARK    8  A    between atoms: N_13  and  C_14
REMARK                            x       y       z     vdW  Elec       q    Type
REMARK                         _______ _______ _______ _____ _____    ______ ____
ROOT
ATOM      1  C   UNL     1      -4.165   0.876  -3.760  0.00  0.00    +0.197 A 
ATOM      2  N   UNL     1      -4.222  -0.410  -3.493  0.00  0.00    -0.122 NA
ATOM      3  N   UNL     1      -5.272  -0.926  -4.024  0.00  0.00    -0.128 NA
ATOM      4  C   UNL     1      -5.952  -0.003  -4.663  0.00  0.00    +0.169 A 
ATOM      5  N   UNL     1      -5.267   1.183  -4.510  0.00  0.00    -0.270 N 
ENDROOT
BRANCH   4   6
ATOM      6  C   UNL     1      -7.217  -0.197  -5.403  0.00  0.00    +0.020 A 
ATOM      7  C   UNL     1      -7.671   0.785  -6.285  0.00  0.00    +0.012 A 
ATOM      8  C   UNL     1      -8.849   0.595  -6.977  0.00  0.00    +0.016 A 
ATOM      9  C   UNL     1      -9.587  -0.561  -6.789  0.00  0.00    +0.018 A 
ATOM     10  C   UNL     1      -9.145  -1.536  -5.912  0.00  0.00    +0.016 A 
ATOM     11  C   UNL     1      -7.965  -1.361  -5.218  0.00  0.00    +0.012 A 
ATOM     12 BR   UNL     1     -11.205  -0.810  -7.736  0.00  0.00    -0.050 Br
ENDBRANCH   4   6
BRANCH   5  13
ATOM     13  C   UNL     1      -5.623   2.439  -5.019  0.00  0.00    +0.051 A 
ATOM     14  C   UNL     1      -6.779   3.068  -4.575  0.00  0.00    +0.026 A 
ATOM     15  C   UNL     1      -7.124   4.308  -5.074  0.00  0.00    +0.002 A 
ATOM     16  C   UNL     1      -6.325   4.920  -6.023  0.00  0.00    +0.000 A 
ATOM     17  C   UNL     1      -5.176   4.294  -6.471  0.00  0.00    +0.002 A 
ATOM     18  C   UNL     1      -4.823   3.056  -5.972  0.00  0.00    +0.026 A 
ENDBRANCH   5  13
BRANCH   1  19
ATOM     19  S   UNL     1      -2.907   1.996  -3.242  0.00  0.00    -0.076 S 
BRANCH  19  20
ATOM     20  C   UNL     1      -1.841   0.865  -2.314  0.00  0.00    +0.174 C 
BRANCH  20  22
ATOM     21  N   UNL     1       0.270   0.983  -1.030  0.00  0.00    -0.206 N 
ATOM     22  C   UNL     1      -0.664   1.625  -1.761  0.00  0.00    +0.242 C 
ATOM     23  O   UNL     1      -0.555   2.814  -1.973  0.00  0.00    -0.273 OA
ATOM     24  H   UNL     1       0.183   0.032  -0.861  0.00  0.00    +0.177 HD
BRANCH  21  27
ATOM     25  C   UNL     1       3.409   1.821   0.793  0.00  0.00    +0.068 C 
ATOM     26  C   UNL     1       2.324   1.052   0.084  0.00  0.00    +0.063 C 
ATOM     27  N   UNL     1       1.368   1.688  -0.521  0.00  0.00    -0.185 NA
BRANCH  26  28
ATOM     28  C   UNL     1       2.349  -0.422   0.075  0.00  0.00    -0.003 A 
ATOM     29  C   UNL     1       2.790  -1.123   1.201  0.00  0.00    +0.010 A 
ATOM     30  C   UNL     1       2.806  -2.502   1.188  0.00  0.00    +0.001 A 
ATOM     31  C   UNL     1       2.397  -3.191   0.060  0.00  0.00    +0.000 A 
ATOM     32  C   UNL     1       1.963  -2.504  -1.060  0.00  0.00    +0.001 A 
ATOM     33  C   UNL     1       1.936  -1.125  -1.059  0.00  0.00    +0.010 A 
ENDBRANCH  26  28
ENDBRANCH  21  27
ENDBRANCH  20  22
ENDBRANCH  19  20
ENDBRANCH   1  19
TORSDOF 7
