REMARK  Name = ZINC01282835
REMARK  7 active torsions:
REMARK  status: ('A' for Active; 'I' for Inactive)
REMARK    1  A    between atoms: C_1  and  C_2
REMARK    2  A    between atoms: C_2  and  C_33
REMARK    3  A    between atoms: C_6  and  C_23
REMARK    4  A    between atoms: C_11  and  S_13
REMARK    5  A    between atoms: S_13  and  C_14
REMARK    6  A    between atoms: C_14  and  C_15
REMARK    7  A    between atoms: C_27  and  O_29
REMARK                            x       y       z     vdW  Elec       q    Type
REMARK                         _______ _______ _______ _____ _____    ______ ____
ROOT
ATOM      1  C   UNL     1      -0.019   1.526   0.010  0.00  0.00    +0.011 C 
ATOM      2  C   UNL     1       0.002  -0.004   0.002  0.00  0.00    -0.023 C 
ATOM      3  C   UNL     1       0.742  -0.503  -1.241  0.00  0.00    +0.058 C 
ATOM      4  C   UNL     1       2.168  -0.005  -1.216  0.00  0.00    +0.020 C 
ATOM      5  C   UNL     1       2.816   0.182  -0.046  0.00  0.00    +0.041 C 
ATOM      6  C   UNL     1       4.249   0.663   0.011  0.00  0.00    +0.176 C 
ATOM      7  N   UNL     1       4.650   1.189  -1.288  0.00  0.00    -0.220 N 
ATOM      8  C   UNL     1       3.945   0.982  -2.427  0.00  0.00    +0.219 A 
ATOM      9  N   UNL     1       4.571   1.575  -3.406  0.00  0.00    -0.187 NA
ATOM     10  C   UNL     1       5.675   2.173  -2.935  0.00  0.00    +0.211 A 
ATOM     11  N   UNL     1       5.758   1.960  -1.639  0.00  0.00    -0.141 NA
ATOM     12  N   UNL     1       2.768   0.251  -2.425  0.00  0.00    -0.287 N 
ATOM     13  C   UNL     1       2.173  -0.060   1.181  0.00  0.00    +0.164 C 
ATOM     14  O   UNL     1       2.788   0.104   2.217  0.00  0.00    -0.292 OA
ATOM     15  C   UNL     1       0.742  -0.517   1.242  0.00  0.00    +0.086 C 
ATOM     16  C   UNL     1      -1.431  -0.539  -0.001  0.00  0.00    +0.011 C 
ATOM     17  H   UNL     1       2.379  -0.071  -3.253  0.00  0.00    +0.155 HD
ENDROOT
BRANCH   6  18
ATOM     18  C   UNL     1       5.148  -0.488   0.381  0.00  0.00    -0.015 A 
ATOM     19  C   UNL     1       5.207  -1.608  -0.428  0.00  0.00    +0.006 A 
ATOM     20  C   UNL     1       6.030  -2.666  -0.091  0.00  0.00    +0.004 A 
ATOM     21  C   UNL     1       6.798  -2.607   1.056  0.00  0.00    +0.045 A 
ATOM     22  C   UNL     1       6.741  -1.485   1.870  0.00  0.00    +0.117 A 
ATOM     23  C   UNL     1       5.918  -0.422   1.526  0.00  0.00    +0.051 A 
BRANCH  22  24
ATOM     24  O   UNL     1       7.495  -1.424   2.999  0.00  0.00    -0.507 OA
ATOM     25  H   UNL     1       8.372  -1.040   2.866  0.00  0.00    +0.292 HD
ENDBRANCH  22  24
ENDBRANCH   6  18
BRANCH  10  26
ATOM     26  S   UNL     1       6.828   3.095  -3.896  0.00  0.00    -0.080 S 
BRANCH  26  27
ATOM     27  C   UNL     1       6.158   3.017  -5.580  0.00  0.00    +0.114 C 
BRANCH  27  28
ATOM     28  C   UNL     1       7.062   3.777  -6.516  0.00  0.00    -0.019 A 
ATOM     29  C   UNL     1       6.853   5.125  -6.737  0.00  0.00    +0.006 A 
ATOM     30  C   UNL     1       7.682   5.822  -7.596  0.00  0.00    +0.000 A 
ATOM     31  C   UNL     1       8.721   5.171  -8.234  0.00  0.00    +0.001 A 
ATOM     32  C   UNL     1       8.932   3.823  -8.014  0.00  0.00    +0.020 A 
ATOM     33  C   UNL     1       8.105   3.126  -7.150  0.00  0.00    +0.045 A 
ATOM     34 CL   UNL     1       8.373   1.434  -6.868  0.00  0.00    -0.083 Cl
ENDBRANCH  27  28
ENDBRANCH  26  27
ENDBRANCH  10  26
TORSDOF 5
