REMARK  Name = ZINC20206905
REMARK  10 active torsions:
REMARK  status: ('A' for Active; 'I' for Inactive)
REMARK    1  A    between atoms: C_1  and  C_2
REMARK    2  A    between atoms: C_2  and  O_3
REMARK    3  A    between atoms: O_3  and  C_4
REMARK    4  A    between atoms: C_7  and  N_10
REMARK    5  A    between atoms: C_11  and  C_33
REMARK    6  A    between atoms: C_13  and  C_16
REMARK    7  A    between atoms: C_14  and  C_15
REMARK    8  A    between atoms: C_27  and  S_28
REMARK    9  A    between atoms: S_28  and  C_31
REMARK   10  A    between atoms: C_31  and  C_32
REMARK                            x       y       z     vdW  Elec       q    Type
REMARK                         _______ _______ _______ _____ _____    ______ ____
ROOT
ATOM      1  C   UNL     1       0.792  -8.940  -3.974  0.00  0.00    +0.026 C 
ATOM      2  C   UNL     1       1.582 -10.068  -4.062  0.00  0.00    +0.079 C 
ATOM      3  C   UNL     1       1.188 -11.241  -4.893  0.00  0.00    +0.138 C 
ATOM      4  N   UNL     1       0.507 -11.140  -6.003  0.00  0.00    -0.284 NA
ATOM      5  N   UNL     1       1.625 -12.470  -4.359  0.00  0.00    -0.201 N 
ATOM      6  C   UNL     1       2.704 -12.466  -3.501  0.00  0.00    +0.183 C 
ATOM      7  N   UNL     1       3.329 -11.410  -3.033  0.00  0.00    -0.152 NA
ATOM      8  C   UNL     1       2.872 -10.178  -3.340  0.00  0.00    +0.273 C 
ATOM      9  O   UNL     1       3.501  -9.180  -3.028  0.00  0.00    -0.268 OA
ATOM     10  S   UNL     1       2.971 -14.087  -3.217  0.00  0.00    +0.049 S 
ATOM     11  N   UNL     1       1.683 -14.730  -4.076  0.00  0.00    -0.174 NA
ATOM     12  C   UNL     1       1.102 -13.695  -4.601  0.00  0.00    +0.257 C 
ATOM     13  H   UNL     1       0.231 -10.267  -6.325  0.00  0.00    +0.188 HD
ENDROOT
BRANCH   1  17
ATOM     14  N   UNL     1       1.458  -5.932  -2.130  0.00  0.00    -0.317 N 
ATOM     15  C   UNL     1       1.768  -6.853  -1.169  0.00  0.00    +0.022 A 
ATOM     16  C   UNL     1       1.583  -8.088  -1.664  0.00  0.00    +0.031 A 
ATOM     17  C   UNL     1       1.119  -7.916  -3.048  0.00  0.00    -0.003 A 
ATOM     18  C   UNL     1       1.062  -6.548  -3.261  0.00  0.00    +0.028 A 
ATOM     19  C   UNL     1       0.635  -5.869  -4.537  0.00  0.00    +0.064 C 
ATOM     20  C   UNL     1       2.244  -6.534   0.225  0.00  0.00    +0.064 C 
BRANCH  14  24
ATOM     21  C   UNL     1       1.687  -1.798  -1.626  0.00  0.00    +0.121 A 
ATOM     22  C   UNL     1       0.781  -2.538  -0.881  0.00  0.00    +0.047 A 
ATOM     23  C   UNL     1       0.705  -3.906  -1.047  0.00  0.00    +0.030 A 
ATOM     24  C   UNL     1       1.535  -4.542  -1.961  0.00  0.00    +0.047 A 
ATOM     25  C   UNL     1       2.442  -3.800  -2.707  0.00  0.00    +0.030 A 
ATOM     26  C   UNL     1       2.513  -2.431  -2.544  0.00  0.00    +0.047 A 
BRANCH  21  27
ATOM     27  O   UNL     1       1.762  -0.450  -1.462  0.00  0.00    -0.492 OA
BRANCH  27  29
ATOM     28  C   UNL     1       1.110   1.648  -0.456  0.00  0.00    +0.048 C 
ATOM     29  C   UNL     1       0.882   0.136  -0.501  0.00  0.00    +0.225 C 
ENDBRANCH  27  29
ENDBRANCH  21  27
ENDBRANCH  14  24
ENDBRANCH   1  17
BRANCH  12  30
ATOM     30  S   UNL     1      -0.333 -13.881  -5.606  0.00  0.00    +0.029 S 
ATOM     31  O   UNL     1      -0.837 -15.170  -5.285  0.00  0.00    -0.167 OA
ATOM     32  O   UNL     1      -1.107 -12.716  -5.353  0.00  0.00    -0.167 OA
BRANCH  30  33
ATOM     33  C   UNL     1       0.286 -13.860  -7.311  0.00  0.00    +0.172 C 
ATOM     34  C   UNL     1      -0.886 -14.015  -8.282  0.00  0.00    +0.028 C 
ENDBRANCH  30  33
ENDBRANCH  12  30
TORSDOF 6
