REMARK  Name = ZINC39588702
REMARK  8 active torsions:
REMARK  status: ('A' for Active; 'I' for Inactive)
REMARK    1  A    between atoms: C_1  and  C_2
REMARK    2  A    between atoms: C_5  and  N_9
REMARK    3  A    between atoms: C_6  and  C_8
REMARK    4  A    between atoms: C_12  and  C_15
REMARK    5  A    between atoms: C_15  and  O_16
REMARK    6  A    between atoms: O_16  and  C_17
REMARK    7  A    between atoms: C_17  and  C_19
REMARK    8  A    between atoms: C_29  and  C_31
REMARK                            x       y       z     vdW  Elec       q    Type
REMARK                         _______ _______ _______ _____ _____    ______ ____
ROOT
ATOM      1  N   UNL     1       0.059  -4.171  -0.021  0.00  0.00    -0.219 N 
ATOM      2  C   UNL     1       1.274  -4.850  -0.031  0.00  0.00    +0.172 A 
ATOM      3  N   UNL     1       1.484  -6.149  -0.044  0.00  0.00    -0.226 NA
ATOM      4  C   UNL     1       2.708  -6.642  -0.052  0.00  0.00    +0.088 A 
ATOM      5  C   UNL     1       3.731  -5.752  -0.046  0.00  0.00    +0.075 A 
ATOM      6  S   UNL     1       2.830  -4.210  -0.036  0.00  0.00    -0.060 S 
ATOM      7  C   UNL     1      -1.098  -4.861  -0.019  0.00  0.00    +0.223 C 
ATOM      8  O   UNL     1      -1.082  -6.074  -0.025  0.00  0.00    -0.275 OA
ATOM      9  C   UNL     1      -2.414  -4.125  -0.008  0.00  0.00    +0.110 C 
ENDROOT
BRANCH   1  14
ATOM     10  C   UNL     1      -0.018   1.503   0.010  0.00  0.00    +0.044 C 
ATOM     11  C   UNL     1       0.002  -0.004   0.002  0.00  0.00    -0.050 A 
ATOM     12  C   UNL     1       0.006  -0.688  -1.200  0.00  0.00    +0.005 A 
ATOM     13  C   UNL     1       0.025  -2.068  -1.211  0.00  0.00    +0.024 A 
ATOM     14  C   UNL     1       0.041  -2.771  -0.013  0.00  0.00    +0.046 A 
ATOM     15  C   UNL     1       0.037  -2.082   1.192  0.00  0.00    -0.028 A 
ATOM     16  C   UNL     1       0.023  -0.700   1.196  0.00  0.00    +0.008 A 
ATOM     17  C   UNL     1       0.054  -2.840   2.494  0.00  0.00    +0.046 C 
ENDBRANCH   1  14
BRANCH   4  18
ATOM     18  C   UNL     1       2.958  -8.128  -0.067  0.00  0.00    +0.288 C 
BRANCH  18  19
ATOM     19  O   UNL     1       4.366  -8.374  -0.073  0.00  0.00    -0.454 OA
BRANCH  19  20
ATOM     20  C   UNL     1       4.762  -9.662  -0.086  0.00  0.00    +0.360 C 
ATOM     21  O   UNL     1       3.934 -10.552  -0.093  0.00  0.00    -0.243 OA
BRANCH  20  22
ATOM     22  C   UNL     1       6.197  -9.992  -0.093  0.00  0.00    +0.177 A 
ATOM     23  C   UNL     1       6.792 -11.335  -0.113  0.00  0.00    +0.034 A 
ATOM     24  C   UNL     1       6.304 -12.638  -0.131  0.00  0.00    +0.012 A 
ATOM     25  C   UNL     1       7.182 -13.686  -0.147  0.00  0.00    +0.001 A 
ATOM     26  C   UNL     1       8.552 -13.458  -0.146  0.00  0.00    +0.002 A 
ATOM     27  C   UNL     1       9.052 -12.186  -0.129  0.00  0.00    +0.028 A 
ATOM     28  C   UNL     1       8.181 -11.101  -0.112  0.00  0.00    +0.067 A 
ATOM     29  N   UNL     1       8.337  -9.740  -0.092  0.00  0.00    -0.276 N 
ATOM     30  H   UNL     1       9.195  -9.287  -0.088  0.00  0.00    +0.189 HD
ATOM     31  N   UNL     1       7.202  -9.141  -0.087  0.00  0.00    -0.166 NA
ENDBRANCH  20  22
ENDBRANCH  19  20
ENDBRANCH  18  19
ENDBRANCH   4  18
TORSDOF 5
