REMARK  Name = ZINC33905725
REMARK  10 active torsions:
REMARK  status: ('A' for Active; 'I' for Inactive)
REMARK    1  A    between atoms: C_1  and  O_2
REMARK    2  A    between atoms: O_2  and  C_3
REMARK    3  A    between atoms: C_7  and  C_17
REMARK    4  A    between atoms: C_8  and  O_9
REMARK    5  A    between atoms: O_9  and  C_10
REMARK    6  A    between atoms: C_10  and  C_11
REMARK    7  A    between atoms: N_25  and  C_28
REMARK    8  A    between atoms: C_34  and  C_36
REMARK    9  A    between atoms: C_34  and  C_38
REMARK   10  A    between atoms: C_36  and  O_37
REMARK                            x       y       z     vdW  Elec       q    Type
REMARK                         _______ _______ _______ _____ _____    ______ ____
ROOT
ATOM      1  C   UNL     1       1.394  -4.134   2.219  0.00  0.00    -0.023 C 
ATOM      2  C   UNL     1       0.144  -4.691   2.879  0.00  0.00    +0.077 C 
ATOM      3  C   UNL     1       0.607  -4.586   4.382  0.00  0.00    +0.088 C 
ATOM      4  C   UNL     1      -0.645  -4.723   5.084  0.00  0.00    +0.225 C 
ATOM      5  O   UNL     1      -0.834  -5.254   6.157  0.00  0.00    -0.275 OA
ATOM      6  N   UNL     1      -1.576  -4.120   4.274  0.00  0.00    -0.239 N 
ATOM      7  C   UNL     1      -1.104  -3.874   3.004  0.00  0.00    +0.225 C 
ATOM      8  O   UNL     1      -1.588  -3.147   2.164  0.00  0.00    -0.275 OA
ATOM      9  C   UNL     1       1.947  -5.196   4.332  0.00  0.00    +0.071 C 
ATOM     10  N   UNL     1       2.533  -4.564   3.086  0.00  0.00    +0.397 N 
ATOM     11  H   UNL     1       3.098  -5.242   2.597  0.00  0.00    -0.083 HD
ATOM     12  H   UNL     1       3.095  -3.763   3.333  0.00  0.00    -0.083 HD
ENDROOT
BRANCH   1  17
ATOM     13  C   UNL     1       0.713  -0.617   0.996  0.00  0.00    +0.162 A 
ATOM     14  C   UNL     1       1.202   0.137   2.051  0.00  0.00    +0.049 A 
ATOM     15  C   UNL     1       1.749  -0.492   3.154  0.00  0.00    +0.004 A 
ATOM     16  C   UNL     1       1.810  -1.872   3.208  0.00  0.00    +0.006 A 
ATOM     17  C   UNL     1       1.325  -2.630   2.158  0.00  0.00    -0.015 A 
ATOM     18  C   UNL     1       0.770  -2.006   1.052  0.00  0.00    +0.164 A 
BRANCH  13  20
ATOM     19  C   UNL     1       0.149   1.429  -0.078  0.00  0.00    +0.277 C 
ATOM     20  O   UNL     1       0.174   0.000  -0.090  0.00  0.00    -0.491 OA
ENDBRANCH  13  20
BRANCH  18  21
ATOM     21  O   UNL     1       0.287  -2.750   0.021  0.00  0.00    -0.484 OA
BRANCH  21  22
ATOM     22  C   UNL     1       1.202  -3.080  -1.025  0.00  0.00    +0.264 C 
BRANCH  22  23
ATOM     23  C   UNL     1       0.493  -3.901  -2.072  0.00  0.00    -0.010 A 
ATOM     24  C   UNL     1       0.466  -5.279  -1.968  0.00  0.00    +0.007 A 
ATOM     25  C   UNL     1      -0.184  -6.032  -2.927  0.00  0.00    +0.000 A 
ATOM     26  C   UNL     1      -0.807  -5.407  -3.991  0.00  0.00    +0.000 A 
ATOM     27  C   UNL     1      -0.781  -4.029  -4.095  0.00  0.00    +0.000 A 
ATOM     28  C   UNL     1      -0.135  -3.276  -3.133  0.00  0.00    +0.007 A 
ENDBRANCH  22  23
ENDBRANCH  21  22
ENDBRANCH  18  21
ENDBRANCH   1  17
BRANCH   6  29
ATOM     29  C   UNL     1      -2.934  -3.784   4.710  0.00  0.00    +0.084 C 
ATOM     30  C   UNL     1      -3.947  -4.520   3.830  0.00  0.00    +0.023 C 
ATOM     31  C   UNL     1      -5.365  -4.169   4.285  0.00  0.00    +0.002 C 
ATOM     32  C   UNL     1      -5.582  -2.660   4.160  0.00  0.00    +0.000 C 
ATOM     33  C   UNL     1      -4.569  -1.925   5.039  0.00  0.00    +0.002 C 
ATOM     34  C   UNL     1      -3.151  -2.275   4.585  0.00  0.00    +0.023 C 
ENDBRANCH   6  29
BRANCH   9  35
ATOM     35  C   UNL     1       1.849  -6.694   4.198  0.00  0.00    +0.348 C 
ATOM     36  O   UNL     1       2.339  -7.253   3.232  0.00  0.00    -0.248 OA
ATOM     37  O   UNL     1       1.279  -7.347   5.056  0.00  0.00    -0.248 OA
ENDBRANCH   9  35
BRANCH   9  38
ATOM     38  C   UNL     1       2.766  -4.811   5.565  0.00  0.00    +0.155 C 
BRANCH  38  39
ATOM     39  O   UNL     1       4.095  -5.320   5.432  0.00  0.00    -0.396 OA
ATOM     40  H   UNL     1       4.672  -5.113   6.180  0.00  0.00    +0.209 HD
ENDBRANCH  38  39
ENDBRANCH   9  38
TORSDOF 9
