REMARK  Name = ZINC34653650
REMARK  7 active torsions:
REMARK  status: ('A' for Active; 'I' for Inactive)
REMARK    1  A    between atoms: C_1  and  C_2
REMARK    2  A    between atoms: N_8  and  S_9
REMARK    3  A    between atoms: S_9  and  N_12
REMARK    4  A    between atoms: N_12  and  C_13
REMARK    5  A    between atoms: N_12  and  C_14
REMARK    6  A    between atoms: C_17  and  C_20
REMARK    7  A    between atoms: C_20  and  N_21
REMARK                            x       y       z     vdW  Elec       q    Type
REMARK                         _______ _______ _______ _____ _____    ______ ____
ROOT
ATOM      1  N   UNL     1       0.120   0.938   3.427  0.00  0.00    -0.196 N 
ATOM      2  C   UNL     1       0.104   0.129   4.648  0.00  0.00    +0.158 C 
ENDROOT
BRANCH   1   3
ATOM      3  C   UNL     1      -0.901   1.861   3.187  0.00  0.00    +0.052 A 
ATOM      4  C   UNL     1      -0.662   2.972   2.389  0.00  0.00    +0.025 A 
ATOM      5  C   UNL     1      -1.673   3.882   2.154  0.00  0.00    +0.003 A 
ATOM      6  C   UNL     1      -2.924   3.688   2.711  0.00  0.00    -0.065 A 
ATOM      7  C   UNL     1      -3.166   2.582   3.506  0.00  0.00    +0.003 A 
ATOM      8  C   UNL     1      -2.160   1.665   3.740  0.00  0.00    +0.025 A 
BRANCH   6   9
ATOM      9  C   UNL     1      -4.025   4.683   2.453  0.00  0.00    -0.051 C 
BRANCH   9  10
ATOM     10  N   UNL     1      -4.770   4.288   1.250  0.00  0.00    +0.381 N 
ATOM     11  H   UNL     1      -4.144   4.266   0.459  0.00  0.00    -0.090 HD
ATOM     12  H   UNL     1      -5.170   3.372   1.388  0.00  0.00    -0.090 HD
ATOM     13  H   UNL     1      -5.508   4.955   1.077  0.00  0.00    -0.090 HD
ENDBRANCH   9  10
ENDBRANCH   6   9
ENDBRANCH   1   3
BRANCH   1  14
ATOM     14  S   UNL     1       1.348   0.759   2.330  0.00  0.00    +0.114 S 
ATOM     15  O   UNL     1       2.203  -0.255   2.841  0.00  0.00    -0.138 OA
ATOM     16  O   UNL     1       1.814   2.066   2.026  0.00  0.00    -0.138 OA
BRANCH  14  23
ATOM     17  C   UNL     1       0.919  -2.023   2.030  0.00  0.00    +0.026 C 
ATOM     18  C   UNL     1       0.376  -1.273   0.812  0.00  0.00    +0.078 C 
ATOM     19  C   UNL     1       1.042  -1.810  -0.460  0.00  0.00    +0.020 C 
ATOM     20  C   UNL     1       0.600  -0.965  -1.657  0.00  0.00    +0.003 C 
ATOM     21  C   UNL     1       1.047   0.485  -1.453  0.00  0.00    +0.017 C 
ATOM     22  C   UNL     1       0.382   1.047  -0.193  0.00  0.00    +0.111 C 
ATOM     23  N   UNL     1       0.679   0.159   0.940  0.00  0.00    -0.161 NA
ENDBRANCH  14  23
ENDBRANCH   1  14
TORSDOF 5
