REMARK  Name = ZINC00706706
REMARK  5 active torsions:
REMARK  status: ('A' for Active; 'I' for Inactive)
REMARK    1  A    between atoms: C_1  and  O_2
REMARK    2  A    between atoms: O_2  and  C_3
REMARK    3  A    between atoms: C_6  and  C_9
REMARK    4  A    between atoms: C_12  and  C_22
REMARK    5  A    between atoms: C_12  and  O_26
REMARK                            x       y       z     vdW  Elec       q    Type
REMARK                         _______ _______ _______ _____ _____    ______ ____
ROOT
ATOM      1  C   UNL     1      -2.501   1.007   0.020  0.00  0.00    +0.269 C 
ATOM      2  O   UNL     1      -2.489  -0.206  -0.066  0.00  0.00    -0.268 OA
ATOM      3  N   UNL     1      -3.673   1.663   0.131  0.00  0.00    -0.148 N 
ATOM      4  C   UNL     1      -5.000   1.037   0.245  0.00  0.00    +0.259 C 
ATOM      5  C   UNL     1      -5.949   2.244   0.433  0.00  0.00    +0.096 C 
ATOM      6  C   UNL     1      -6.546   2.188   1.816  0.00  0.00    +0.014 C 
ATOM      7  C   UNL     1      -7.681   3.095   2.125  0.00  0.00    +0.001 C 
ATOM      8  C   UNL     1      -7.661   4.480   1.555  0.00  0.00    +0.000 C 
ATOM      9  C   UNL     1      -6.332   5.165   1.498  0.00  0.00    +0.006 C 
ATOM     10  C   UNL     1      -5.527   4.860   0.253  0.00  0.00    +0.053 C 
ATOM     11  C   UNL     1      -5.029   3.438   0.284  0.00  0.00    +0.045 C 
ATOM     12  N   UNL     1      -3.830   3.047   0.150  0.00  0.00    -0.183 NA
ENDROOT
BRANCH   1  16
ATOM     13  C   UNL     1       1.150   3.174  -0.036  0.00  0.00    +0.120 A 
ATOM     14  C   UNL     1       1.169   1.785  -0.007  0.00  0.00    +0.046 A 
ATOM     15  C   UNL     1      -0.013   1.078   0.015  0.00  0.00    +0.016 A 
ATOM     16  C   UNL     1      -1.232   1.760   0.002  0.00  0.00    +0.039 A 
ATOM     17  C   UNL     1      -1.247   3.157  -0.022  0.00  0.00    +0.016 A 
ATOM     18  C   UNL     1      -0.061   3.856  -0.044  0.00  0.00    +0.046 A 
BRANCH  13  20
ATOM     19  C   UNL     1       2.224   5.293  -0.088  0.00  0.00    +0.277 C 
ATOM     20  O   UNL     1       2.317   3.867  -0.058  0.00  0.00    -0.495 OA
ENDBRANCH  13  20
ENDBRANCH   1  16
BRANCH   4  21
ATOM     21  C   UNL     1      -5.345   0.269  -1.032  0.00  0.00    +0.438 C 
ATOM     22  F   UNL     1      -4.408  -0.751  -1.231  0.00  0.00    -0.166 F 
ATOM     23  F   UNL     1      -6.622  -0.289  -0.910  0.00  0.00    -0.166 F 
ATOM     24  F   UNL     1      -5.320   1.143  -2.124  0.00  0.00    -0.166 F 
ENDBRANCH   4  21
BRANCH   4  25
ATOM     25  O   UNL     1      -5.053   0.174   1.383  0.00  0.00    -0.363 OA
ATOM     26  H   UNL     1      -4.425  -0.560   1.350  0.00  0.00    +0.212 HD
ENDBRANCH   4  25
TORSDOF 4
