REMARK  Name = ZINC15016171
REMARK  7 active torsions:
REMARK  status: ('A' for Active; 'I' for Inactive)
REMARK    1  A    between atoms: C_1  and  O_2
REMARK    2  A    between atoms: O_2  and  C_3
REMARK    3  A    between atoms: C_5  and  C_12
REMARK    4  A    between atoms: C_7  and  O_10
REMARK    5  A    between atoms: C_8  and  O_9
REMARK    6  A    between atoms: O_10  and  C_11
REMARK    7  A    between atoms: C_18  and  C_20
REMARK                            x       y       z     vdW  Elec       q    Type
REMARK                         _______ _______ _______ _____ _____    ______ ____
ROOT
ATOM      1  C   UNL     1      -0.017   1.428   0.010  0.00  0.00    +0.311 C 
ATOM      2  N   UNL     1       1.387   1.858  -0.001  0.00  0.00    -0.205 N 
ATOM      3  C   UNL     1       2.327   1.399   1.047  0.00  0.00    +0.136 C 
ATOM      4  C   UNL     1       3.708   1.722   0.461  0.00  0.00    +0.087 C 
ATOM      5  C   UNL     1       3.392   2.590  -0.741  0.00  0.00    +0.075 C 
ATOM      6  N   UNL     1       2.110   2.625  -0.923  0.00  0.00    -0.184 NA
ATOM      7  C   UNL     1       2.109  -0.085   1.192  0.00  0.00    +0.017 A 
ATOM      8  C   UNL     1       3.056  -0.845   1.853  0.00  0.00    +0.009 A 
ATOM      9  C   UNL     1       2.859  -2.200   2.036  0.00  0.00    +0.001 A 
ATOM     10  C   UNL     1       1.709  -2.796   1.553  0.00  0.00    +0.004 A 
ATOM     11  C   UNL     1       0.767  -2.044   0.885  0.00  0.00    +0.046 A 
ATOM     12  C   UNL     1       0.961  -0.677   0.688  0.00  0.00    +0.129 A 
ATOM     13  O   UNL     1       0.002  -0.004   0.002  0.00  0.00    -0.465 OA
ENDROOT
BRANCH   1  16
ATOM     14  C   UNL     1      -2.747   2.635  -2.309  0.00  0.00    +0.165 A 
ATOM     15  C   UNL     1      -2.091   2.161  -1.183  0.00  0.00    +0.058 A 
ATOM     16  C   UNL     1      -0.726   1.943  -1.216  0.00  0.00    +0.020 A 
ATOM     17  C   UNL     1      -0.009   2.201  -2.369  0.00  0.00    +0.058 A 
ATOM     18  C   UNL     1      -0.658   2.670  -3.502  0.00  0.00    +0.165 A 
ATOM     19  C   UNL     1      -2.030   2.890  -3.472  0.00  0.00    +0.201 A 
BRANCH  14  21
ATOM     20  C   UNL     1      -4.761   2.565  -1.047  0.00  0.00    +0.277 C 
ATOM     21  O   UNL     1      -4.089   2.849  -2.275  0.00  0.00    -0.491 OA
ENDBRANCH  14  21
BRANCH  19  22
ATOM     22  O   UNL     1      -2.670   3.356  -4.579  0.00  0.00    -0.501 OA
ATOM     23  H   UNL     1      -2.715   4.321  -4.631  0.00  0.00    +0.292 HD
ENDBRANCH  19  22
BRANCH  18  24
ATOM     24  O   UNL     1       0.047   2.918  -4.638  0.00  0.00    -0.491 OA
ATOM     25  C   UNL     1       1.454   2.668  -4.595  0.00  0.00    +0.277 C 
ENDBRANCH  18  24
ENDBRANCH   1  16
BRANCH   5  26
ATOM     26  C   UNL     1       4.385   3.284  -1.569  0.00  0.00    +0.035 A 
ATOM     27  C   UNL     1       4.188   4.091  -2.675  0.00  0.00    +0.017 A 
ATOM     28  C   UNL     1       5.291   4.637  -3.293  0.00  0.00    +0.008 A 
ATOM     29  C   UNL     1       6.528   4.369  -2.801  0.00  0.00    +0.046 A 
ATOM     30  S   UNL     1       6.163   3.314  -1.408  0.00  0.00    -0.095 S 
ENDBRANCH   5  26
TORSDOF 5
