REMARK  Name = ZINC64605565
REMARK  6 active torsions:
REMARK  status: ('A' for Active; 'I' for Inactive)
REMARK    1  A    between atoms: C_1  and  C_2
REMARK    2  A    between atoms: C_5  and  C_7
REMARK    3  A    between atoms: C_7  and  N_8
REMARK    4  A    between atoms: C_9  and  C_11
REMARK    5  A    between atoms: C_11  and  C_12
REMARK    6  A    between atoms: C_18  and  C_20
REMARK                            x       y       z     vdW  Elec       q    Type
REMARK                         _______ _______ _______ _____ _____    ______ ____
ROOT
ATOM      1  C   UNL     1       4.073  -6.233  -3.096  0.00  0.00    +0.001 C 
ATOM      2  C   UNL     1       5.415  -5.817  -2.489  0.00  0.00    +0.023 C 
ATOM      3  C   UNL     1       6.358  -7.024  -2.469  0.00  0.00    +0.108 C 
ATOM      4  N   UNL     1       6.455  -7.571  -3.829  0.00  0.00    -0.300 N 
ATOM      5  C   UNL     1       5.217  -7.920  -4.540  0.00  0.00    +0.108 C 
ATOM      6  C   UNL     1       4.287  -6.702  -4.537  0.00  0.00    +0.023 C 
ATOM      7  C   UNL     1       7.656  -7.749  -4.414  0.00  0.00    +0.242 C 
ATOM      8  O   UNL     1       8.670  -7.457  -3.817  0.00  0.00    -0.273 OA
ENDROOT
BRANCH   7   9
ATOM      9  C   UNL     1       7.739  -8.311  -5.810  0.00  0.00    +0.190 C 
ATOM     10  C   UNL     1       7.169  -9.712  -5.843  0.00  0.00    +0.016 C 
ATOM     11  C   UNL     1       8.180 -10.518  -6.238  0.00  0.00    -0.002 A 
ATOM     12  C   UNL     1       8.267 -11.966  -6.462  0.00  0.00    +0.029 A 
ATOM     13  C   UNL     1       9.444 -12.498  -6.866  0.00  0.00    +0.042 A 
ATOM     14  C   UNL     1      10.579 -11.702  -7.076  0.00  0.00    +0.022 A 
ATOM     15  C   UNL     1      10.576 -10.365  -6.891  0.00  0.00    +0.027 A 
ATOM     16  C   UNL     1       9.393  -9.701  -6.466  0.00  0.00    +0.043 A 
ATOM     17  N   UNL     1       9.141  -8.436  -6.222  0.00  0.00    -0.370 N 
ATOM     18 CL   UNL     1       9.550 -14.211  -7.131  0.00  0.00    -0.084 Cl
ATOM     19  H   UNL     1       9.775  -7.706  -6.301  0.00  0.00    +0.161 HD
ENDBRANCH   7   9
BRANCH   1  20
ATOM     20  C   UNL     1       3.117  -5.038  -3.086  0.00  0.00    +0.099 C 
BRANCH  20  22
ATOM     21  N   UNL     1       1.983  -3.620  -1.407  0.00  0.00    -0.308 N 
ATOM     22  C   UNL     1       2.810  -4.653  -1.662  0.00  0.00    +0.214 C 
ATOM     23  O   UNL     1       3.307  -5.273  -0.746  0.00  0.00    -0.276 OA
ATOM     24  H   UNL     1       1.586  -3.124  -2.140  0.00  0.00    +0.149 HD
BRANCH  21  25
ATOM     25  C   UNL     1       1.684  -3.245  -0.023  0.00  0.00    +0.178 C 
BRANCH  25  30
ATOM     26  C   UNL     1      -0.018   1.503   0.010  0.00  0.00    +0.086 C 
ATOM     27  C   UNL     1       0.002  -0.004   0.002  0.00  0.00    +0.102 A 
ATOM     28  C   UNL     1      -1.078  -0.805   0.003  0.00  0.00    +0.045 A 
ATOM     29  C   UNL     1      -0.601  -2.136  -0.007  0.00  0.00    +0.046 A 
ATOM     30  C   UNL     1       0.742  -2.069  -0.013  0.00  0.00    +0.122 A 
ATOM     31  O   UNL     1       1.102  -0.775  -0.013  0.00  0.00    -0.463 OA
ENDBRANCH  25  30
ENDBRANCH  21  25
ENDBRANCH  20  22
ENDBRANCH   1  20
TORSDOF 5
