REMARK  Name = ZINC59115278
REMARK  13 active torsions:
REMARK  status: ('A' for Active; 'I' for Inactive)
REMARK    1  A    between atoms: C_1  and  C_2
REMARK    2  A    between atoms: C_2  and  O_3
REMARK    3  A    between atoms: O_3  and  C_4
REMARK    4  A    between atoms: C_7  and  C_13
REMARK    5  A    between atoms: C_9  and  O_10
REMARK    6  A    between atoms: O_10  and  C_11
REMARK    7  A    between atoms: C_11  and  C_12
REMARK    8  A    between atoms: C_13  and  C_14
REMARK    9  A    between atoms: C_14  and  N_15
REMARK   10  A    between atoms: N_15  and  C_16
REMARK   11  A    between atoms: C_16  and  N_18
REMARK   12  A    between atoms: N_18  and  N_19
REMARK   13  A    between atoms: N_19  and  C_20
REMARK                            x       y       z     vdW  Elec       q    Type
REMARK                         _______ _______ _______ _____ _____    ______ ____
ROOT
ATOM      1  N   UNL     1      -2.655  -8.050   1.428  0.00  0.00    -0.325 N 
ATOM      2  H   UNL     1      -2.652  -8.530   0.585  0.00  0.00    +0.148 HD
ENDROOT
BRANCH   1   3
ATOM      3  C   UNL     1      -2.597  -8.729   2.591  0.00  0.00    +0.147 C 
ATOM      4  S   UNL     1      -2.603  -7.882   4.078  0.00  0.00    -0.017 S 
BRANCH   3   5
ATOM      5  N   UNL     1      -2.535 -10.076   2.583  0.00  0.00    -0.248 N 
ATOM      6  H   UNL     1      -2.493 -10.564   3.420  0.00  0.00    +0.172 HD
BRANCH   5   7
ATOM      7  N   UNL     1      -2.530 -10.769   1.365  0.00  0.00    -0.262 N 
ATOM      8  H   UNL     1      -2.488 -10.280   0.529  0.00  0.00    +0.170 HD
BRANCH   7   9
ATOM      9  C   UNL     1      -2.586 -12.167   1.357  0.00  0.00    +0.081 A 
ATOM     10  C   UNL     1      -1.882 -12.886   0.398  0.00  0.00    +0.066 A 
ATOM     11  C   UNL     1      -1.939 -14.267   0.392  0.00  0.00    +0.042 A 
ATOM     12  C   UNL     1      -2.696 -14.934   1.339  0.00  0.00    +0.044 A 
ATOM     13  C   UNL     1      -3.398 -14.221   2.295  0.00  0.00    +0.042 A 
ATOM     14  C   UNL     1      -3.340 -12.840   2.310  0.00  0.00    +0.066 A 
ATOM     15 CL   UNL     1      -4.215 -11.947   3.514  0.00  0.00    -0.081 Cl
ATOM     16 CL   UNL     1      -2.766 -16.668   1.328  0.00  0.00    -0.083 Cl
ATOM     17 CL   UNL     1      -0.932 -12.050  -0.791  0.00  0.00    -0.081 Cl
ENDBRANCH   7   9
ENDBRANCH   5   7
ENDBRANCH   3   5
ENDBRANCH   1   3
BRANCH   1  18
ATOM     18  C   UNL     1      -2.723  -6.587   1.437  0.00  0.00    +0.108 C 
BRANCH  18  19
ATOM     19  C   UNL     1      -2.780  -6.070  -0.002  0.00  0.00    +0.054 C 
BRANCH  19  23
ATOM     20  C   UNL     1      -2.972  -1.798   0.024  0.00  0.00    +0.162 A 
ATOM     21  C   UNL     1      -1.744  -2.439  -0.008  0.00  0.00    +0.050 A 
ATOM     22  C   UNL     1      -1.685  -3.820  -0.016  0.00  0.00    +0.007 A 
ATOM     23  C   UNL     1      -2.849  -4.565   0.007  0.00  0.00    -0.042 A 
ATOM     24  C   UNL     1      -4.078  -3.932   0.038  0.00  0.00    +0.053 A 
ATOM     25  C   UNL     1      -4.144  -2.547   0.052  0.00  0.00    +0.162 A 
BRANCH  20  26
ATOM     26  O   UNL     1      -3.031  -0.439   0.032  0.00  0.00    -0.489 OA
BRANCH  26  28
ATOM     27  C   UNL     1      -2.054   1.771   0.015  0.00  0.00    +0.048 C 
ATOM     28  C   UNL     1      -1.788   0.265   0.001  0.00  0.00    +0.226 C 
ENDBRANCH  26  28
ENDBRANCH  20  26
BRANCH  25  29
ATOM     29  O   UNL     1      -5.351  -1.923   0.089  0.00  0.00    -0.489 OA
BRANCH  29  30
ATOM     30  C   UNL     1      -6.512  -2.756   0.117  0.00  0.00    +0.226 C 
ATOM     31  C   UNL     1      -7.767  -1.881   0.157  0.00  0.00    +0.048 C 
ENDBRANCH  29  30
ENDBRANCH  25  29
ENDBRANCH  19  23
ENDBRANCH  18  19
ENDBRANCH   1  18
TORSDOF 11
