REMARK  Name = ZINC39480612
REMARK  8 active torsions:
REMARK  status: ('A' for Active; 'I' for Inactive)
REMARK    1  A    between atoms: C_1  and  C_2
REMARK    2  A    between atoms: C_2  and  C_3
REMARK    3  A    between atoms: C_2  and  S_4
REMARK    4  A    between atoms: S_4  and  C_7
REMARK    5  A    between atoms: C_11  and  C_13
REMARK    6  A    between atoms: C_13  and  C_14
REMARK    7  A    between atoms: N_20  and  C_32
REMARK    8  A    between atoms: C_29  and  O_31
REMARK                            x       y       z     vdW  Elec       q    Type
REMARK                         _______ _______ _______ _____ _____    ______ ____
ROOT
ATOM      1  C   UNL     1      -2.084  -2.315   0.590  0.00  0.00    +0.089 A 
ATOM      2  C   UNL     1      -1.898  -2.946  -0.638  0.00  0.00    +0.033 A 
ATOM      3  C   UNL     1      -1.659  -4.271  -0.633  0.00  0.00    -0.015 A 
ATOM      4  C   UNL     1      -1.770  -5.038   0.521  0.00  0.00    +0.042 A 
ATOM      5  C   UNL     1      -1.772  -4.414   1.747  0.00  0.00    -0.020 A 
ATOM      6  C   UNL     1      -1.945  -3.035   1.766  0.00  0.00    +0.032 A 
ATOM      7  N   UNL     1      -2.341  -6.282   0.300  0.00  0.00    -0.286 N 
ATOM      8  C   UNL     1      -2.194  -7.468   0.964  0.00  0.00    +0.156 A 
ATOM      9  C   UNL     1      -1.550  -8.296  -0.077  0.00  0.00    +0.144 A 
ATOM     10  C   UNL     1      -1.227  -9.570   0.241  0.00  0.00    +0.160 A 
ATOM     11  N   UNL     1      -1.512 -10.018   1.467  0.00  0.00    -0.222 NA
ATOM     12  C   UNL     1      -2.097  -9.247   2.363  0.00  0.00    +0.225 A 
ATOM     13  N   UNL     1      -2.432  -7.986   2.107  0.00  0.00    -0.218 NA
ATOM     14 CL   UNL     1      -0.458 -10.605  -0.922  0.00  0.00    -0.060 Cl
ATOM     15  N   UNL     1      -1.450  -7.507  -1.180  0.00  0.00    -0.211 NA
ATOM     16  C   UNL     1      -0.801  -6.402  -1.030  0.00  0.00    +0.192 C 
ATOM     17  C   UNL     1      -1.023  -5.095  -1.783  0.00  0.00    +0.132 C 
ATOM     18  C   UNL     1      -3.259  -6.336  -0.841  0.00  0.00    +0.137 C 
ENDROOT
BRANCH   1  19
ATOM     19  S   UNL     1      -2.490  -0.601   0.649  0.00  0.00    -0.001 S 
ATOM     20  O   UNL     1      -3.180  -0.434   1.879  0.00  0.00    -0.169 OA
ATOM     21  O   UNL     1      -3.139  -0.340  -0.588  0.00  0.00    -0.169 OA
BRANCH  19  23
ATOM     22  C   UNL     1      -1.123   1.756   0.888  0.00  0.00    +0.032 C 
ATOM     23  C   UNL     1      -0.891   0.254   0.709  0.00  0.00    +0.130 C 
ATOM     24  C   UNL     1      -0.071  -0.279   1.885  0.00  0.00    +0.032 C 
ENDBRANCH  19  23
ENDBRANCH   1  19
BRANCH  16  25
ATOM     25  O   UNL     1       0.182  -6.404  -0.105  0.00  0.00    -0.495 OA
ATOM     26  H   UNL     1       0.292  -7.249   0.351  0.00  0.00    +0.293 HD
ENDBRANCH  16  25
BRANCH   5  27
ATOM     27  C   UNL     1      -1.587  -5.196   3.022  0.00  0.00    +0.072 C 
BRANCH  27  28
ATOM     28  C   UNL     1      -0.116  -5.379   3.290  0.00  0.00    -0.043 A 
ATOM     29  C   UNL     1       0.548  -6.481   2.784  0.00  0.00    +0.004 A 
ATOM     30  C   UNL     1       1.898  -6.649   3.031  0.00  0.00    +0.000 A 
ATOM     31  C   UNL     1       2.584  -5.714   3.783  0.00  0.00    +0.000 A 
ATOM     32  C   UNL     1       1.921  -4.611   4.288  0.00  0.00    +0.000 A 
ATOM     33  C   UNL     1       0.572  -4.442   4.038  0.00  0.00    +0.004 A 
ENDBRANCH  27  28
ENDBRANCH   5  27
TORSDOF 5
