REMARK  Name = ZINC40988175
REMARK  6 active torsions:
REMARK  status: ('A' for Active; 'I' for Inactive)
REMARK    1  A    between atoms: C_1  and  C_2
REMARK    2  A    between atoms: C_6  and  C_7
REMARK    3  A    between atoms: C_7  and  N_8
REMARK    4  A    between atoms: N_8  and  C_9
REMARK    5  A    between atoms: C_17  and  C_19
REMARK    6  A    between atoms: N_22  and  C_24
REMARK                            x       y       z     vdW  Elec       q    Type
REMARK                         _______ _______ _______ _____ _____    ______ ____
ROOT
ATOM      1  N   UNL     1      -0.567   1.460   3.754  0.00  0.00    -0.287 N 
ATOM      2  C   UNL     1      -1.738   1.471   3.088  0.00  0.00    +0.268 C 
ATOM      3  O   UNL     1      -1.811   0.983   1.977  0.00  0.00    -0.268 OA
ENDROOT
BRANCH   2   4
ATOM      4  C   UNL     1      -2.935   2.076   3.708  0.00  0.00    +0.151 A 
ATOM      5  C   UNL     1      -3.480   3.339   3.424  0.00  0.00    +0.006 A 
ATOM      6  C   UNL     1      -4.563   3.467   4.228  0.00  0.00    +0.044 A 
ATOM      7  N   UNL     1      -4.658   2.338   4.950  0.00  0.00    -0.263 N 
ATOM      8  N   UNL     1      -3.705   1.531   4.635  0.00  0.00    -0.166 NA
ATOM      9  C   UNL     1      -5.451   4.685   4.255  0.00  0.00    +0.055 C 
ATOM     10  C   UNL     1      -4.705   5.841   3.577  0.00  0.00    +0.006 C 
ATOM     11  C   UNL     1      -4.160   5.379   2.223  0.00  0.00    +0.005 C 
ATOM     12  C   UNL     1      -3.015   4.381   2.444  0.00  0.00    +0.039 C 
BRANCH   7  13
ATOM     13  C   UNL     1      -5.696   2.063   5.947  0.00  0.00    +0.130 C 
ATOM     14  C   UNL     1      -6.393   0.736   5.604  0.00  0.00    +0.051 C 
ATOM     15  C   UNL     1      -7.257   0.314   6.827  0.00  0.00    +0.168 C 
ATOM     16  S   UNL     1      -6.121   0.750   8.210  0.00  0.00    -0.029 S 
ATOM     17  O   UNL     1      -5.342  -0.390   8.546  0.00  0.00    -0.174 OA
ATOM     18  O   UNL     1      -6.861   1.414   9.225  0.00  0.00    -0.174 OA
ATOM     19  C   UNL     1      -5.050   1.972   7.350  0.00  0.00    +0.192 C 
ENDBRANCH   7  13
ENDBRANCH   2   4
BRANCH   1  20
ATOM     20  C   UNL     1      -0.508   1.928   5.141  0.00  0.00    +0.099 C 
ATOM     21  C   UNL     1      -1.370   1.019   6.032  0.00  0.00    +0.047 C 
ATOM     22  C   UNL     1      -1.575   1.678   7.417  0.00  0.00    +0.168 C 
ATOM     23  S   UNL     1      -1.458   3.473   7.032  0.00  0.00    -0.029 S 
ATOM     24  O   UNL     1      -0.337   4.020   7.713  0.00  0.00    -0.174 OA
ATOM     25  O   UNL     1      -2.738   4.066   7.201  0.00  0.00    -0.174 OA
ATOM     26  C   UNL     1      -1.075   3.374   5.232  0.00  0.00    +0.188 C 
ENDBRANCH   1  20
BRANCH   1  27
ATOM     27  C   UNL     1       0.648   0.981   3.090  0.00  0.00    +0.151 C 
BRANCH  27  33
ATOM     28  C   UNL     1      -0.040  -1.221   1.062  0.00  0.00    +0.044 C 
ATOM     29  C   UNL     1       0.494  -1.516   2.441  0.00  0.00    -0.039 A 
ATOM     30  C   UNL     1       0.702  -2.820   2.848  0.00  0.00    +0.011 A 
ATOM     31  C   UNL     1       1.183  -3.050   4.095  0.00  0.00    +0.046 A 
ATOM     32  S   UNL     1       1.356  -1.393   4.736  0.00  0.00    -0.100 S 
ATOM     33  C   UNL     1       0.781  -0.506   3.298  0.00  0.00    +0.010 A 
ENDBRANCH  27  33
ENDBRANCH   1  27
TORSDOF 5
