REMARK  Name = ZINC33370550
REMARK  8 active torsions:
REMARK  status: ('A' for Active; 'I' for Inactive)
REMARK    1  A    between atoms: C_1  and  C_2
REMARK    2  A    between atoms: C_7  and  N_8
REMARK    3  A    between atoms: C_9  and  C_11
REMARK    4  A    between atoms: C_14  and  C_30
REMARK    5  A    between atoms: C_15  and  C_16
REMARK    6  A    between atoms: C_15  and  C_17
REMARK    7  A    between atoms: C_23  and  C_29
REMARK    8  A    between atoms: C_24  and  C_28
REMARK                            x       y       z     vdW  Elec       q    Type
REMARK                         _______ _______ _______ _____ _____    ______ ____
ROOT
ATOM      1  C   UNL     1      -2.386   1.813   2.856  0.00  0.00    +0.097 C 
ATOM      2  C   UNL     1      -2.035   3.287   2.479  0.00  0.00    +0.024 C 
ATOM      3  C   UNL     1      -0.909   3.151   1.397  0.00  0.00    +0.015 C 
ATOM      4  C   UNL     1      -0.739   1.605   1.254  0.00  0.00    +0.018 C 
ATOM      5  C   UNL     1      -2.220   1.116   1.456  0.00  0.00    -0.005 C 
ATOM      6  C   UNL     1      -3.171   1.691   0.404  0.00  0.00    +0.013 C 
ATOM      7  C   UNL     1      -2.321  -0.408   1.549  0.00  0.00    +0.013 C 
ATOM      8  C   UNL     1      -0.129   1.167   2.588  0.00  0.00    +0.071 A 
ATOM      9  C   UNL     1      -1.131   1.295   3.563  0.00  0.00    +0.079 A 
ATOM     10  N   UNL     1      -0.894   0.990   4.811  0.00  0.00    -0.247 NA
ATOM     11  C   UNL     1       0.320   0.546   5.162  0.00  0.00    +0.090 A 
ATOM     12  C   UNL     1       0.610   0.207   6.495  0.00  0.00    +0.033 A 
ATOM     13  C   UNL     1       1.850  -0.246   6.822  0.00  0.00    -0.045 A 
ATOM     14  C   UNL     1       2.843  -0.380   5.852  0.00  0.00    -0.045 A 
ATOM     15  C   UNL     1       2.600  -0.060   4.552  0.00  0.00    +0.033 A 
ATOM     16  C   UNL     1       1.331   0.413   4.177  0.00  0.00    +0.090 A 
ATOM     17  N   UNL     1       1.063   0.737   2.905  0.00  0.00    -0.248 NA
ATOM     18  C   UNL     1       4.205  -0.888   6.250  0.00  0.00    +0.044 C 
ATOM     19  C   UNL     1       2.156  -0.610   8.252  0.00  0.00    +0.044 C 
ATOM     20  C   UNL     1      -0.024   1.118  -0.009  0.00  0.00    +0.018 C 
ENDROOT
BRANCH   1  22
ATOM     21  N   UNL     1      -3.888   2.162   4.790  0.00  0.00    -0.284 N 
ATOM     22  C   UNL     1      -3.692   1.604   3.579  0.00  0.00    +0.230 C 
ATOM     23  O   UNL     1      -4.566   0.934   3.071  0.00  0.00    -0.274 OA
ATOM     24  H   UNL     1      -3.065   2.693   5.291  0.00  0.00    +0.155 HD
BRANCH  21  31
ATOM     25  C   UNL     1      -4.000   2.361   7.626  0.00  0.00    +0.046 C 
ATOM     26  C   UNL     1      -5.239   2.158   6.792  0.00  0.00    -0.028 A 
ATOM     27  C   UNL     1      -6.475   2.063   7.402  0.00  0.00    +0.025 A 
ATOM     28  C   UNL     1      -7.613   1.877   6.637  0.00  0.00    +0.041 A 
ATOM     29  C   UNL     1      -7.516   1.784   5.259  0.00  0.00    +0.022 A 
ATOM     30  C   UNL     1      -6.284   1.884   4.644  0.00  0.00    +0.025 A 
ATOM     31  C   UNL     1      -5.139   2.066   5.410  0.00  0.00    +0.036 A 
ATOM     32 CL   UNL     1      -9.164   1.758   7.406  0.00  0.00    -0.084 Cl
ENDBRANCH  21  31
ENDBRANCH   1  22
TORSDOF 2
