REMARK  Name = ZINC08447472
REMARK  4 active torsions:
REMARK  status: ('A' for Active; 'I' for Inactive)
REMARK    1  A    between atoms: C_7  and  C_15
REMARK    2  A    between atoms: C_15  and  O_17
REMARK    3  A    between atoms: O_17  and  C_18
REMARK    4  A    between atoms: C_18  and  C_19
REMARK                            x       y       z     vdW  Elec       q    Type
REMARK                         _______ _______ _______ _____ _____    ______ ____
ROOT
ATOM      1  C   UNL     1      -2.495   5.613   0.060  0.00  0.00    +0.001 A 
ATOM      2  C   UNL     1      -1.292   6.315   0.056  0.00  0.00    +0.002 A 
ATOM      3  C   UNL     1      -0.098   5.662   0.043  0.00  0.00    +0.028 A 
ATOM      4  C   UNL     1      -0.072   4.255   0.032  0.00  0.00    +0.072 A 
ATOM      5  C   UNL     1      -1.299   3.546   0.037  0.00  0.00    +0.015 A 
ATOM      6  C   UNL     1      -2.509   4.250   0.051  0.00  0.00    +0.011 A 
ATOM      7  C   UNL     1      -1.263   2.131   0.032  0.00  0.00    +0.073 A 
ATOM      8  C   UNL     1      -0.018   1.501   0.010  0.00  0.00    -0.012 A 
ATOM      9  C   UNL     1       1.139   2.268   0.003  0.00  0.00    +0.046 A 
ATOM     10  N   UNL     1       1.079   3.587   0.017  0.00  0.00    -0.251 NA
ATOM     11  C   UNL     1       2.512   1.644  -0.024  0.00  0.00    +0.056 C 
ATOM     12  C   UNL     1       2.445   0.178   0.398  0.00  0.00    +0.006 C 
ATOM     13  C   UNL     1       1.369  -0.519  -0.443  0.00  0.00    +0.005 C 
ATOM     14  C   UNL     1       0.002  -0.004   0.002  0.00  0.00    +0.038 C 
ENDROOT
BRANCH   7  15
ATOM     15  C   UNL     1      -2.512   1.341   0.043  0.00  0.00    +0.341 C 
ATOM     16  O   UNL     1      -3.011   1.009   1.100  0.00  0.00    -0.245 OA
BRANCH  15  17
ATOM     17  O   UNL     1      -3.097   0.989  -1.118  0.00  0.00    -0.452 OA
BRANCH  17  18
ATOM     18  C   UNL     1      -4.321   0.213  -1.030  0.00  0.00    +0.328 C 
BRANCH  18  19
ATOM     19  C   UNL     1      -4.827  -0.085  -2.418  0.00  0.00    +0.235 A 
ATOM     20  N   UNL     1      -4.502  -1.130  -3.118  0.00  0.00    -0.210 NA
ATOM     21  C   UNL     1      -5.146  -1.073  -4.316  0.00  0.00    +0.110 A 
ATOM     22  C   UNL     1      -5.176  -1.904  -5.437  0.00  0.00    +0.031 A 
ATOM     23  C   UNL     1      -5.944  -1.556  -6.525  0.00  0.00    +0.002 A 
ATOM     24  C   UNL     1      -6.688  -0.385  -6.513  0.00  0.00    +0.004 A 
ATOM     25  C   UNL     1      -6.668   0.445  -5.412  0.00  0.00    +0.048 A 
ATOM     26  C   UNL     1      -5.900   0.110  -4.308  0.00  0.00    +0.155 A 
ATOM     27  O   UNL     1      -5.673   0.694  -3.111  0.00  0.00    -0.436 OA
ENDBRANCH  18  19
ENDBRANCH  17  18
ENDBRANCH  15  17
ENDBRANCH   7  15
TORSDOF 4
