REMARK  Name = ZINC05531338
REMARK  4 active torsions:
REMARK  status: ('A' for Active; 'I' for Inactive)
REMARK    1  A    between atoms: C_1  and  C_2
REMARK    2  A    between atoms: C_2  and  C_4
REMARK    3  A    between atoms: C_2  and  O_10
REMARK    4  A    between atoms: C_5  and  C_6
REMARK                            x       y       z     vdW  Elec       q    Type
REMARK                         _______ _______ _______ _____ _____    ______ ____
ROOT
ATOM      1  C   UNL     1      -1.255   2.248   2.187  0.00  0.00    -0.063 C 
ATOM      2  C   UNL     1      -0.706   1.869   1.221  0.00  0.00    +0.011 C 
ENDROOT
BRANCH   2   3
ATOM      3  C   UNL     1      -0.017   1.395   0.010  0.00  0.00    +0.459 C 
ATOM      4  F   UNL     1       0.002  -0.004   0.002  0.00  0.00    -0.159 F 
ATOM      5  F   UNL     1       1.296   1.879  -0.000  0.00  0.00    -0.159 F 
ATOM      6  F   UNL     1      -0.694   1.858  -1.124  0.00  0.00    -0.159 F 
ENDBRANCH   2   3
BRANCH   1   8
ATOM      7  C   UNL     1      -3.380   2.193   3.409  0.00  0.00    +0.052 C 
ATOM      8  C   UNL     1      -1.944   2.723   3.398  0.00  0.00    +0.186 C 
BRANCH   8   9
ATOM      9  O   UNL     1      -1.253   2.249   4.556  0.00  0.00    -0.380 OA
ATOM     10  H   UNL     1      -1.201   1.286   4.616  0.00  0.00    +0.211 HD
ENDBRANCH   8   9
ENDBRANCH   1   8
TORSDOF 3
