REMARK  Name = ZINC37365737
REMARK  7 active torsions:
REMARK  status: ('A' for Active; 'I' for Inactive)
REMARK    1  A    between atoms: C_1  and  O_2
REMARK    2  A    between atoms: O_2  and  C_3
REMARK    3  A    between atoms: C_6  and  C_11
REMARK    4  A    between atoms: C_7  and  O_9
REMARK    5  A    between atoms: O_9  and  C_10
REMARK    6  A    between atoms: C_11  and  C_13
REMARK    7  A    between atoms: C_11  and  N_21
REMARK                            x       y       z     vdW  Elec       q    Type
REMARK                         _______ _______ _______ _____ _____    ______ ____
ROOT
ATOM      1  C   UNL     1       2.593  -2.541   4.316  0.00  0.00    -0.008 C 
ENDROOT
BRANCH   1   2
ATOM      2  C   UNL     1       3.527  -1.565   4.984  0.00  0.00    -0.039 A 
ATOM      3  C   UNL     1       3.189  -1.008   6.203  0.00  0.00    +0.005 A 
ATOM      4  C   UNL     1       4.046  -0.113   6.815  0.00  0.00    +0.015 A 
ATOM      5  C   UNL     1       5.242   0.226   6.208  0.00  0.00    +0.019 A 
ATOM      6  C   UNL     1       5.581  -0.332   4.989  0.00  0.00    +0.035 A 
ATOM      7  C   UNL     1       4.726  -1.232   4.379  0.00  0.00    +0.044 A 
ATOM      8 CL   UNL     1       5.153  -1.936   2.851  0.00  0.00    -0.083 Cl
ATOM      9 BR   UNL     1       6.414   1.451   7.046  0.00  0.00    -0.050 Br
ENDBRANCH   1   2
BRANCH   1  13
ATOM     10  C   UNL     1       0.081  -0.450   1.558  0.00  0.00    +0.124 A 
ATOM     11  C   UNL     1       0.779   0.248   2.534  0.00  0.00    +0.046 A 
ATOM     12  C   UNL     1       1.589  -0.430   3.424  0.00  0.00    +0.009 A 
ATOM     13  C   UNL     1       1.707  -1.805   3.345  0.00  0.00    -0.016 A 
ATOM     14  C   UNL     1       1.011  -2.507   2.371  0.00  0.00    +0.125 A 
ATOM     15  C   UNL     1       0.193  -1.829   1.481  0.00  0.00    +0.091 A 
BRANCH  10  17
ATOM     16  C   UNL     1      -0.784   1.639   0.821  0.00  0.00    +0.277 C 
ATOM     17  O   UNL     1      -0.716   0.218   0.683  0.00  0.00    -0.495 OA
ENDBRANCH  10  17
BRANCH  14  18
ATOM     18  O   UNL     1       1.128  -3.859   2.294  0.00  0.00    -0.495 OA
ATOM     19  C   UNL     1       0.383  -4.517   1.267  0.00  0.00    +0.277 C 
ENDBRANCH  14  18
ENDBRANCH   1  13
BRANCH   1  20
ATOM     20  N   UNL     1       1.762  -3.198   5.335  0.00  0.00    +0.385 N 
ATOM     21  H   UNL     1       2.355  -3.692   5.985  0.00  0.00    -0.089 HD
ATOM     22  H   UNL     1       1.225  -2.503   5.830  0.00  0.00    -0.089 HD
ATOM     23  H   UNL     1       1.136  -3.852   4.888  0.00  0.00    -0.089 HD
ENDBRANCH   1  20
TORSDOF 5
