REMARK  Name = ZINC36206441
REMARK  18 active torsions:
REMARK  status: ('A' for Active; 'I' for Inactive)
REMARK    1  A    between atoms: C_1  and  C_2
REMARK    2  A    between atoms: C_5  and  C_9
REMARK    3  A    between atoms: C_6  and  C_8
REMARK    4  A    between atoms: C_18  and  C_20
REMARK    5  A    between atoms: C_20  and  N_21
REMARK    6  A    between atoms: N_21  and  C_22
REMARK    7  A    between atoms: N_21  and  C_32
REMARK    8  A    between atoms: C_22  and  C_23
REMARK    9  A    between atoms: C_23  and  C_25
REMARK   10  A    between atoms: C_23  and  O_31
REMARK   11  A    between atoms: C_25  and  O_26
REMARK   12  A    between atoms: O_26  and  C_27
REMARK   13  A    between atoms: C_27  and  C_28
REMARK   14  A    between atoms: C_27  and  C_29
REMARK   15  A    between atoms: C_27  and  C_30
REMARK   16  A    between atoms: C_32  and  C_33
REMARK   17  A    between atoms: C_33  and  C_34
REMARK   18  A    between atoms: C_33  and  C_35
REMARK                            x       y       z     vdW  Elec       q    Type
REMARK                         _______ _______ _______ _____ _____    ______ ____
ROOT
ATOM      1  C   UNL     1      -5.035  -7.885   7.379  0.00  0.00    +0.004 A 
ATOM      2  C   UNL     1      -4.478  -8.935   8.030  0.00  0.00    +0.056 A 
ATOM      3  S   UNL     1      -3.734  -9.885   6.718  0.00  0.00    -0.076 S 
ATOM      4  C   UNL     1      -4.182  -8.861   5.341  0.00  0.00    +0.116 A 
ATOM      5  C   UNL     1      -4.904  -7.809   5.929  0.00  0.00    +0.080 A 
ATOM      6  C   UNL     1      -5.400  -6.817   5.025  0.00  0.00    +0.260 A 
ATOM      7  O   UNL     1      -6.035  -5.862   5.441  0.00  0.00    -0.267 OA
ATOM      8  N   UNL     1      -5.156  -6.953   3.708  0.00  0.00    -0.312 N 
ATOM      9  H   UNL     1      -5.490  -6.283   3.091  0.00  0.00    +0.170 HD
ATOM     10  C   UNL     1      -4.451  -8.008   3.227  0.00  0.00    +0.094 A 
ATOM     11  N   UNL     1      -3.976  -8.925   4.028  0.00  0.00    -0.229 NA
ENDROOT
BRANCH   1  16
ATOM     12  C   UNL     1      -7.882  -3.809  10.283  0.00  0.00    +0.044 C 
ATOM     13  C   UNL     1      -7.137  -4.876   9.523  0.00  0.00    -0.050 A 
ATOM     14  C   UNL     1      -5.778  -5.042   9.723  0.00  0.00    +0.004 A 
ATOM     15  C   UNL     1      -5.090  -6.017   9.030  0.00  0.00    +0.009 A 
ATOM     16  C   UNL     1      -5.768  -6.836   8.127  0.00  0.00    -0.014 A 
ATOM     17  C   UNL     1      -7.137  -6.663   7.929  0.00  0.00    -0.042 A 
ATOM     18  C   UNL     1      -7.815  -5.688   8.632  0.00  0.00    +0.007 A 
ATOM     19  C   UNL     1      -7.876  -7.544   6.955  0.00  0.00    +0.044 C 
ENDBRANCH   1  16
BRANCH  10  20
ATOM     20  C   UNL     1      -4.202  -8.118   1.745  0.00  0.00    -0.003 C 
BRANCH  20  21
ATOM     21  N   UNL     1      -3.533  -9.394   1.455  0.00  0.00    +0.386 N 
ATOM     22  H   UNL     1      -2.709  -9.480   2.030  0.00  0.00    -0.081 HD
BRANCH  21  23
ATOM     23  C   UNL     1      -4.450 -10.504   1.742  0.00  0.00    -0.044 C 
BRANCH  23  24
ATOM     24  C   UNL     1      -3.715 -11.834   1.560  0.00  0.00    +0.124 C 
BRANCH  24  25
ATOM     25  O   UNL     1      -2.674 -11.940   2.534  0.00  0.00    -0.391 OA
ATOM     26  H   UNL     1      -2.987 -11.911   3.448  0.00  0.00    +0.210 HD
ENDBRANCH  24  25
BRANCH  24  27
ATOM     27  C   UNL     1      -4.700 -12.990   1.737  0.00  0.00    +0.189 C 
BRANCH  27  28
ATOM     28  O   UNL     1      -4.041 -14.226   1.452  0.00  0.00    -0.372 OA
BRANCH  28  29
ATOM     29  C   UNL     1      -4.877 -15.376   1.589  0.00  0.00    +0.061 C 
ATOM     30  C   UNL     1      -6.061 -15.264   0.626  0.00  0.00    +0.041 C 
ATOM     31  C   UNL     1      -4.072 -16.635   1.262  0.00  0.00    +0.041 C 
ATOM     32  C   UNL     1      -5.396 -15.462   3.026  0.00  0.00    +0.041 C 
ENDBRANCH  28  29
ENDBRANCH  27  28
ENDBRANCH  24  27
ENDBRANCH  23  24
ENDBRANCH  21  23
BRANCH  21  33
ATOM     33  C   UNL     1      -3.146  -9.432   0.038  0.00  0.00    -0.075 C 
BRANCH  33  34
ATOM     34  C   UNL     1      -2.077  -8.371  -0.228  0.00  0.00    -0.034 C 
ATOM     35  C   UNL     1      -0.802  -8.728   0.539  0.00  0.00    +0.005 C 
ATOM     36  C   UNL     1      -1.772  -8.318  -1.727  0.00  0.00    +0.005 C 
ENDBRANCH  33  34
ENDBRANCH  21  33
ENDBRANCH  20  21
ENDBRANCH  10  20
TORSDOF 11
