REMARK  Name = ZINC28119614
REMARK  9 active torsions:
REMARK  status: ('A' for Active; 'I' for Inactive)
REMARK    1  A    between atoms: C_1  and  C_2
REMARK    2  A    between atoms: C_4  and  N_29
REMARK    3  A    between atoms: C_7  and  N_8
REMARK    4  A    between atoms: C_9  and  C_11
REMARK    5  A    between atoms: C_11  and  C_13
REMARK    6  A    between atoms: C_11  and  S_14
REMARK    7  A    between atoms: S_14  and  C_15
REMARK    8  A    between atoms: N_20  and  C_21
REMARK    9  A    between atoms: C_21  and  C_22
REMARK                            x       y       z     vdW  Elec       q    Type
REMARK                         _______ _______ _______ _____ _____    ______ ____
ROOT
ATOM      1  C   UNL     1       0.575  -5.299  -0.018  0.00  0.00    +0.136 C 
ATOM      2  C   UNL     1       1.323  -5.036  -1.327  0.00  0.00    +0.029 C 
ENDROOT
BRANCH   1   4
ATOM      3  N   UNL     1       1.165  -7.623   0.589  0.00  0.00    -0.284 N 
ATOM      4  C   UNL     1       0.252  -6.767   0.089  0.00  0.00    +0.230 C 
ATOM      5  O   UNL     1      -0.830  -7.178  -0.273  0.00  0.00    -0.274 OA
ATOM      6  H   UNL     1       2.176  -7.268   0.833  0.00  0.00    +0.155 HD
BRANCH   3  13
ATOM      7  C   UNL     1       3.254  -9.555   0.579  0.00  0.00    +0.046 C 
ATOM      8  C   UNL     1       1.813  -9.940   0.800  0.00  0.00    -0.027 A 
ATOM      9  C   UNL     1       1.476 -11.263   1.011  0.00  0.00    +0.038 A 
ATOM     10  C   UNL     1       0.154 -11.617   1.209  0.00  0.00    +0.127 A 
ATOM     11  C   UNL     1      -0.833 -10.649   1.201  0.00  0.00    +0.034 A 
ATOM     12  C   UNL     1      -0.502  -9.324   0.996  0.00  0.00    +0.026 A 
ATOM     13  C   UNL     1       0.825  -8.965   0.797  0.00  0.00    +0.036 A 
BRANCH  10  14
ATOM     14  N   UNL     1      -0.205 -13.036   1.428  0.00  0.00    +0.056 N 
ATOM     15  O   UNL     1      -1.369 -13.350   1.602  0.00  0.00    -0.126 OA
ATOM     16  O   UNL     1       0.663 -13.890   1.435  0.00  0.00    -0.126 OA
ENDBRANCH  10  14
ENDBRANCH   3  13
ENDBRANCH   1   4
BRANCH   1  17
ATOM     17  S   UNL     1      -0.963  -4.338   0.003  0.00  0.00    -0.084 S 
BRANCH  17  18
ATOM     18  C   UNL     1      -0.418  -2.662   0.020  0.00  0.00    +0.161 A 
ATOM     19  N   UNL     1       0.811  -2.183   0.019  0.00  0.00    -0.133 NA
ATOM     20  N   UNL     1       1.015  -0.822   0.034  0.00  0.00    -0.125 NA
ATOM     21  C   UNL     1      -0.019  -0.004   0.050  0.00  0.00    +0.183 A 
ATOM     22  S   UNL     1      -1.382  -1.158   0.052  0.00  0.00    -0.025 S 
ATOM     23  N   UNL     1      -0.042   1.386   0.068  0.00  0.00    -0.318 N 
ATOM     24  H   UNL     1      -1.003   1.920   0.080  0.00  0.00    +0.148 HD
BRANCH  23  25
ATOM     25  C   UNL     1       1.215   2.139   0.069  0.00  0.00    +0.138 C 
BRANCH  25  26
ATOM     26  C   UNL     1       0.915   3.616   0.088  0.00  0.00    -0.030 A 
ATOM     27  C   UNL     1       0.775   4.309  -1.100  0.00  0.00    +0.008 A 
ATOM     28  C   UNL     1       0.495   5.662  -1.083  0.00  0.00    +0.038 A 
ATOM     29  C   UNL     1       0.365   6.326   0.125  0.00  0.00    +0.123 A 
ATOM     30  C   UNL     1       0.510   5.633   1.315  0.00  0.00    +0.038 A 
ATOM     31  C   UNL     1       0.785   4.278   1.295  0.00  0.00    +0.008 A 
ATOM     32  F   UNL     1       0.097   7.650   0.143  0.00  0.00    -0.205 F 
ENDBRANCH  25  26
ENDBRANCH  23  25
ENDBRANCH  17  18
ENDBRANCH   1  17
TORSDOF 7
