REMARK  Name = ZINC67294432
REMARK  6 active torsions:
REMARK  status: ('A' for Active; 'I' for Inactive)
REMARK    1  A    between atoms: C_1  and  C_2
REMARK    2  A    between atoms: C_9  and  C_11
REMARK    3  A    between atoms: C_16  and  O_31
REMARK    4  A    between atoms: N_21  and  C_22
REMARK    5  A    between atoms: C_25  and  O_29
REMARK    6  A    between atoms: O_29  and  C_30
REMARK                            x       y       z     vdW  Elec       q    Type
REMARK                         _______ _______ _______ _____ _____    ______ ____
ROOT
ATOM      1  C   UNL     1      -0.178  -6.280  -0.943  0.00  0.00    +0.098 A 
ATOM      2  C   UNL     1      -0.163  -7.034  -2.108  0.00  0.00    +0.030 A 
ATOM      3  C   UNL     1      -0.232  -8.446  -1.992  0.00  0.00    +0.018 A 
ATOM      4  C   UNL     1      -0.019  -9.261  -3.115  0.00  0.00    +0.015 A 
ATOM      5  C   UNL     1      -0.047 -10.618  -2.984  0.00  0.00    +0.046 A 
ATOM      6  C   UNL     1      -0.294 -11.204  -1.744  0.00  0.00    +0.120 A 
ATOM      7  C   UNL     1      -0.526 -10.415  -0.627  0.00  0.00    +0.092 A 
ATOM      8  C   UNL     1      -0.509  -9.036  -0.744  0.00  0.00    +0.141 A 
ATOM      9  O   UNL     1      -0.777  -8.255   0.332  0.00  0.00    -0.438 OA
ATOM     10  C   UNL     1      -0.226  -7.011   0.339  0.00  0.00    +0.212 A 
ATOM     11  N   UNL     1       0.242  -6.476   1.445  0.00  0.00    -0.325 N 
ATOM     12  H   UNL     1       0.724  -5.636   1.411  0.00  0.00    +0.169 HD
ENDROOT
BRANCH   1  21
ATOM     13  C   UNL     1      -0.484   1.518   0.044  0.00  0.00    +0.045 C 
ATOM     14  C   UNL     1      -0.417   0.012   0.039  0.00  0.00    -0.032 A 
ATOM     15  C   UNL     1       0.159  -0.661  -1.030  0.00  0.00    +0.008 A 
ATOM     16  C   UNL     1       0.200  -2.043  -0.996  0.00  0.00    +0.044 A 
ATOM     17  C   UNL     1      -0.335  -2.708   0.103  0.00  0.00    +0.125 A 
ATOM     18  N   UNL     1      -0.876  -2.031   1.103  0.00  0.00    -0.240 NA
ATOM     19  C   UNL     1      -0.923  -0.712   1.100  0.00  0.00    +0.116 A 
ATOM     20  N   UNL     1      -0.300  -4.100   0.151  0.00  0.00    -0.266 N 
ATOM     21  C   UNL     1      -0.142  -4.810  -0.984  0.00  0.00    +0.254 C 
ATOM     22  O   UNL     1       0.031  -4.235  -2.042  0.00  0.00    -0.270 OA
ATOM     23  H   UNL     1      -0.390  -4.558   1.001  0.00  0.00    +0.157 HD
ENDBRANCH   1  21
BRANCH  11  24
ATOM     24  C   UNL     1       0.049  -7.106   2.644  0.00  0.00    +0.045 A 
ATOM     25  C   UNL     1      -1.203  -7.637   2.964  0.00  0.00    +0.029 A 
ATOM     26  C   UNL     1      -1.393  -8.272   4.174  0.00  0.00    +0.050 A 
ATOM     27  C   UNL     1      -0.344  -8.384   5.074  0.00  0.00    +0.155 A 
ATOM     28  C   UNL     1       0.904  -7.857   4.762  0.00  0.00    +0.167 A 
ATOM     29  C   UNL     1       1.105  -7.226   3.551  0.00  0.00    +0.067 A 
ATOM     30  F   UNL     1       1.923  -7.968   5.643  0.00  0.00    -0.202 F 
BRANCH  27  31
ATOM     31  O   UNL     1      -0.537  -9.010   6.266  0.00  0.00    -0.492 OA
ATOM     32  C   UNL     1      -1.844  -9.528   6.523  0.00  0.00    +0.277 C 
ENDBRANCH  27  31
ENDBRANCH  11  24
BRANCH   6  33
ATOM     33  O   UNL     1      -0.307 -12.556  -1.628  0.00  0.00    -0.507 OA
ATOM     34  H   UNL     1       0.554 -12.942  -1.420  0.00  0.00    +0.292 HD
ENDBRANCH   6  33
TORSDOF 4
