REMARK  Name = ZINC13949053
REMARK  11 active torsions:
REMARK  status: ('A' for Active; 'I' for Inactive)
REMARK    1  A    between atoms: C_1  and  C_2
REMARK    2  A    between atoms: C_2  and  C_3
REMARK    3  A    between atoms: C_2  and  C_4
REMARK    4  A    between atoms: C_4  and  C_5
REMARK    5  A    between atoms: C_8  and  S_11
REMARK    6  A    between atoms: S_11  and  N_14
REMARK    7  A    between atoms: N_14  and  C_15
REMARK    8  A    between atoms: C_15  and  C_16
REMARK    9  A    between atoms: C_16  and  C_17
REMARK   10  A    between atoms: C_20  and  S_23
REMARK   11  A    between atoms: S_23  and  N_26
REMARK                            x       y       z     vdW  Elec       q    Type
REMARK                         _______ _______ _______ _____ _____    ______ ____
ROOT
ATOM      1  N   UNL     1      -2.032   8.500   2.446  0.00  0.00    -0.190 NA
ATOM      2  H   UNL     1      -2.910   8.907   2.392  0.00  0.00    +0.148 HD
ENDROOT
BRANCH   1   3
ATOM      3  S   UNL     1      -1.251   8.027   1.064  0.00  0.00    +0.058 S 
ATOM      4  O   UNL     1       0.068   8.551   1.143  0.00  0.00    -0.153 OA
ATOM      5  O   UNL     1      -2.125   8.323  -0.017  0.00  0.00    -0.153 OA
BRANCH   3   9
ATOM      6  C   UNL     1      -0.864   3.520   1.218  0.00  0.00    -0.047 A 
ATOM      7  C   UNL     1       0.128   4.318   1.756  0.00  0.00    +0.005 A 
ATOM      8  C   UNL     1       0.012   5.694   1.706  0.00  0.00    +0.029 A 
ATOM      9  C   UNL     1      -1.101   6.273   1.125  0.00  0.00    +0.105 A 
ATOM     10  C   UNL     1      -2.096   5.475   0.591  0.00  0.00    +0.029 A 
ATOM     11  C   UNL     1      -1.977   4.098   0.638  0.00  0.00    +0.005 A 
BRANCH   6  12
ATOM     12  C   UNL     1      -0.735   2.019   1.269  0.00  0.00    +0.038 C 
BRANCH  12  14
ATOM     13  C   UNL     1       0.002  -0.004   0.002  0.00  0.00    +0.007 C 
ATOM     14  C   UNL     1      -0.019   1.526   0.010  0.00  0.00    -0.013 C 
ATOM     15  C   UNL     1       1.417   2.055  -0.000  0.00  0.00    +0.007 C 
ENDBRANCH  12  14
ENDBRANCH   6  12
ENDBRANCH   3   9
ENDBRANCH   1   3
BRANCH   1  16
ATOM     16  C   UNL     1      -1.395   8.303   3.751  0.00  0.00    +0.110 C 
BRANCH  16  17
ATOM     17  C   UNL     1      -2.123   9.139   4.805  0.00  0.00    +0.052 C 
BRANCH  17  18
ATOM     18  C   UNL     1      -1.468   8.936   6.147  0.00  0.00    -0.046 A 
ATOM     19  C   UNL     1      -1.907   7.928   6.985  0.00  0.00    +0.005 A 
ATOM     20  C   UNL     1      -1.304   7.740   8.214  0.00  0.00    +0.029 A 
ATOM     21  C   UNL     1      -0.267   8.564   8.609  0.00  0.00    +0.105 A 
ATOM     22  C   UNL     1       0.169   9.575   7.773  0.00  0.00    +0.029 A 
ATOM     23  C   UNL     1      -0.432   9.761   6.542  0.00  0.00    +0.005 A 
BRANCH  21  24
ATOM     24  S   UNL     1       0.499   8.326  10.178  0.00  0.00    +0.056 S 
ATOM     25  O   UNL     1       0.272   6.971  10.540  0.00  0.00    -0.153 OA
ATOM     26  O   UNL     1       1.804   8.881  10.081  0.00  0.00    -0.153 OA
BRANCH  24  27
ATOM     27  N   UNL     1      -0.328   9.253  11.273  0.00  0.00    -0.204 NA
ATOM     28  H   UNL     1      -1.083   9.789  10.982  0.00  0.00    +0.144 HD
ATOM     29  H   UNL     1      -0.058   9.261  12.204  0.00  0.00    +0.144 HD
ENDBRANCH  24  27
ENDBRANCH  21  24
ENDBRANCH  17  18
ENDBRANCH  16  17
ENDBRANCH   1  16
TORSDOF 9
