REMARK  Name = ZINC37033812
REMARK  2 active torsions:
REMARK  status: ('A' for Active; 'I' for Inactive)
REMARK    1  A    between atoms: C_5  and  N_8
REMARK    2  A    between atoms: C_9  and  C_11
REMARK                            x       y       z     vdW  Elec       q    Type
REMARK                         _______ _______ _______ _____ _____    ______ ____
ROOT
ATOM      1  C   UNL     1       1.701   1.365   1.100  0.00  0.00    +0.044 A 
ATOM      2  C   UNL     1       1.237   2.113   0.070  0.00  0.00    +0.071 A 
ATOM      3  C   UNL     1       0.703   1.484  -1.088  0.00  0.00    +0.120 A 
ATOM      4  C   UNL     1       0.669   0.028  -1.134  0.00  0.00    +0.124 A 
ATOM      5  C   UNL     1       1.173  -0.697  -0.014  0.00  0.00    +0.080 A 
ATOM      6  C   UNL     1       1.672  -0.028   1.062  0.00  0.00    +0.066 A 
ATOM      7 CL   UNL     1       2.283  -0.929   2.414  0.00  0.00    -0.082 Cl
ATOM      8  N   UNL     1       0.149  -0.450  -2.265  0.00  0.00    -0.189 NA
ATOM      9  S   UNL     1      -0.240   0.840  -3.143  0.00  0.00    +0.117 S 
ATOM     10  N   UNL     1       0.206   2.055  -2.187  0.00  0.00    -0.189 NA
ATOM     11 CL   UNL     1       1.295   3.846   0.165  0.00  0.00    -0.081 Cl
ENDROOT
BRANCH   5  12
ATOM     12  N   UNL     1       1.158  -2.095  -0.021  0.00  0.00    -0.284 N 
ATOM     13  C   UNL     1       0.057  -2.759   0.384  0.00  0.00    +0.204 C 
ATOM     14  O   UNL     1      -0.950  -2.147   0.668  0.00  0.00    -0.277 OA
ATOM     15  H   UNL     1       1.939  -2.587  -0.318  0.00  0.00    +0.155 HD
BRANCH  13  16
ATOM     16  C   UNL     1       0.078  -4.263   0.483  0.00  0.00    +0.027 C 
ATOM     17  C   UNL     1       0.431  -4.843  -0.909  0.00  0.00    +0.060 C 
ATOM     18  S   UNL     1      -0.665  -6.331  -0.925  0.00  0.00    -0.181 S 
ATOM     19  C   UNL     1      -1.990  -5.626   0.152  0.00  0.00    -0.011 C 
ATOM     20  N   UNL     1      -1.206  -4.710   1.009  0.00  0.00    +0.393 N 
ATOM     21  H   UNL     1      -1.038  -5.175   1.889  0.00  0.00    -0.084 HD
ATOM     22  H   UNL     1      -1.770  -3.893   1.192  0.00  0.00    -0.084 HD
ENDBRANCH  13  16
ENDBRANCH   5  12
TORSDOF 2
