REMARK  Name = ZINC50832222
REMARK  6 active torsions:
REMARK  status: ('A' for Active; 'I' for Inactive)
REMARK    1  A    between atoms: C_1  and  C_2
REMARK    2  A    between atoms: C_5  and  O_12
REMARK    3  A    between atoms: C_8  and  C_10
REMARK    4  A    between atoms: C_8  and  C_11
REMARK    5  A    between atoms: O_12  and  C_13
REMARK    6  A    between atoms: C_13  and  C_14
REMARK                            x       y       z     vdW  Elec       q    Type
REMARK                         _______ _______ _______ _____ _____    ______ ____
ROOT
ATOM      1  C   UNL     1      -4.719  -3.273  -1.157  0.00  0.00    +0.158 A 
ATOM      2  N   UNL     1      -4.924  -4.577  -1.106  0.00  0.00    -0.215 NA
ATOM      3  C   UNL     1      -6.135  -5.096  -0.992  0.00  0.00    +0.128 A 
ATOM      4  C   UNL     1      -7.259  -4.227  -0.923  0.00  0.00    +0.047 A 
ATOM      5  C   UNL     1      -8.671  -4.542  -0.798  0.00  0.00    +0.021 A 
ATOM      6  C   UNL     1      -9.563  -3.542  -0.750  0.00  0.00    +0.048 A 
ATOM      7  S   UNL     1      -8.554  -2.077  -0.873  0.00  0.00    -0.077 S 
ATOM      8  C   UNL     1      -6.961  -2.848  -0.984  0.00  0.00    +0.114 A 
ATOM      9  N   UNL     1      -5.720  -2.417  -1.092  0.00  0.00    -0.222 NA
ATOM     10  N   UNL     1      -6.307  -6.468  -0.942  0.00  0.00    -0.343 N 
ATOM     11  H   UNL     1      -5.537  -7.056  -0.990  0.00  0.00    +0.144 HD
ATOM     12  H   UNL     1      -7.198  -6.842  -0.859  0.00  0.00    +0.144 HD
ENDROOT
BRANCH   1  13
ATOM     13  C   UNL     1      -3.311  -2.752  -1.287  0.00  0.00    +0.236 C 
BRANCH  13  14
ATOM     14  O   UNL     1      -2.753  -2.558   0.015  0.00  0.00    -0.369 OA
BRANCH  14  18
ATOM     15  C   UNL     1      -0.019   1.526   0.010  0.00  0.00    +0.007 C 
ATOM     16  C   UNL     1       0.002  -0.004   0.002  0.00  0.00    -0.011 C 
ATOM     17  C   UNL     1      -1.433  -0.534   0.013  0.00  0.00    +0.035 C 
ATOM     18  C   UNL     1      -1.413  -2.063   0.004  0.00  0.00    +0.120 C 
ATOM     19  C   UNL     1      -0.673  -2.570   1.244  0.00  0.00    +0.038 C 
ATOM     20  C   UNL     1       0.763  -2.041   1.233  0.00  0.00    -0.032 C 
ATOM     21  C   UNL     1       0.742  -0.511   1.242  0.00  0.00    +0.009 C 
ATOM     22  C   UNL     1       1.479  -2.534  -0.026  0.00  0.00    +0.011 C 
ATOM     23  C   UNL     1       1.503  -2.548   2.473  0.00  0.00    +0.011 C 
ENDBRANCH  14  18
ENDBRANCH  13  14
ENDBRANCH   1  13
TORSDOF 3
