REMARK  Name = ZINC09097616
REMARK  8 active torsions:
REMARK  status: ('A' for Active; 'I' for Inactive)
REMARK    1  A    between atoms: C_1  and  C_2
REMARK    2  A    between atoms: C_5  and  O_26
REMARK    3  A    between atoms: C_6  and  C_8
REMARK    4  A    between atoms: C_8  and  O_10
REMARK    5  A    between atoms: O_10  and  C_11
REMARK    6  A    between atoms: C_11  and  C_12
REMARK    7  A    between atoms: N_14  and  C_15
REMARK    8  A    between atoms: C_18  and  N_22
REMARK                            x       y       z     vdW  Elec       q    Type
REMARK                         _______ _______ _______ _____ _____    ______ ____
ROOT
ATOM      1  C   UNL     1      -1.274  -0.136  -6.664  0.00  0.00    +0.255 C 
ATOM      2  O   UNL     1      -2.264  -0.690  -7.092  0.00  0.00    -0.272 OA
ATOM      3  N   UNL     1      -0.100  -0.256  -7.315  0.00  0.00    -0.281 N 
ATOM      4  H   UNL     1       0.674   0.246  -7.016  0.00  0.00    +0.155 HD
ENDROOT
BRANCH   3   5
ATOM      5  C   UNL     1       0.001  -1.104  -8.425  0.00  0.00    +0.062 A 
ATOM      6  C   UNL     1       0.340  -2.440  -8.251  0.00  0.00    +0.042 A 
ATOM      7  C   UNL     1       0.435  -3.275  -9.348  0.00  0.00    +0.050 A 
ATOM      8  C   UNL     1       0.203  -2.780 -10.618  0.00  0.00    +0.128 A 
ATOM      9  C   UNL     1      -0.130  -1.449 -10.795  0.00  0.00    +0.050 A 
ATOM     10  C   UNL     1      -0.231  -0.610  -9.702  0.00  0.00    +0.042 A 
ATOM     11 BR   UNL     1      -0.687   1.210  -9.945  0.00  0.00    -0.048 Br
ATOM     12 BR   UNL     1       0.665  -3.116  -6.516  0.00  0.00    -0.048 Br
BRANCH   8  13
ATOM     13  N   UNL     1       0.312  -3.676 -11.791  0.00  0.00    +0.056 N 
ATOM     14  O   UNL     1       0.107  -3.241 -12.911  0.00  0.00    -0.126 OA
ATOM     15  O   UNL     1       0.605  -4.848 -11.637  0.00  0.00    -0.126 OA
ENDBRANCH   8  13
ENDBRANCH   3   5
BRANCH   1  16
ATOM     16  C   UNL     1      -1.356   0.686  -5.404  0.00  0.00    +0.328 C 
BRANCH  16  17
ATOM     17  O   UNL     1      -2.716   0.659  -4.896  0.00  0.00    -0.452 OA
BRANCH  17  18
ATOM     18  C   UNL     1      -2.961   1.351  -3.765  0.00  0.00    +0.343 C 
ATOM     19  O   UNL     1      -2.062   1.959  -3.219  0.00  0.00    -0.245 OA
BRANCH  18  25
ATOM     20  C   UNL     1      -7.739  -0.061  -3.951  0.00  0.00    +0.044 C 
ATOM     21  C   UNL     1      -6.622   0.692  -3.276  0.00  0.00    -0.049 A 
ATOM     22  C   UNL     1      -6.875   1.408  -2.116  0.00  0.00    +0.007 A 
ATOM     23  C   UNL     1      -5.860   2.102  -1.488  0.00  0.00    +0.046 A 
ATOM     24  C   UNL     1      -4.577   2.087  -2.015  0.00  0.00    +0.131 A 
ATOM     25  C   UNL     1      -4.318   1.369  -3.191  0.00  0.00    +0.101 A 
ATOM     26  C   UNL     1      -5.354   0.666  -3.814  0.00  0.00    +0.022 A 
BRANCH  24  27
ATOM     27  O   UNL     1      -3.579   2.768  -1.399  0.00  0.00    -0.506 OA
ATOM     28  H   UNL     1      -3.100   2.251  -0.738  0.00  0.00    +0.292 HD
ENDBRANCH  24  27
ENDBRANCH  18  25
ENDBRANCH  17  18
ENDBRANCH  16  17
ENDBRANCH   1  16
TORSDOF 7
