REMARK  Name = ZINC13802226
REMARK  13 active torsions:
REMARK  status: ('A' for Active; 'I' for Inactive)
REMARK    1  A    between atoms: C_1  and  O_2
REMARK    2  A    between atoms: O_2  and  C_3
REMARK    3  A    between atoms: C_6  and  O_36
REMARK    4  A    between atoms: C_7  and  C_9
REMARK    5  A    between atoms: C_15  and  C_33
REMARK    6  A    between atoms: C_16  and  C_23
REMARK    7  A    between atoms: C_18  and  C_21
REMARK    8  A    between atoms: C_19  and  N_20
REMARK    9  A    between atoms: C_25  and  O_31
REMARK   10  A    between atoms: C_28  and  O_29
REMARK   11  A    between atoms: O_29  and  C_30
REMARK   12  A    between atoms: O_31  and  C_32
REMARK   13  A    between atoms: O_36  and  C_37
REMARK                            x       y       z     vdW  Elec       q    Type
REMARK                         _______ _______ _______ _____ _____    ______ ____
ROOT
ATOM      1  C   UNL     1       3.803  -3.390  -0.408  0.00  0.00    +0.032 C 
ATOM      2  C   UNL     1       2.982  -2.336  -0.652  0.00  0.00    +0.080 A 
ATOM      3  C   UNL     1       3.318  -0.922  -0.855  0.00  0.00    +0.271 A 
ATOM      4  O   UNL     1       4.474  -0.545  -0.817  0.00  0.00    -0.266 OA
ATOM      5  N   UNL     1       2.316  -0.051  -1.084  0.00  0.00    -0.256 N 
ATOM      6  C   UNL     1       1.027  -0.549  -1.112  0.00  0.00    +0.104 A 
ATOM      7  C   UNL     1      -0.080   0.205  -1.331  0.00  0.00    +0.073 C 
ATOM      8  C   UNL     1       0.096   1.693  -1.559  0.00  0.00    +0.109 C 
ATOM      9  C   UNL     1       1.524   2.200  -1.520  0.00  0.00    +0.080 C 
ATOM     10  C   UNL     1       2.521   1.318  -1.291  0.00  0.00    +0.119 C 
ATOM     11  S   UNL     1       1.205  -2.296  -0.810  0.00  0.00    -0.065 S 
ENDROOT
BRANCH   1  16
ATOM     12  C   UNL     1       1.525  -6.314  -0.983  0.00  0.00    +0.121 A 
ATOM     13  C   UNL     1       2.240  -7.337  -0.370  0.00  0.00    +0.049 A 
ATOM     14  C   UNL     1       3.458  -7.077   0.228  0.00  0.00    +0.050 A 
ATOM     15  C   UNL     1       3.977  -5.793   0.221  0.00  0.00    +0.127 A 
ATOM     16  C   UNL     1       3.261  -4.754  -0.396  0.00  0.00    +0.021 A 
ATOM     17  C   UNL     1       2.025  -5.026  -0.994  0.00  0.00    +0.057 A 
BRANCH  12  19
ATOM     18  C   UNL     1      -0.135  -7.932  -1.515  0.00  0.00    +0.277 C 
ATOM     19  O   UNL     1       0.327  -6.581  -1.568  0.00  0.00    -0.495 OA
ENDBRANCH  12  19
BRANCH  15  20
ATOM     20  O   UNL     1       5.175  -5.539   0.809  0.00  0.00    -0.495 OA
ATOM     21  C   UNL     1       5.846  -6.645   1.417  0.00  0.00    +0.277 C 
ENDBRANCH  15  20
ENDBRANCH   1  16
BRANCH   8  22
ATOM     22  C   UNL     1      -0.694   2.428  -0.508  0.00  0.00    +0.011 A 
ATOM     23  C   UNL     1      -0.406   2.241   0.830  0.00  0.00    +0.053 A 
ATOM     24  C   UNL     1      -1.133   2.918   1.798  0.00  0.00    +0.121 A 
ATOM     25  C   UNL     1      -2.150   3.783   1.422  0.00  0.00    +0.049 A 
ATOM     26  C   UNL     1      -2.438   3.971   0.084  0.00  0.00    +0.049 A 
ATOM     27  C   UNL     1      -1.708   3.297  -0.884  0.00  0.00    +0.124 A 
BRANCH  27  28
ATOM     28  O   UNL     1      -1.988   3.486  -2.201  0.00  0.00    -0.495 OA
ATOM     29  C   UNL     1      -3.044   4.395  -2.516  0.00  0.00    +0.277 C 
ENDBRANCH  27  28
BRANCH  24  30
ATOM     30  O   UNL     1      -0.849   2.734   3.115  0.00  0.00    -0.495 OA
ATOM     31  C   UNL     1      -1.637   3.464   4.057  0.00  0.00    +0.277 C 
ENDBRANCH  24  30
ENDBRANCH   8  22
BRANCH  10  32
ATOM     32  N   UNL     1       3.811   1.792  -1.259  0.00  0.00    -0.343 N 
ATOM     33  H   UNL     1       4.051   2.580  -1.771  0.00  0.00    +0.144 HD
ATOM     34  H   UNL     1       4.481   1.339  -0.724  0.00  0.00    +0.144 HD
ENDBRANCH  10  32
BRANCH   9  35
ATOM     35  C   UNL     1       1.810   3.588  -1.723  0.00  0.00    +0.099 C 
ATOM     36  N   UNL     1       2.037   4.690  -1.884  0.00  0.00    -0.191 NA
ENDBRANCH   9  35
BRANCH   7  37
ATOM     37  C   UNL     1      -1.382  -0.391  -1.344  0.00  0.00    +0.098 C 
ATOM     38  N   UNL     1      -2.416  -0.863  -1.355  0.00  0.00    -0.191 NA
ENDBRANCH   7  37
TORSDOF 9
