REMARK  Name = ZINC63994189
REMARK  6 active torsions:
REMARK  status: ('A' for Active; 'I' for Inactive)
REMARK    1  A    between atoms: C_4  and  C_7
REMARK    2  A    between atoms: C_7  and  N_8
REMARK    3  A    between atoms: C_11  and  C_13
REMARK    4  A    between atoms: N_15  and  C_16
REMARK    5  A    between atoms: C_16  and  C_17
REMARK    6  A    between atoms: C_26  and  C_28
REMARK                            x       y       z     vdW  Elec       q    Type
REMARK                         _______ _______ _______ _____ _____    ______ ____
ROOT
ATOM      1  N   UNL     1       4.152  -0.952   1.338  0.00  0.00    -0.263 N 
ATOM      2  C   UNL     1       4.917  -0.117   2.062  0.00  0.00    +0.047 A 
ATOM      3  C   UNL     1       5.099  -0.696   3.275  0.00  0.00    +0.023 A 
ATOM      4  C   UNL     1       4.408  -1.917   3.231  0.00  0.00    +0.152 A 
ATOM      5  N   UNL     1       3.858  -1.997   2.032  0.00  0.00    -0.166 NA
ATOM      6  C   UNL     1       5.895  -0.083   4.396  0.00  0.00    +0.147 C 
ATOM      7  N   UNL     1       6.624   1.069   3.833  0.00  0.00    -0.295 N 
ATOM      8  C   UNL     1       5.903   1.977   2.929  0.00  0.00    +0.114 C 
ATOM      9  C   UNL     1       5.496   1.215   1.661  0.00  0.00    +0.074 C 
ATOM     10  C   UNL     1       7.919   1.284   4.139  0.00  0.00    +0.242 C 
ATOM     11  O   UNL     1       8.499   0.525   4.886  0.00  0.00    -0.273 OA
ENDROOT
BRANCH  10  12
ATOM     12  C   UNL     1       8.646   2.466   3.552  0.00  0.00    +0.190 C 
ATOM     13  C   UNL     1       8.002   3.755   4.013  0.00  0.00    +0.016 C 
ATOM     14  C   UNL     1       8.956   4.428   4.696  0.00  0.00    -0.004 A 
ATOM     15  C   UNL     1       8.960   5.725   5.383  0.00  0.00    +0.010 A 
ATOM     16  C   UNL     1      10.094   6.142   5.991  0.00  0.00    +0.001 A 
ATOM     17  C   UNL     1      11.262   5.368   5.982  0.00  0.00    +0.002 A 
ATOM     18  C   UNL     1      11.337   4.166   5.372  0.00  0.00    +0.026 A 
ATOM     19  C   UNL     1      10.203   3.630   4.701  0.00  0.00    +0.043 A 
ATOM     20  N   UNL     1      10.027   2.506   4.045  0.00  0.00    -0.370 N 
ATOM     21  H   UNL     1      10.697   1.818   3.909  0.00  0.00    +0.161 HD
ENDBRANCH  10  12
BRANCH   4  22
ATOM     22  C   UNL     1       4.311  -2.915   4.316  0.00  0.00    +0.265 C 
ATOM     23  O   UNL     1       4.865  -2.714   5.379  0.00  0.00    -0.268 OA
ATOM     24  N   UNL     1       3.607  -4.049   4.127  0.00  0.00    -0.304 N 
ATOM     25  H   UNL     1       3.165  -4.210   3.279  0.00  0.00    +0.149 HD
BRANCH  24  26
ATOM     26  C   UNL     1       3.511  -5.039   5.203  0.00  0.00    +0.167 C 
BRANCH  26  27
ATOM     27  C   UNL     1       2.675  -6.204   4.739  0.00  0.00    +0.095 A 
ATOM     28  N   UNL     1       3.069  -7.301   4.142  0.00  0.00    -0.251 NA
ATOM     29  C   UNL     1       2.211  -8.239   3.795  0.00  0.00    +0.119 A 
ATOM     30  C   UNL     1       0.903  -8.015   4.084  0.00  0.00    +0.066 A 
ATOM     31  S   UNL     1       1.010  -6.415   4.870  0.00  0.00    -0.079 S 
ENDBRANCH  26  27
ENDBRANCH  24  26
ENDBRANCH   4  22
BRANCH   1  32
ATOM     32  C   UNL     1       3.711  -0.707  -0.038  0.00  0.00    +0.179 C 
BRANCH  32  36
ATOM     33  C   UNL     1      -0.017   1.378   0.010  0.00  0.00    +0.000 A 
ATOM     34  C   UNL     1       1.171   2.086   0.002  0.00  0.00    +0.000 A 
ATOM     35  C   UNL     1       2.377   1.411  -0.013  0.00  0.00    +0.005 A 
ATOM     36  C   UNL     1       2.396   0.029  -0.020  0.00  0.00    -0.026 A 
ATOM     37  C   UNL     1       1.208  -0.679  -0.012  0.00  0.00    +0.005 A 
ATOM     38  C   UNL     1       0.002  -0.004   0.002  0.00  0.00    +0.000 A 
ENDBRANCH  32  36
ENDBRANCH   1  32
TORSDOF 6
