REMARK  Name = ZINC09191778
REMARK  7 active torsions:
REMARK  status: ('A' for Active; 'I' for Inactive)
REMARK    1  A    between atoms: C_1  and  O_2
REMARK    2  A    between atoms: O_2  and  C_3
REMARK    3  A    between atoms: C_8  and  O_9
REMARK    4  A    between atoms: O_9  and  C_10
REMARK    5  A    between atoms: C_10  and  C_11
REMARK    6  A    between atoms: C_23  and  O_35
REMARK    7  A    between atoms: C_27  and  C_29
REMARK                            x       y       z     vdW  Elec       q    Type
REMARK                         _______ _______ _______ _____ _____    ______ ____
ROOT
ATOM      1  C   UNL     1      -3.684  -0.961   0.016  0.00  0.00    +0.189 A 
ATOM      2  N   UNL     1      -4.381  -1.273   1.107  0.00  0.00    -0.207 NA
ATOM      3  C   UNL     1      -5.546  -1.765   0.758  0.00  0.00    +0.167 A 
ATOM      4  C   UNL     1      -6.644  -2.241   1.492  0.00  0.00    +0.070 A 
ATOM      5  C   UNL     1      -7.717  -2.695   0.772  0.00  0.00    +0.230 A 
ATOM      6  N   UNL     1      -7.700  -2.678  -0.570  0.00  0.00    -0.201 NA
ATOM      7  C   UNL     1      -6.689  -2.239  -1.279  0.00  0.00    +0.229 A 
ATOM      8  N   UNL     1      -5.595  -1.776  -0.625  0.00  0.00    -0.201 N 
ATOM      9  N   UNL     1      -4.385  -1.254  -1.059  0.00  0.00    -0.145 NA
ATOM     10  O   UNL     1      -8.814  -3.171   1.406  0.00  0.00    -0.437 OA
ATOM     11  C   UNL     1      -9.054  -2.845   2.698  0.00  0.00    +0.138 A 
ATOM     12  C   UNL     1     -10.343  -2.968   3.201  0.00  0.00    +0.092 A 
ATOM     13  C   UNL     1     -10.607  -2.642   4.521  0.00  0.00    +0.120 A 
ATOM     14  C   UNL     1      -9.582  -2.192   5.342  0.00  0.00    +0.046 A 
ATOM     15  C   UNL     1      -8.302  -2.069   4.840  0.00  0.00    +0.012 A 
ATOM     16  C   UNL     1      -8.035  -2.393   3.522  0.00  0.00    +0.007 A 
ATOM     17  C   UNL     1      -6.634  -2.248   2.990  0.00  0.00    +0.091 C 
ENDROOT
BRANCH  17  18
ATOM     18  C   UNL     1      -5.794  -3.401   3.477  0.00  0.00    -0.035 A 
ATOM     19  C   UNL     1      -6.148  -4.698   3.157  0.00  0.00    +0.004 A 
ATOM     20  C   UNL     1      -5.375  -5.755   3.601  0.00  0.00    +0.000 A 
ATOM     21  C   UNL     1      -4.254  -5.515   4.372  0.00  0.00    +0.000 A 
ATOM     22  C   UNL     1      -3.903  -4.218   4.697  0.00  0.00    +0.000 A 
ATOM     23  C   UNL     1      -4.673  -3.161   4.250  0.00  0.00    +0.004 A 
ENDBRANCH  17  18
BRANCH  13  24
ATOM     24  O   UNL     1     -11.869  -2.762   5.013  0.00  0.00    -0.507 OA
ATOM     25  H   UNL     1     -12.061  -3.629   5.395  0.00  0.00    +0.292 HD
ENDBRANCH  13  24
BRANCH   1  26
ATOM     26  C   UNL     1      -2.299  -0.368   0.012  0.00  0.00    +0.307 C 
BRANCH  26  27
ATOM     27  O   UNL     1      -2.391   1.058   0.020  0.00  0.00    -0.481 OA
BRANCH  27  33
ATOM     28  C   UNL     1      -1.237   3.144   0.030  0.00  0.00    +0.162 A 
ATOM     29  C   UNL     1      -0.043   3.847   0.022  0.00  0.00    +0.049 A 
ATOM     30  C   UNL     1       1.160   3.166   0.007  0.00  0.00    +0.004 A 
ATOM     31  C   UNL     1       1.175   1.783   0.000  0.00  0.00    +0.004 A 
ATOM     32  C   UNL     1      -0.013   1.076   0.008  0.00  0.00    +0.049 A 
ATOM     33  C   UNL     1      -1.222   1.752   0.017  0.00  0.00    +0.163 A 
BRANCH  28  35
ATOM     34  C   UNL     1      -2.361   5.240   0.052  0.00  0.00    +0.277 C 
ATOM     35  O   UNL     1      -2.421   3.812   0.045  0.00  0.00    -0.491 OA
ENDBRANCH  28  35
ENDBRANCH  27  33
ENDBRANCH  26  27
ENDBRANCH   1  26
TORSDOF 6
