REMARK  Name = ZINC63859882
REMARK  5 active torsions:
REMARK  status: ('A' for Active; 'I' for Inactive)
REMARK    1  A    between atoms: C_6  and  C_7
REMARK    2  A    between atoms: C_9  and  C_12
REMARK    3  A    between atoms: C_12  and  S_13
REMARK    4  A    between atoms: S_13  and  C_14
REMARK    5  A    between atoms: N_18  and  C_19
REMARK                            x       y       z     vdW  Elec       q    Type
REMARK                         _______ _______ _______ _____ _____    ______ ____
ROOT
ATOM      1  C   UNL     1      -2.996  -3.901   0.024  0.00  0.00    +0.136 C 
ENDROOT
BRANCH   1   4
ATOM      2  C   UNL     1      -0.805  -1.024   0.028  0.00  0.00    +0.227 A 
ATOM      3  N   UNL     1      -1.007  -2.321   0.036  0.00  0.00    -0.213 NA
ATOM      4  C   UNL     1      -2.329  -2.550   0.021  0.00  0.00    +0.090 A 
ATOM      5  C   UNL     1      -2.953  -1.358   0.004  0.00  0.00    +0.221 A 
ATOM      6  O   UNL     1      -1.999  -0.406   0.013  0.00  0.00    -0.443 OA
BRANCH   2  12
ATOM      7  C   UNL     1       0.592   1.038   0.035  0.00  0.00    +0.014 A 
ATOM      8  C   UNL     1       1.825   1.657   0.047  0.00  0.00    +0.016 A 
ATOM      9  C   UNL     1       2.982   0.898   0.063  0.00  0.00    +0.018 A 
ATOM     10  C   UNL     1       2.911  -0.485   0.067  0.00  0.00    +0.016 A 
ATOM     11  C   UNL     1       1.684  -1.115   0.055  0.00  0.00    +0.014 A 
ATOM     12  C   UNL     1       0.513  -0.355   0.040  0.00  0.00    +0.037 A 
ATOM     13 BR   UNL     1       4.669   1.753   0.078  0.00  0.00    -0.050 Br
ENDBRANCH   2  12
ENDBRANCH   1   4
BRANCH   1  14
ATOM     14  S   UNL     1      -3.285  -4.429   1.735  0.00  0.00    -0.080 S 
BRANCH  14  15
ATOM     15  C   UNL     1      -4.059  -6.003   1.570  0.00  0.00    +0.193 A 
ATOM     16  N   UNL     1      -4.334  -6.613   0.442  0.00  0.00    -0.121 NA
ATOM     17  N   UNL     1      -4.944  -7.836   0.749  0.00  0.00    -0.113 NA
ATOM     18  C   UNL     1      -5.022  -7.934   2.053  0.00  0.00    +0.215 A 
ATOM     19  N   UNL     1      -4.473  -6.807   2.595  0.00  0.00    -0.288 N 
ATOM     20  N   UNL     1      -5.564  -8.999   2.761  0.00  0.00    -0.328 N 
ATOM     21  H   UNL     1      -5.999  -9.725   2.287  0.00  0.00    +0.145 HD
ATOM     22  H   UNL     1      -5.507  -9.018   3.729  0.00  0.00    +0.145 HD
BRANCH  19  23
ATOM     23  C   UNL     1      -4.351  -6.510   4.025  0.00  0.00    +0.093 C 
ATOM     24  C   UNL     1      -4.107  -5.054   4.426  0.00  0.00    +0.027 C 
ATOM     25  C   UNL     1      -2.978  -6.079   4.543  0.00  0.00    +0.027 C 
ENDBRANCH  19  23
ENDBRANCH  14  15
ENDBRANCH   1  14
TORSDOF 5
