REMARK  Name = ZINC21262846
REMARK  11 active torsions:
REMARK  status: ('A' for Active; 'I' for Inactive)
REMARK    1  A    between atoms: C_1  and  C_2
REMARK    2  A    between atoms: C_2  and  C_27
REMARK    3  A    between atoms: C_4  and  N_10
REMARK    4  A    between atoms: C_6  and  C_8
REMARK    5  A    between atoms: C_6  and  C_9
REMARK    6  A    between atoms: N_10  and  C_11
REMARK    7  A    between atoms: C_11  and  N_13
REMARK    8  A    between atoms: N_13  and  C_14
REMARK    9  A    between atoms: N_13  and  C_21
REMARK   10  A    between atoms: C_14  and  C_15
REMARK   11  A    between atoms: C_21  and  C_22
REMARK                            x       y       z     vdW  Elec       q    Type
REMARK                         _______ _______ _______ _____ _____    ______ ____
ROOT
ATOM      1  C   UNL     1       0.781   4.120  -4.156  0.00  0.00    +0.134 C 
ATOM      2  S   UNL     1      -0.364   5.149  -3.408  0.00  0.00    -0.019 S 
ENDROOT
BRANCH   1   3
ATOM      3  N   UNL     1       1.238   3.033  -3.503  0.00  0.00    -0.324 N 
ATOM      4  H   UNL     1       1.974   2.372  -3.984  0.00  0.00    +0.148 HD
BRANCH   3   8
ATOM      5  C   UNL     1      -2.142   0.480  -1.024  0.00  0.00    -0.010 C 
ATOM      6  C   UNL     1      -1.041   1.551  -0.853  0.00  0.00    -0.072 C 
ATOM      7  C   UNL     1      -0.531   1.911  -2.245  0.00  0.00    +0.009 C 
ATOM      8  C   UNL     1       0.755   2.732  -2.150  0.00  0.00    +0.069 C 
ATOM      9  C   UNL     1       1.806   1.898  -1.415  0.00  0.00    +0.009 C 
ATOM     10  C   UNL     1       1.321   1.577  -0.002  0.00  0.00    -0.072 C 
ATOM     11  N   UNL     1      -0.012   1.005   0.008  0.00  0.00    +0.386 N 
ATOM     12  C   UNL     1       1.397   2.833   0.870  0.00  0.00    -0.010 C 
ATOM     13  C   UNL     1       2.294   0.539   0.599  0.00  0.00    -0.010 C 
ATOM     14  C   UNL     1      -1.702   2.779  -0.216  0.00  0.00    -0.010 C 
ATOM     15  H   UNL     1      -0.329   1.089   1.058  0.00  0.00    -0.084 HD
ATOM     16  H   UNL     1       0.152  -0.054  -0.243  0.00  0.00    -0.084 HD
ENDBRANCH   3   8
ENDBRANCH   1   3
BRANCH   1  17
ATOM     17  N   UNL     1       1.224   4.396  -5.399  0.00  0.00    -0.301 N 
BRANCH  17  18
ATOM     18  C   UNL     1       0.727   5.577  -6.108  0.00  0.00    +0.143 C 
BRANCH  18  19
ATOM     19  C   UNL     1       1.613   6.757  -5.802  0.00  0.00    -0.012 A 
ATOM     20  C   UNL     1       1.333   7.584  -4.724  0.00  0.00    +0.008 A 
ATOM     21  C   UNL     1       2.178   8.655  -4.478  0.00  0.00    +0.020 A 
ATOM     22  C   UNL     1       3.257   8.868  -5.314  0.00  0.00    +0.111 A 
ATOM     23  N   UNL     1       3.490   8.064  -6.333  0.00  0.00    -0.263 NA
ATOM     24  C   UNL     1       2.710   7.033  -6.595  0.00  0.00    +0.115 A 
ENDBRANCH  18  19
ENDBRANCH  17  18
BRANCH  17  25
ATOM     25  C   UNL     1       2.204   3.515  -6.039  0.00  0.00    +0.181 C 
BRANCH  25  26
ATOM     26  C   UNL     1       1.484   2.438  -6.808  0.00  0.00    +0.122 A 
ATOM     27  C   UNL     1       1.102   2.513  -8.096  0.00  0.00    +0.046 A 
ATOM     28  C   UNL     1       0.465   1.289  -8.406  0.00  0.00    +0.041 A 
ATOM     29  C   UNL     1       0.497   0.539  -7.289  0.00  0.00    +0.195 A 
ATOM     30  O   UNL     1       1.120   1.238  -6.327  0.00  0.00    -0.466 OA
ENDBRANCH  25  26
ENDBRANCH  17  25
ENDBRANCH   1  17
TORSDOF 7
