REMARK  Name = ZINC54753193
REMARK  4 active torsions:
REMARK  status: ('A' for Active; 'I' for Inactive)
REMARK    1  A    between atoms: C_1  and  C_2
REMARK    2  A    between atoms: C_5  and  C_8
REMARK    3  A    between atoms: C_9  and  C_25
REMARK    4  A    between atoms: C_17  and  C_19
REMARK                            x       y       z     vdW  Elec       q    Type
REMARK                         _______ _______ _______ _____ _____    ______ ____
ROOT
ATOM      1  C   UNL     1       0.058  -4.255  -0.021  0.00  0.00    +0.007 A 
ATOM      2  C   UNL     1      -0.991  -4.957  -0.518  0.00  0.00    -0.003 A 
ATOM      3  S   UNL     1      -0.490  -6.654  -0.305  0.00  0.00    -0.073 S 
ATOM      4  C   UNL     1       1.099  -6.386   0.438  0.00  0.00    +0.117 A 
ATOM      5  C   UNL     1       1.206  -4.985   0.498  0.00  0.00    +0.080 A 
ATOM      6  C   UNL     1       2.421  -4.476   1.064  0.00  0.00    +0.261 A 
ATOM      7  O   UNL     1       2.602  -3.275   1.162  0.00  0.00    -0.267 OA
ATOM      8  N   UNL     1       3.359  -5.344   1.486  0.00  0.00    -0.304 N 
ATOM      9  H   UNL     1       4.183  -5.005   1.870  0.00  0.00    +0.170 HD
ATOM     10  C   UNL     1       3.171  -6.694   1.383  0.00  0.00    +0.180 A 
ATOM     11  N   UNL     1       2.062  -7.185   0.877  0.00  0.00    -0.219 NA
ATOM     12  C   UNL     1      -2.273  -4.428  -1.109  0.00  0.00    +0.052 C 
ENDROOT
BRANCH   1  17
ATOM     13  C   UNL     1      -0.018   1.503   0.010  0.00  0.00    +0.044 C 
ATOM     14  C   UNL     1       0.002  -0.004   0.002  0.00  0.00    -0.050 A 
ATOM     15  C   UNL     1       0.006  -0.686  -1.201  0.00  0.00    +0.004 A 
ATOM     16  C   UNL     1       0.024  -2.066  -1.215  0.00  0.00    +0.009 A 
ATOM     17  C   UNL     1       0.039  -2.772  -0.013  0.00  0.00    -0.016 A 
ATOM     18  C   UNL     1       0.036  -2.079   1.196  0.00  0.00    +0.009 A 
ATOM     19  C   UNL     1       0.023  -0.699   1.198  0.00  0.00    +0.004 A 
ENDBRANCH   1  17
BRANCH  10  20
ATOM     20  C   UNL     1       4.227  -7.617   1.858  0.00  0.00    +0.196 A 
ATOM     21  N   UNL     1       5.338  -7.114   2.381  0.00  0.00    -0.233 NA
ATOM     22  C   UNL     1       6.300  -7.910   2.815  0.00  0.00    +0.115 A 
ATOM     23  C   UNL     1       6.137  -9.284   2.717  0.00  0.00    +0.039 A 
ATOM     24  C   UNL     1       4.963  -9.776   2.165  0.00  0.00    +0.115 A 
ATOM     25  N   UNL     1       4.038  -8.926   1.756  0.00  0.00    -0.233 NA
ENDBRANCH  10  20
TORSDOF 2
