REMARK  Name = ZINC32616831
REMARK  4 active torsions:
REMARK  status: ('A' for Active; 'I' for Inactive)
REMARK    1  A    between atoms: C_1  and  C_2
REMARK    2  A    between atoms: C_5  and  C_29
REMARK    3  A    between atoms: C_8  and  C_10
REMARK    4  A    between atoms: C_11  and  C_23
REMARK                            x       y       z     vdW  Elec       q    Type
REMARK                         _______ _______ _______ _____ _____    ______ ____
ROOT
ATOM      1  C   UNL     1      -3.614   1.626   0.047  0.00  0.00    +0.070 A 
ATOM      2  C   UNL     1      -2.935   1.903   1.236  0.00  0.00    +0.005 A 
ATOM      3  C   UNL     1      -1.722   2.731   1.169  0.00  0.00    +0.008 A 
ATOM      4  C   UNL     1      -1.009   3.042   2.331  0.00  0.00    +0.030 A 
ATOM      5  C   UNL     1       0.122   3.822   2.249  0.00  0.00    +0.042 A 
ATOM      6  C   UNL     1       0.553   4.306   1.020  0.00  0.00    +0.022 A 
ATOM      7  C   UNL     1      -0.143   4.014  -0.132  0.00  0.00    +0.028 A 
ATOM      8  C   UNL     1      -1.289   3.225  -0.073  0.00  0.00    +0.050 A 
ATOM      9  N   UNL     1      -1.987   2.930  -1.228  0.00  0.00    -0.322 N 
ATOM     10  H   UNL     1      -1.638   3.319  -2.196  0.00  0.00    +0.169 HD
ATOM     11  C   UNL     1      -3.097   2.173  -1.210  0.00  0.00    +0.259 A 
ATOM     12  O   UNL     1      -3.681   1.938  -2.253  0.00  0.00    -0.267 OA
ATOM     13 CL   UNL     1       1.015   4.204   3.689  0.00  0.00    -0.084 Cl
ENDROOT
BRANCH   1  20
ATOM     14  C   UNL     1      -8.884   1.873   0.195  0.00  0.00    +0.111 C 
ATOM     15  C   UNL     1      -8.344   0.467   0.142  0.00  0.00    +0.232 C 
ATOM     16  O   UNL     1      -9.107  -0.476   0.137  0.00  0.00    -0.274 OA
ATOM     17  N   UNL     1      -7.013   0.257   0.101  0.00  0.00    -0.185 N 
ATOM     18  C   UNL     1      -6.356  -1.058   0.048  0.00  0.00    +0.137 C 
ATOM     19  C   UNL     1      -4.854  -0.712   0.017  0.00  0.00    +0.087 C 
ATOM     20  C   UNL     1      -4.827   0.799   0.057  0.00  0.00    +0.075 C 
ATOM     21  N   UNL     1      -6.036   1.250   0.107  0.00  0.00    -0.181 NA
BRANCH  18  22
ATOM     22  C   UNL     1      -6.754  -1.803  -1.200  0.00  0.00    -0.023 A 
ATOM     23  C   UNL     1      -6.992  -1.094  -2.377  0.00  0.00    +0.008 A 
ATOM     24  C   UNL     1      -7.348  -1.738  -3.522  0.00  0.00    +0.030 A 
ATOM     25  C   UNL     1      -7.489  -3.136  -3.520  0.00  0.00    +0.089 A 
ATOM     26  C   UNL     1      -7.252  -3.857  -2.322  0.00  0.00    +0.089 A 
ATOM     27  C   UNL     1      -6.880  -3.157  -1.160  0.00  0.00    +0.035 A 
ATOM     28  N   UNL     1      -7.385  -5.187  -2.315  0.00  0.00    -0.252 NA
ATOM     29  C   UNL     1      -7.734  -5.813  -3.416  0.00  0.00    +0.131 A 
ATOM     30  C   UNL     1      -7.967  -5.104  -4.596  0.00  0.00    +0.131 A 
ATOM     31  N   UNL     1      -7.843  -3.796  -4.628  0.00  0.00    -0.252 NA
ENDBRANCH  18  22
ENDBRANCH   1  20
BRANCH   2  32
ATOM     32  C   UNL     1      -3.419   1.372   2.527  0.00  0.00    -0.016 A 
ATOM     33  C   UNL     1      -4.625   1.829   3.065  0.00  0.00    +0.008 A 
ATOM     34  C   UNL     1      -5.074   1.326   4.268  0.00  0.00    +0.001 A 
ATOM     35  C   UNL     1      -4.328   0.378   4.947  0.00  0.00    +0.000 A 
ATOM     36  C   UNL     1      -3.131  -0.075   4.422  0.00  0.00    +0.001 A 
ATOM     37  C   UNL     1      -2.672   0.415   3.217  0.00  0.00    +0.008 A 
ENDBRANCH   2  32
TORSDOF 3
