REMARK  Name = ZINC14458918
REMARK  6 active torsions:
REMARK  status: ('A' for Active; 'I' for Inactive)
REMARK    1  A    between atoms: C_1  and  O_2
REMARK    2  A    between atoms: O_2  and  C_3
REMARK    3  A    between atoms: C_5  and  C_10
REMARK    4  A    between atoms: C_8  and  O_9
REMARK    5  A    between atoms: C_21  and  N_26
REMARK    6  A    between atoms: N_26  and  C_27
REMARK                            x       y       z     vdW  Elec       q    Type
REMARK                         _______ _______ _______ _____ _____    ______ ____
ROOT
ATOM      1  C   UNL     1       0.552  -2.115  -1.983  0.00  0.00    +0.105 C 
ATOM      2  C   UNL     1       0.451  -0.640  -1.603  0.00  0.00    +0.029 C 
ATOM      3  C   UNL     1       0.968   0.366  -2.640  0.00  0.00    +0.033 C 
ATOM      4  C   UNL     1       0.080   1.580  -2.361  0.00  0.00    -0.030 C 
ATOM      5  C   UNL     1      -1.067   1.188  -1.819  0.00  0.00    -0.023 C 
ATOM      6  C   UNL     1      -1.063  -0.294  -1.720  0.00  0.00    +0.049 C 
ATOM      7  C   UNL     1      -1.759  -1.006  -0.626  0.00  0.00    -0.018 A 
ATOM      8  C   UNL     1      -2.840  -0.467   0.036  0.00  0.00    +0.029 A 
ATOM      9  C   UNL     1      -3.469  -1.181   1.047  0.00  0.00    +0.032 A 
ATOM     10  C   UNL     1      -3.006  -2.445   1.391  0.00  0.00    +0.025 A 
ATOM     11  C   UNL     1      -1.921  -2.986   0.733  0.00  0.00    +0.025 A 
ATOM     12  C   UNL     1      -1.282  -2.274  -0.275  0.00  0.00    +0.031 A 
ATOM     13  N   UNL     1      -0.158  -2.833  -0.902  0.00  0.00    -0.336 N 
ATOM     14  H   UNL     1       0.159  -3.706  -0.622  0.00  0.00    +0.147 HD
ENDROOT
BRANCH   1  17
ATOM     15  C   UNL     1       3.945  -3.128  -3.300  0.00  0.00    +0.162 A 
ATOM     16  C   UNL     1       2.618  -2.732  -3.253  0.00  0.00    +0.054 A 
ATOM     17  C   UNL     1       1.996  -2.545  -2.033  0.00  0.00    -0.023 A 
ATOM     18  C   UNL     1       2.696  -2.747  -0.858  0.00  0.00    +0.009 A 
ATOM     19  C   UNL     1       4.019  -3.147  -0.898  0.00  0.00    +0.049 A 
ATOM     20  C   UNL     1       4.649  -3.336  -2.118  0.00  0.00    +0.158 A 
BRANCH  15  22
ATOM     21  C   UNL     1       3.775  -3.081  -5.672  0.00  0.00    +0.277 C 
ATOM     22  O   UNL     1       4.559  -3.312  -4.500  0.00  0.00    -0.491 OA
ENDBRANCH  15  22
BRANCH  20  23
ATOM     23  O   UNL     1       5.951  -3.724  -2.159  0.00  0.00    -0.503 OA
ATOM     24  H   UNL     1       6.580  -2.990  -2.173  0.00  0.00    +0.292 HD
ENDBRANCH  20  23
ENDBRANCH   1  17
BRANCH   9  25
ATOM     25  N   UNL     1      -4.567  -0.630   1.718  0.00  0.00    -0.314 N 
ATOM     26  H   UNL     1      -4.643   0.333   1.814  0.00  0.00    +0.152 HD
BRANCH  25  27
ATOM     27  C   UNL     1      -5.552  -1.465   2.251  0.00  0.00    +0.031 A 
ATOM     28  C   UNL     1      -5.845  -2.675   1.636  0.00  0.00    +0.023 A 
ATOM     29  C   UNL     1      -6.815  -3.502   2.168  0.00  0.00    +0.002 A 
ATOM     30  C   UNL     1      -7.503  -3.120   3.306  0.00  0.00    +0.000 A 
ATOM     31  C   UNL     1      -7.217  -1.913   3.918  0.00  0.00    +0.002 A 
ATOM     32  C   UNL     1      -6.244  -1.084   3.394  0.00  0.00    +0.023 A 
ENDBRANCH  25  27
ENDBRANCH   9  25
TORSDOF 5
