REMARK  Name = ZINC20410744
REMARK  4 active torsions:
REMARK  status: ('A' for Active; 'I' for Inactive)
REMARK    1  A    between atoms: N_8  and  N_9
REMARK    2  A    between atoms: C_10  and  C_12
REMARK    3  A    between atoms: N_21  and  C_22
REMARK    4  A    between atoms: C_22  and  N_23
REMARK                            x       y       z     vdW  Elec       q    Type
REMARK                         _______ _______ _______ _____ _____    ______ ____
ROOT
ATOM      1  C   UNL     1       0.048   1.318   0.764  0.00  0.00    +0.001 A 
ATOM      2  C   UNL     1       1.229   2.035   0.676  0.00  0.00    +0.002 A 
ATOM      3  C   UNL     1       2.418   1.397   0.385  0.00  0.00    +0.024 A 
ATOM      4  C   UNL     1       2.440   0.022   0.175  0.00  0.00    +0.047 A 
ATOM      5  C   UNL     1       1.242  -0.699   0.265  0.00  0.00    +0.028 A 
ATOM      6  C   UNL     1       0.050  -0.047   0.559  0.00  0.00    +0.012 A 
ATOM      7  C   UNL     1       1.585  -2.115  -0.003  0.00  0.00    +0.153 C 
ATOM      8  N   UNL     1       0.772  -3.143  -0.023  0.00  0.00    -0.174 NA
ATOM      9  C   UNL     1       3.042  -2.115  -0.244  0.00  0.00    +0.272 C 
ATOM     10  O   UNL     1       3.725  -3.088  -0.503  0.00  0.00    -0.268 OA
ATOM     11  N   UNL     1       3.480  -0.850  -0.127  0.00  0.00    -0.252 N 
ENDROOT
BRANCH   8  12
ATOM     12  N   UNL     1      -0.610  -2.946   0.097  0.00  0.00    -0.202 N 
ATOM     13  C   UNL     1      -1.435  -4.007   0.201  0.00  0.00    +0.263 C 
ATOM     14  O   UNL     1      -0.980  -5.134   0.190  0.00  0.00    -0.268 OA
ATOM     15  H   UNL     1      -0.973  -2.047   0.106  0.00  0.00    +0.178 HD
BRANCH  13  16
ATOM     16  C   UNL     1      -2.892  -3.799   0.328  0.00  0.00    +0.038 A 
ATOM     17  C   UNL     1      -3.417  -2.505   0.335  0.00  0.00    +0.014 A 
ATOM     18  C   UNL     1      -4.778  -2.318   0.453  0.00  0.00    +0.021 A 
ATOM     19  C   UNL     1      -5.623  -3.410   0.566  0.00  0.00    +0.041 A 
ATOM     20  C   UNL     1      -5.108  -4.696   0.559  0.00  0.00    +0.021 A 
ATOM     21  C   UNL     1      -3.749  -4.896   0.435  0.00  0.00    +0.014 A 
ATOM     22 CL   UNL     1      -7.336  -3.166   0.716  0.00  0.00    -0.084 Cl
ENDBRANCH  13  16
ENDBRANCH   8  12
BRANCH  11  23
ATOM     23  C   UNL     1       4.877  -0.441  -0.296  0.00  0.00    +0.201 C 
BRANCH  23  24
ATOM     24  N   UNL     1       5.566  -0.507   0.999  0.00  0.00    -0.286 NA
ATOM     25  C   UNL     1       7.009  -0.698   0.817  0.00  0.00    +0.091 C 
ATOM     26  C   UNL     1       7.717  -0.826   2.158  0.00  0.00    +0.024 C 
ATOM     27  C   UNL     1       7.416   0.381   3.050  0.00  0.00    +0.017 C 
ATOM     28  C   UNL     1       5.893   0.474   3.203  0.00  0.00    +0.050 C 
ATOM     29  C   UNL     1       5.287   0.690   1.807  0.00  0.00    +0.095 C 
ATOM     30  C   UNL     1       5.368  -0.837   3.743  0.00  0.00    +0.026 A 
ATOM     31  C   UNL     1       4.229  -0.798   4.484  0.00  0.00    +0.022 A 
ATOM     32  C   UNL     1       3.651  -1.980   4.961  0.00  0.00    +0.007 A 
ATOM     33  C   UNL     1       4.236  -3.173   4.647  0.00  0.00    +0.070 A 
ATOM     34  C   UNL     1       5.407  -3.177   3.878  0.00  0.00    +0.251 A 
ATOM     35  O   UNL     1       5.904  -4.239   3.538  0.00  0.00    -0.268 OA
ATOM     36  N   UNL     1       5.994  -2.012   3.506  0.00  0.00    -0.312 N 
ATOM     37  C   UNL     1       7.314  -2.095   2.890  0.00  0.00    +0.130 C 
ENDBRANCH  23  24
ENDBRANCH  11  23
TORSDOF 4
