REMARK  Name = ZINC21222585
REMARK  12 active torsions:
REMARK  status: ('A' for Active; 'I' for Inactive)
REMARK    1  A    between atoms: C_1  and  C_2
REMARK    2  A    between atoms: C_2  and  C_3
REMARK    3  A    between atoms: C_3  and  O_4
REMARK    4  A    between atoms: O_4  and  C_5
REMARK    5  A    between atoms: C_8  and  C_11
REMARK    6  A    between atoms: C_16  and  C_26
REMARK    7  A    between atoms: C_30  and  O_36
REMARK    8  A    between atoms: C_31  and  O_32
REMARK    9  A    between atoms: O_32  and  C_33
REMARK   10  A    between atoms: C_33  and  C_34
REMARK   11  A    between atoms: C_33  and  C_35
REMARK   12  A    between atoms: O_36  and  C_37
REMARK                            x       y       z     vdW  Elec       q    Type
REMARK                         _______ _______ _______ _____ _____    ______ ____
ROOT
ATOM      1  C   UNL     1       1.884   2.160  -0.140  0.00  0.00    +0.032 C 
ATOM      2  C   UNL     1       0.409   1.760  -0.150  0.00  0.00    +0.059 C 
ATOM      3  C   UNL     1       0.283   0.246  -0.114  0.00  0.00    +0.017 C 
ATOM      4  C   UNL     1       1.208  -0.528  -0.706  0.00  0.00    +0.037 C 
ATOM      5  C   UNL     1       1.195  -2.037  -0.766  0.00  0.00    +0.140 C 
ATOM      6  N   UNL     1       0.223  -2.663   0.104  0.00  0.00    -0.331 N 
ATOM      7  C   UNL     1      -1.145  -2.475  -0.092  0.00  0.00    +0.049 A 
ATOM      8  C   UNL     1      -1.976  -3.525  -0.448  0.00  0.00    +0.025 A 
ATOM      9  C   UNL     1      -3.319  -3.282  -0.676  0.00  0.00    +0.002 A 
ATOM     10  C   UNL     1      -3.829  -2.002  -0.555  0.00  0.00    +0.002 A 
ATOM     11  C   UNL     1      -3.005  -0.954  -0.184  0.00  0.00    +0.025 A 
ATOM     12  C   UNL     1      -1.666  -1.200   0.066  0.00  0.00    +0.052 A 
ATOM     13  N   UNL     1      -0.809  -0.217   0.545  0.00  0.00    -0.316 N 
ATOM     14  C   UNL     1       2.323   0.060  -1.350  0.00  0.00    +0.163 C 
ATOM     15  O   UNL     1       3.131  -0.663  -1.898  0.00  0.00    -0.292 OA
ATOM     16  C   UNL     1       2.542   1.543  -1.379  0.00  0.00    +0.088 C 
ATOM     17  H   UNL     1       0.558  -3.298   0.937  0.00  0.00    +0.147 HD
ATOM     18  H   UNL     1      -1.069   0.191   1.533  0.00  0.00    +0.152 HD
ENDROOT
BRANCH   1  22
ATOM     19  C   UNL     1       2.231   6.417  -0.281  0.00  0.00    +0.121 A 
ATOM     20  C   UNL     1       2.757   5.712   0.792  0.00  0.00    +0.046 A 
ATOM     21  C   UNL     1       2.643   4.336   0.836  0.00  0.00    +0.007 A 
ATOM     22  C   UNL     1       2.006   3.661  -0.190  0.00  0.00    -0.043 A 
ATOM     23  C   UNL     1       1.487   4.360  -1.263  0.00  0.00    +0.007 A 
ATOM     24  C   UNL     1       1.593   5.737  -1.309  0.00  0.00    +0.046 A 
BRANCH  19  25
ATOM     25  O   UNL     1       2.342   7.770  -0.326  0.00  0.00    -0.492 OA
BRANCH  25  26
ATOM     26  C   UNL     1       1.778   8.430  -1.461  0.00  0.00    +0.229 C 
BRANCH  26  28
ATOM     27  C   UNL     1       1.394  10.645  -2.551  0.00  0.00    +0.007 C 
ATOM     28  C   UNL     1       1.998   9.939  -1.336  0.00  0.00    +0.038 C 
ENDBRANCH  26  28
ENDBRANCH  25  26
ENDBRANCH  19  25
ENDBRANCH   1  22
BRANCH   5  29
ATOM     29  C   UNL     1       0.903  -2.456  -2.184  0.00  0.00    +0.023 A 
ATOM     30  C   UNL     1      -0.345  -2.221  -2.731  0.00  0.00    +0.009 A 
ATOM     31  C   UNL     1      -0.614  -2.599  -4.033  0.00  0.00    +0.004 A 
ATOM     32  C   UNL     1       0.360  -3.224  -4.790  0.00  0.00    +0.049 A 
ATOM     33  C   UNL     1       1.610  -3.468  -4.246  0.00  0.00    +0.162 A 
ATOM     34  C   UNL     1       1.883  -3.082  -2.937  0.00  0.00    +0.168 A 
BRANCH  33  35
ATOM     35  O   UNL     1       2.569  -4.083  -4.989  0.00  0.00    -0.491 OA
ATOM     36  C   UNL     1       2.218  -4.451  -6.325  0.00  0.00    +0.277 C 
ENDBRANCH  33  35
BRANCH  34  37
ATOM     37  O   UNL     1       3.109  -3.319  -2.398  0.00  0.00    -0.485 OA
BRANCH  37  38
ATOM     38  C   UNL     1       3.341  -4.624  -1.863  0.00  0.00    +0.168 C 
ATOM     39  C   UNL     1       4.839  -4.934  -1.907  0.00  0.00    +0.051 C 
ATOM     40  C   UNL     1       2.852  -4.675  -0.414  0.00  0.00    +0.051 C 
ENDBRANCH  37  38
ENDBRANCH  34  37
ENDBRANCH   5  29
TORSDOF 8
