REMARK  Name = ZINC22751328
REMARK  7 active torsions:
REMARK  status: ('A' for Active; 'I' for Inactive)
REMARK    1  A    between atoms: C_1  and  C_2
REMARK    2  A    between atoms: C_2  and  C_3
REMARK    3  A    between atoms: C_5  and  C_8
REMARK    4  A    between atoms: C_8  and  S_9
REMARK    5  A    between atoms: S_9  and  C_10
REMARK    6  A    between atoms: N_14  and  C_15
REMARK    7  A    between atoms: C_18  and  C_21
REMARK                            x       y       z     vdW  Elec       q    Type
REMARK                         _______ _______ _______ _____ _____    ______ ____
ROOT
ATOM      1  C   UNL     1       5.059   3.569   1.210  0.00  0.00    +0.198 A 
ATOM      2  N   UNL     1       5.574   2.377   1.394  0.00  0.00    -0.120 NA
ATOM      3  N   UNL     1       4.520   1.464   1.518  0.00  0.00    -0.112 NA
ATOM      4  C   UNL     1       3.394   2.123   1.398  0.00  0.00    +0.225 A 
ATOM      5  N   UNL     1       3.696   3.444   1.207  0.00  0.00    -0.259 N 
ATOM      6  N   UNL     1       2.118   1.578   1.459  0.00  0.00    -0.299 N 
ATOM      7  C   UNL     1       1.921   0.578   0.402  0.00  0.00    +0.108 C 
ATOM      8  C   UNL     1       0.465   0.107   0.408  0.00  0.00    +0.019 C 
ATOM      9  C   UNL     1       0.135  -0.497   1.776  0.00  0.00    +0.003 C 
ATOM     10  C   UNL     1       0.395   0.549   2.864  0.00  0.00    +0.019 C 
ATOM     11  C   UNL     1       1.853   1.008   2.786  0.00  0.00    +0.108 C 
ENDROOT
BRANCH   5  12
ATOM     12  C   UNL     1       2.772   4.486   1.039  0.00  0.00    +0.052 A 
ATOM     13  C   UNL     1       1.977   4.534  -0.098  0.00  0.00    +0.026 A 
ATOM     14  C   UNL     1       1.064   5.558  -0.258  0.00  0.00    +0.005 A 
ATOM     15  C   UNL     1       0.950   6.541   0.707  0.00  0.00    -0.050 A 
ATOM     16  C   UNL     1       1.745   6.500   1.838  0.00  0.00    +0.005 A 
ATOM     17  C   UNL     1       2.655   5.475   2.006  0.00  0.00    +0.026 A 
ATOM     18  C   UNL     1      -0.043   7.661   0.526  0.00  0.00    +0.044 C 
ENDBRANCH   5  12
BRANCH   1  19
ATOM     19  S   UNL     1       5.963   5.067   1.003  0.00  0.00    -0.076 S 
BRANCH  19  20
ATOM     20  C   UNL     1       7.699   4.551   1.106  0.00  0.00    +0.176 C 
BRANCH  20  23
ATOM     21  C   UNL     1       9.790   7.463   1.288  0.00  0.00    +0.172 A 
ATOM     22  N   UNL     1       9.038   6.531   1.900  0.00  0.00    -0.195 NA
ATOM     23  C   UNL     1       8.592   5.754   0.943  0.00  0.00    +0.238 A 
ATOM     24  O   UNL     1       9.084   6.229  -0.205  0.00  0.00    -0.337 OA
ATOM     25  N   UNL     1       9.762   7.211   0.014  0.00  0.00    -0.061 NA
BRANCH  21  27
ATOM     26  C   UNL     1      11.940   8.134   2.327  0.00  0.00    +0.012 C 
ATOM     27  C   UNL     1      10.528   8.594   1.958  0.00  0.00    +0.076 C 
ENDBRANCH  21  27
ENDBRANCH  20  23
ENDBRANCH  19  20
ENDBRANCH   1  19
TORSDOF 5
