REMARK  Name = ZINC21755368
REMARK  11 active torsions:
REMARK  status: ('A' for Active; 'I' for Inactive)
REMARK    1  A    between atoms: C_1  and  C_2
REMARK    2  A    between atoms: C_5  and  S_9
REMARK    3  A    between atoms: C_6  and  C_8
REMARK    4  A    between atoms: S_9  and  N_12
REMARK    5  A    between atoms: N_12  and  C_13
REMARK    6  A    between atoms: C_13  and  C_14
REMARK    7  A    between atoms: C_14  and  C_16
REMARK    8  A    between atoms: C_14  and  N_25
REMARK    9  A    between atoms: C_19  and  N_22
REMARK   10  A    between atoms: N_22  and  C_23
REMARK   11  A    between atoms: N_22  and  C_24
REMARK                            x       y       z     vdW  Elec       q    Type
REMARK                         _______ _______ _______ _____ _____    ______ ____
ROOT
ATOM      1  C   UNL     1       5.081   2.072  -3.206  0.00  0.00    -0.021 C 
ENDROOT
BRANCH   1   2
ATOM      2  N   UNL     1       4.698   1.546  -4.523  0.00  0.00    +0.388 N 
ATOM      3  C   UNL     1       5.573   2.080  -5.579  0.00  0.00    -0.073 C 
ATOM      4  C   UNL     1       5.379   1.239  -6.841  0.00  0.00    +0.017 C 
ATOM      5  C   UNL     1       3.911   1.114  -7.156  0.00  0.00    -0.048 A 
ATOM      6  C   UNL     1       3.539   0.703  -8.427  0.00  0.00    +0.004 A 
ATOM      7  C   UNL     1       2.205   0.567  -8.754  0.00  0.00    +0.000 A 
ATOM      8  C   UNL     1       1.234   0.843  -7.809  0.00  0.00    +0.000 A 
ATOM      9  C   UNL     1       1.603   1.255  -6.545  0.00  0.00    +0.002 A 
ATOM     10  C   UNL     1       2.943   1.393  -6.215  0.00  0.00    -0.061 A 
ATOM     11  C   UNL     1       3.295   1.849  -4.823  0.00  0.00    -0.042 C 
ATOM     12  H   UNL     1       4.815   0.452  -4.491  0.00  0.00    -0.080 HD
ENDBRANCH   1   2
BRANCH   1  13
ATOM     13  C   UNL     1       5.318   3.557  -3.309  0.00  0.00    -0.060 A 
ATOM     14  C   UNL     1       4.254   4.412  -3.530  0.00  0.00    +0.004 A 
ATOM     15  C   UNL     1       4.467   5.774  -3.619  0.00  0.00    +0.023 A 
ATOM     16  C   UNL     1       5.754   6.283  -3.497  0.00  0.00    +0.029 A 
ATOM     17  C   UNL     1       6.821   5.421  -3.280  0.00  0.00    +0.023 A 
ATOM     18  C   UNL     1       6.600   4.061  -3.187  0.00  0.00    +0.004 A 
BRANCH  16  19
ATOM     19  N   UNL     1       5.974   7.659  -3.592  0.00  0.00    -0.336 N 
ATOM     20  C   UNL     1       7.332   8.194  -3.464  0.00  0.00    +0.129 C 
ATOM     21  C   UNL     1       4.847   8.567  -3.821  0.00  0.00    +0.129 C 
ENDBRANCH  16  19
ENDBRANCH   1  13
BRANCH   1  22
ATOM     22  C   UNL     1       3.957   1.804  -2.203  0.00  0.00    +0.095 C 
BRANCH  22  23
ATOM     23  N   UNL     1       3.645   0.372  -2.192  0.00  0.00    -0.191 NA
ATOM     24  H   UNL     1       3.852  -0.243  -3.079  0.00  0.00    +0.148 HD
BRANCH  23  25
ATOM     25  S   UNL     1       2.759  -0.272  -0.950  0.00  0.00    +0.059 S 
ATOM     26  O   UNL     1       3.483  -0.010   0.244  0.00  0.00    -0.153 OA
ATOM     27  O   UNL     1       2.397  -1.587  -1.349  0.00  0.00    -0.153 OA
BRANCH  25  32
ATOM     28  C   UNL     1      -2.367   2.891  -0.587  0.00  0.00    +0.044 C 
ATOM     29  C   UNL     1      -1.087   2.101  -0.677  0.00  0.00    -0.050 A 
ATOM     30  C   UNL     1      -0.197   2.103   0.381  0.00  0.00    +0.005 A 
ATOM     31  C   UNL     1       0.980   1.383   0.295  0.00  0.00    +0.029 A 
ATOM     32  C   UNL     1       1.262   0.652  -0.844  0.00  0.00    +0.108 A 
ATOM     33  C   UNL     1       0.370   0.646  -1.900  0.00  0.00    -0.024 A 
ATOM     34  C   UNL     1      -0.805   1.371  -1.817  0.00  0.00    +0.008 A 
ATOM     35  C   UNL     1       0.677  -0.150  -3.142  0.00  0.00    +0.046 C 
ENDBRANCH  25  32
ENDBRANCH  23  25
ENDBRANCH  22  23
ENDBRANCH   1  22
TORSDOF 7
