REMARK  Name = ZINC35117085
REMARK  9 active torsions:
REMARK  status: ('A' for Active; 'I' for Inactive)
REMARK    1  A    between atoms: C_1  and  C_2
REMARK    2  A    between atoms: C_2  and  C_3
REMARK    3  A    between atoms: C_3  and  C_4
REMARK    4  A    between atoms: C_7  and  C_20
REMARK    5  A    between atoms: C_11  and  C_13
REMARK    6  A    between atoms: C_20  and  O_22
REMARK    7  A    between atoms: O_22  and  C_23
REMARK    8  A    between atoms: C_23  and  C_24
REMARK    9  A    between atoms: C_23  and  C_25
REMARK                            x       y       z     vdW  Elec       q    Type
REMARK                         _______ _______ _______ _____ _____    ______ ____
ROOT
ATOM      1  C   UNL     1      -1.104  -2.739  -1.397  0.00  0.00    +0.217 C 
ATOM      2  O   UNL     1      -0.216  -3.556  -1.273  0.00  0.00    -0.276 OA
ATOM      3  N   UNL     1      -2.302  -2.952  -0.818  0.00  0.00    -0.271 N 
ATOM      4  C   UNL     1      -2.604  -4.186  -0.098  0.00  0.00    +0.196 C 
ATOM      5  C   UNL     1      -3.603  -3.917   1.066  0.00  0.00    +0.105 C 
ATOM      6  S   UNL     1      -4.682  -2.679   0.215  0.00  0.00    -0.131 S 
ATOM      7  C   UNL     1      -3.384  -1.950  -0.869  0.00  0.00    +0.165 C 
ENDROOT
BRANCH   7   8
ATOM      8  C   UNL     1      -3.897  -1.792  -2.277  0.00  0.00    -0.016 A 
ATOM      9  C   UNL     1      -3.862  -2.864  -3.150  0.00  0.00    +0.006 A 
ATOM     10  C   UNL     1      -4.332  -2.720  -4.442  0.00  0.00    +0.002 A 
ATOM     11  C   UNL     1      -4.838  -1.504  -4.862  0.00  0.00    +0.020 A 
ATOM     12  C   UNL     1      -4.873  -0.431  -3.990  0.00  0.00    +0.041 A 
ATOM     13  C   UNL     1      -4.407  -0.578  -2.695  0.00  0.00    +0.026 A 
ATOM     14 CL   UNL     1      -5.507   1.096  -4.517  0.00  0.00    -0.084 Cl
ENDBRANCH   7   8
BRANCH   4  15
ATOM     15  C   UNL     1      -1.329  -4.755   0.467  0.00  0.00    +0.329 C 
ATOM     16  O   UNL     1      -0.523  -4.026   0.996  0.00  0.00    -0.249 OA
BRANCH  15  17
ATOM     17  O   UNL     1      -1.087  -6.073   0.384  0.00  0.00    -0.461 OA
BRANCH  17  18
ATOM     18  C   UNL     1       0.142  -6.544   0.941  0.00  0.00    +0.170 C 
ATOM     19  C   UNL     1      -0.072  -6.912   2.410  0.00  0.00    +0.052 C 
ATOM     20  C   UNL     1       0.611  -7.779   0.169  0.00  0.00    +0.052 C 
ENDBRANCH  17  18
ENDBRANCH  15  17
ENDBRANCH   4  15
BRANCH   1  21
ATOM     21  C   UNL     1      -0.866  -1.485  -2.198  0.00  0.00    +0.096 C 
BRANCH  21  23
ATOM     22  C   UNL     1       0.805  -0.216  -3.554  0.00  0.00    +0.004 C 
ATOM     23  C   UNL     1       0.564  -1.490  -2.741  0.00  0.00    +0.006 C 
ENDBRANCH  21  23
ENDBRANCH   1  21
TORSDOF 6
