REMARK  Name = ZINC09690856
REMARK  6 active torsions:
REMARK  status: ('A' for Active; 'I' for Inactive)
REMARK    1  A    between atoms: C_4  and  N_7
REMARK    2  A    between atoms: C_16  and  C_18
REMARK    3  A    between atoms: C_18  and  C_19
REMARK    4  A    between atoms: C_19  and  C_20
REMARK    5  A    between atoms: C_27  and  C_28
REMARK    6  A    between atoms: C_27  and  N_56
REMARK                            x       y       z     vdW  Elec       q    Type
REMARK                         _______ _______ _______ _____ _____    ______ ____
ROOT
ATOM      1  C   UNL     1      -2.122   0.104  -4.332  0.00  0.00    +0.083 C 
ENDROOT
BRANCH   1  11
ATOM      2  N   UNL     1      -4.183   3.700  -6.955  0.00  0.00    -0.214 N 
ATOM      3  C   UNL     1      -3.778   2.440  -6.637  0.00  0.00    +0.170 A 
ATOM      4  C   UNL     1      -4.182   1.611  -7.697  0.00  0.00    +0.103 A 
ATOM      5  C   UNL     1      -4.834   2.427  -8.640  0.00  0.00    +0.150 A 
ATOM      6  N   UNL     1      -4.830   3.654  -8.197  0.00  0.00    -0.172 NA
ATOM      7  C   UNL     1      -3.870   0.184  -7.612  0.00  0.00    +0.262 A 
ATOM      8  O   UNL     1      -4.194  -0.586  -8.499  0.00  0.00    -0.267 OA
ATOM      9  N   UNL     1      -3.204  -0.246  -6.516  0.00  0.00    -0.310 N 
ATOM     10  H   UNL     1      -2.976  -1.185  -6.427  0.00  0.00    +0.170 HD
ATOM     11  C   UNL     1      -2.858   0.629  -5.538  0.00  0.00    +0.113 A 
ATOM     12  N   UNL     1      -3.127   1.900  -5.596  0.00  0.00    -0.214 NA
BRANCH   2  16
ATOM     13  C   UNL     1      -3.597   7.111  -4.633  0.00  0.00    +0.000 A 
ATOM     14  C   UNL     1      -3.554   7.199  -6.012  0.00  0.00    +0.002 A 
ATOM     15  C   UNL     1      -3.748   6.071  -6.784  0.00  0.00    +0.028 A 
ATOM     16  C   UNL     1      -3.986   4.846  -6.175  0.00  0.00    +0.068 A 
ATOM     17  C   UNL     1      -4.034   4.761  -4.789  0.00  0.00    +0.028 A 
ATOM     18  C   UNL     1      -3.834   5.892  -4.022  0.00  0.00    +0.002 A 
ENDBRANCH   2  16
ENDBRANCH   1  11
BRANCH   1  19
ATOM     19  C   UNL     1      -1.831   1.258  -3.371  0.00  0.00    +0.103 C 
BRANCH  19  20
ATOM     20  C   UNL     1      -1.095   0.734  -2.164  0.00  0.00    +0.216 C 
ATOM     21  O   UNL     1      -0.829  -0.447  -2.082  0.00  0.00    -0.276 OA
ATOM     22  N   UNL     1      -0.732   1.577  -1.178  0.00  0.00    -0.305 N 
ATOM     23  C   UNL     1      -0.013   1.086   0.008  0.00  0.00    +0.089 C 
ATOM     24  C   UNL     1      -0.738   1.584   1.263  0.00  0.00    -0.059 C 
ATOM     25  C   UNL     1      -1.732   3.434   0.044  0.00  0.00    -0.059 C 
ATOM     26  C   UNL     1      -1.043   3.012  -1.258  0.00  0.00    +0.089 C 
ATOM     27  N   UNL     1      -0.866   3.056   1.184  0.00  0.00    +0.385 N 
ATOM     28  H   UNL     1       0.066   3.464   1.043  0.00  0.00    -0.081 HD
BRANCH  27  29
ATOM     29  C   UNL     1      -1.434   3.580   2.443  0.00  0.00    -0.035 C 
BRANCH  29  30
ATOM     30  C   UNL     1      -0.432   3.373   3.549  0.00  0.00    -0.025 A 
ATOM     31  C   UNL     1       0.567   4.191   3.960  0.00  0.00    +0.011 A 
ATOM     32  C   UNL     1       1.373   3.791   5.009  0.00  0.00    +0.028 A 
ATOM     33  C   UNL     1       1.141   2.589   5.595  0.00  0.00    +0.078 A 
ATOM     34  S   UNL     1      -0.258   1.988   4.663  0.00  0.00    -0.084 S 
ATOM     35 CL   UNL     1       1.980   1.836   6.915  0.00  0.00    -0.076 Cl
ENDBRANCH  29  30
ENDBRANCH  27  29
ENDBRANCH  19  20
ENDBRANCH   1  19
TORSDOF 6
