REMARK  Name = ZINC02344020
REMARK  6 active torsions:
REMARK  status: ('A' for Active; 'I' for Inactive)
REMARK    1  A    between atoms: C_1  and  C_2
REMARK    2  A    between atoms: C_2  and  C_3
REMARK    3  A    between atoms: N_7  and  C_16
REMARK    4  A    between atoms: C_9  and  C_10
REMARK    5  A    between atoms: C_9  and  C_12
REMARK    6  A    between atoms: C_19  and  C_22
REMARK                            x       y       z     vdW  Elec       q    Type
REMARK                         _______ _______ _______ _____ _____    ______ ____
ROOT
ATOM      1  C   UNL     1       1.013  -0.431  -2.063  0.00  0.00    +0.139 C 
ATOM      2  C   UNL     1       1.155  -1.898  -2.438  0.00  0.00    +0.238 C 
ATOM      3  O   UNL     1       0.391  -2.444  -3.205  0.00  0.00    -0.274 OA
ATOM      4  N   UNL     1       2.164  -2.539  -1.874  0.00  0.00    -0.232 N 
ATOM      5  C   UNL     1       3.034  -1.928  -1.004  0.00  0.00    +0.098 C 
ATOM      6  C   UNL     1       4.129  -2.488  -0.345  0.00  0.00    +0.141 C 
ATOM      7  S   UNL     1       2.432  -0.248  -0.912  0.00  0.00    -0.095 S 
ENDROOT
BRANCH   4   8
ATOM      8  C   UNL     1       2.354  -3.895  -2.175  0.00  0.00    +0.042 A 
ATOM      9  C   UNL     1       3.253  -4.268  -3.165  0.00  0.00    +0.024 A 
ATOM     10  C   UNL     1       3.442  -5.605  -3.456  0.00  0.00    +0.005 A 
ATOM     11  C   UNL     1       2.728  -6.571  -2.771  0.00  0.00    -0.050 A 
ATOM     12  C   UNL     1       1.827  -6.202  -1.788  0.00  0.00    +0.005 A 
ATOM     13  C   UNL     1       1.638  -4.867  -1.489  0.00  0.00    +0.024 A 
ATOM     14  C   UNL     1       2.931  -8.028  -3.095  0.00  0.00    +0.044 C 
ENDBRANCH   4   8
BRANCH   6  15
ATOM     15  C   UNL     1       4.387  -3.924  -0.446  0.00  0.00    +0.254 C 
ATOM     16  O   UNL     1       5.227  -4.338  -1.225  0.00  0.00    -0.270 OA
ATOM     17  N   UNL     1       3.696  -4.788   0.323  0.00  0.00    -0.325 N 
ATOM     18  H   UNL     1       3.028  -4.458   0.943  0.00  0.00    +0.145 HD
ATOM     19  H   UNL     1       3.868  -5.741   0.256  0.00  0.00    +0.145 HD
ENDBRANCH   6  15
BRANCH   1  21
ATOM     20  C   UNL     1      -0.472   1.335  -1.105  0.00  0.00    +0.005 C 
ATOM     21  C   UNL     1      -0.316  -0.167  -1.351  0.00  0.00    +0.020 C 
ENDBRANCH   1  21
BRANCH   6  22
ATOM     22  C   UNL     1       5.000  -1.656   0.429  0.00  0.00    +0.107 C 
ATOM     23  N   UNL     1       5.692  -0.997   1.044  0.00  0.00    -0.191 NA
ENDBRANCH   6  22
TORSDOF 4
