REMARK  Name = ZINC63626018
REMARK  10 active torsions:
REMARK  status: ('A' for Active; 'I' for Inactive)
REMARK    1  A    between atoms: C_1  and  C_2
REMARK    2  A    between atoms: C_2  and  O_3
REMARK    3  A    between atoms: O_3  and  C_4
REMARK    4  A    between atoms: C_9  and  S_14
REMARK    5  A    between atoms: S_14  and  C_15
REMARK    6  A    between atoms: C_15  and  C_17
REMARK    7  A    between atoms: C_15  and  C_23
REMARK    8  A    between atoms: N_25  and  C_26
REMARK    9  A    between atoms: C_29  and  S_32
REMARK   10  A    between atoms: S_32  and  N_35
REMARK                            x       y       z     vdW  Elec       q    Type
REMARK                         _______ _______ _______ _____ _____    ______ ____
ROOT
ATOM      1  C   UNL     1      -0.578  -5.820   4.486  0.00  0.00    +0.166 C 
ENDROOT
BRANCH   1   2
ATOM      2  C   UNL     1      -1.316  -5.947   3.178  0.00  0.00    -0.026 A 
ATOM      3  C   UNL     1      -1.713  -7.192   2.727  0.00  0.00    +0.005 A 
ATOM      4  C   UNL     1      -2.390  -7.309   1.527  0.00  0.00    +0.000 A 
ATOM      5  C   UNL     1      -2.671  -6.181   0.780  0.00  0.00    +0.000 A 
ATOM      6  C   UNL     1      -2.275  -4.936   1.232  0.00  0.00    +0.000 A 
ATOM      7  C   UNL     1      -1.602  -4.819   2.433  0.00  0.00    +0.005 A 
ENDBRANCH   1   2
BRANCH   1   8
ATOM      8  C   UNL     1      -1.434  -6.362   5.601  0.00  0.00    +0.235 C 
ATOM      9  O   UNL     1      -1.237  -7.479   6.030  0.00  0.00    -0.274 OA
ATOM     10  N   UNL     1      -2.420  -5.605   6.123  0.00  0.00    -0.284 N 
ATOM     11  H   UNL     1      -2.535  -4.688   5.827  0.00  0.00    +0.155 HD
BRANCH  10  12
ATOM     12  C   UNL     1      -3.277  -6.141   7.090  0.00  0.00    +0.034 A 
ATOM     13  C   UNL     1      -4.615  -5.771   7.117  0.00  0.00    +0.025 A 
ATOM     14  C   UNL     1      -5.458  -6.302   8.073  0.00  0.00    +0.030 A 
ATOM     15  C   UNL     1      -4.971  -7.202   9.003  0.00  0.00    +0.105 A 
ATOM     16  C   UNL     1      -3.639  -7.572   8.980  0.00  0.00    +0.030 A 
ATOM     17  C   UNL     1      -2.792  -7.049   8.023  0.00  0.00    +0.025 A 
BRANCH  15  18
ATOM     18  S   UNL     1      -6.051  -7.877  10.221  0.00  0.00    +0.056 S 
ATOM     19  O   UNL     1      -5.232  -8.276  11.312  0.00  0.00    -0.153 OA
ATOM     20  O   UNL     1      -7.122  -6.956  10.370  0.00  0.00    -0.153 OA
BRANCH  18  21
ATOM     21  N   UNL     1      -6.701  -9.261   9.586  0.00  0.00    -0.204 NA
ATOM     22  H   UNL     1      -6.950  -9.993  10.172  0.00  0.00    +0.144 HD
ATOM     23  H   UNL     1      -6.832  -9.340   8.628  0.00  0.00    +0.144 HD
ENDBRANCH  18  21
ENDBRANCH  15  18
ENDBRANCH  10  12
ENDBRANCH   1   8
BRANCH   1  24
ATOM     24  S   UNL     1       0.970  -6.762   4.400  0.00  0.00    -0.097 S 
BRANCH  24  30
ATOM     25  C   UNL     1       0.830  -1.806   1.337  0.00  0.00    +0.123 A 
ATOM     26  C   UNL     1       0.253  -2.669   0.315  0.00  0.00    +0.048 A 
ATOM     27  C   UNL     1       0.322  -4.011   0.396  0.00  0.00    +0.031 A 
ATOM     28  C   UNL     1       0.997  -4.640   1.541  0.00  0.00    +0.061 A 
ATOM     29  N   UNL     1       1.202  -5.886   1.861  0.00  0.00    -0.355 N 
ATOM     30  C   UNL     1       1.938  -5.901   3.130  0.00  0.00    +0.236 C 
ATOM     31  N   UNL     1       2.136  -4.497   3.512  0.00  0.00    -0.355 N 
ATOM     32  C   UNL     1       1.587  -3.760   2.585  0.00  0.00    +0.064 A 
ATOM     33  C   UNL     1       1.472  -2.309   2.419  0.00  0.00    +0.073 A 
ATOM     34  H   UNL     1       0.920  -6.662   1.352  0.00  0.00    +0.162 HD
ATOM     35  H   UNL     1       2.591  -4.177   4.306  0.00  0.00    +0.162 HD
BRANCH  25  36
ATOM     36  O   UNL     1       0.727  -0.460   1.199  0.00  0.00    -0.492 OA
BRANCH  36  38
ATOM     37  C   UNL     1       0.026   1.552   0.059  0.00  0.00    +0.048 C 
ATOM     38  C   UNL     1       0.041   0.022   0.042  0.00  0.00    +0.225 C 
ENDBRANCH  36  38
ENDBRANCH  25  36
ENDBRANCH  24  30
ENDBRANCH   1  24
TORSDOF 9
