REMARK  Name = ZINC06490286
REMARK  6 active torsions:
REMARK  status: ('A' for Active; 'I' for Inactive)
REMARK    1  A    between atoms: C_1  and  C_2
REMARK    2  A    between atoms: C_2  and  N_3
REMARK    3  A    between atoms: C_5  and  C_8
REMARK    4  A    between atoms: C_23  and  C_33
REMARK    5  A    between atoms: C_28  and  C_32
REMARK    6  A    between atoms: C_29  and  O_31
REMARK                            x       y       z     vdW  Elec       q    Type
REMARK                         _______ _______ _______ _____ _____    ______ ____
ROOT
ATOM      1  C   UNL     1       2.369  -3.524  -2.609  0.00  0.00    +0.013 C 
ATOM      2  C   UNL     1       2.095  -2.259  -2.321  0.00  0.00    -0.040 C 
ATOM      3  C   UNL     1       2.930  -1.038  -2.710  0.00  0.00    +0.037 C 
ATOM      4  C   UNL     1       2.454   0.038  -1.727  0.00  0.00    +0.005 C 
ATOM      5  C   UNL     1       2.708   1.474  -2.103  0.00  0.00    -0.003 C 
ATOM      6  C   UNL     1       4.202   1.739  -2.270  0.00  0.00    +0.004 C 
ATOM      7  C   UNL     1       4.883   1.736  -0.901  0.00  0.00    +0.004 C 
ATOM      8  C   UNL     1       4.312   2.911  -0.104  0.00  0.00    -0.005 C 
ATOM      9  C   UNL     1       5.110   3.103   1.181  0.00  0.00    +0.004 C 
ATOM     10  C   UNL     1       4.917   1.901   2.106  0.00  0.00    +0.000 C 
ATOM     11  C   UNL     1       3.435   1.760   2.452  0.00  0.00    +0.001 C 
ATOM     12  C   UNL     1       2.626   1.545   1.172  0.00  0.00    +0.007 C 
ATOM     13  C   UNL     1       2.831   2.679   0.176  0.00  0.00    -0.026 C 
ATOM     14  C   UNL     1       2.054   2.424  -1.111  0.00  0.00    -0.001 C 
ATOM     15  C   UNL     1       0.601   2.069  -0.819  0.00  0.00    +0.005 C 
ATOM     16  C   UNL     1       0.347   0.582  -0.563  0.00  0.00    +0.010 C 
ATOM     17  C   UNL     1       0.930  -0.229  -1.697  0.00  0.00    +0.001 C 
ATOM     18  C   UNL     1       0.888  -1.752  -1.538  0.00  0.00    +0.147 C 
ATOM     19  C   UNL     1       0.255   0.136  -3.018  0.00  0.00    +0.014 C 
ATOM     20  C   UNL     1       2.277   3.981   0.800  0.00  0.00    +0.012 C 
ENDROOT
BRANCH   1  23
ATOM     21  N   UNL     1       0.406  -6.535  -2.122  0.00  0.00    -0.271 N 
ATOM     22  C   UNL     1       1.497  -5.909  -2.607  0.00  0.00    +0.116 A 
ATOM     23  C   UNL     1       1.394  -4.586  -2.278  0.00  0.00    +0.012 A 
ATOM     24  C   UNL     1       0.192  -4.420  -1.561  0.00  0.00    +0.142 A 
ATOM     25  N   UNL     1      -0.395  -5.585  -1.477  0.00  0.00    -0.179 NA
BRANCH  21  27
ATOM     26  C   UNL     1      -0.128  -8.560  -0.859  0.00  0.00    +0.029 C 
ATOM     27  C   UNL     1       0.110  -7.964  -2.248  0.00  0.00    +0.140 C 
ENDBRANCH  21  27
ENDBRANCH   1  23
BRANCH  18  28
ATOM     28  O   UNL     1       0.997  -2.108  -0.161  0.00  0.00    -0.387 OA
ATOM     29  H   UNL     1       1.162  -3.049  -0.010  0.00  0.00    +0.210 HD
ENDBRANCH  18  28
TORSDOF 3
