REMARK  Name = ZINC20943246
REMARK  3 active torsions:
REMARK  status: ('A' for Active; 'I' for Inactive)
REMARK    1  A    between atoms: C_6  and  S_7
REMARK    2  A    between atoms: S_7  and  N_10
REMARK    3  A    between atoms: C_14  and  C_17
REMARK                            x       y       z     vdW  Elec       q    Type
REMARK                         _______ _______ _______ _____ _____    ______ ____
ROOT
ATOM      1  N   UNL     1      -3.512   4.109  -1.156  0.00  0.00    -0.176 NA
ATOM      2  C   UNL     1      -2.727   5.082  -1.928  0.00  0.00    +0.109 C 
ATOM      3  C   UNL     1      -3.657   5.826  -2.884  0.00  0.00    +0.018 C 
ATOM      4  C   UNL     1      -4.422   4.813  -3.740  0.00  0.00    +0.015 C 
ATOM      5  C   UNL     1      -5.271   3.917  -2.835  0.00  0.00    +0.091 C 
ATOM      6  C   UNL     1      -4.355   3.148  -1.879  0.00  0.00    +0.122 C 
ENDROOT
BRANCH   5   7
ATOM      7  C   UNL     1      -6.049   2.941  -3.680  0.00  0.00    +0.220 C 
ATOM      8  O   UNL     1      -5.614   1.826  -3.874  0.00  0.00    -0.275 OA
ATOM      9  N   UNL     1      -7.228   3.308  -4.220  0.00  0.00    -0.301 N 
ATOM     10  C   UNL     1      -7.716   4.687  -4.085  0.00  0.00    +0.113 C 
ATOM     11  C   UNL     1      -9.125   4.661  -3.494  0.00  0.00    +0.084 C 
ATOM     12  C   UNL     1     -10.016   3.755  -4.347  0.00  0.00    +0.173 C 
ATOM     13  C   UNL     1      -9.460   2.329  -4.347  0.00  0.00    +0.084 C 
ATOM     14  C   UNL     1      -8.052   2.335  -4.950  0.00  0.00    +0.113 C 
ATOM     15  O   UNL     1     -11.347   3.752  -3.817  0.00  0.00    -0.346 OA
ATOM     16  C   UNL     1     -12.222   4.239  -4.856  0.00  0.00    +0.191 C 
ATOM     17  C   UNL     1     -11.403   3.993  -6.148  0.00  0.00    +0.191 C 
ATOM     18  O   UNL     1     -10.052   4.252  -5.694  0.00  0.00    -0.346 OA
ENDBRANCH   5   7
BRANCH   1  19
ATOM     19  S   UNL     1      -3.453   4.103   0.499  0.00  0.00    +0.061 S 
ATOM     20  O   UNL     1      -4.663   3.506   0.946  0.00  0.00    -0.153 OA
ATOM     21  O   UNL     1      -3.055   5.407   0.897  0.00  0.00    -0.153 OA
BRANCH  19  27
ATOM     22  C   UNL     1      -2.406   1.669   1.174  0.00  0.00    +0.030 A 
ATOM     23  C   UNL     1      -1.380   0.833   1.542  0.00  0.00    +0.025 A 
ATOM     24  C   UNL     1      -0.069   1.311   1.713  0.00  0.00    +0.037 A 
ATOM     25  C   UNL     1       0.179   2.652   1.507  0.00  0.00    -0.024 A 
ATOM     26  C   UNL     1      -0.871   3.491   1.132  0.00  0.00    +0.034 A 
ATOM     27  C   UNL     1      -2.151   3.013   0.970  0.00  0.00    +0.106 A 
ATOM     28  C   UNL     1       1.509   3.315   1.659  0.00  0.00    +0.037 C 
ATOM     29  C   UNL     1       2.378   2.787   2.757  0.00  0.00    +0.014 C 
ATOM     30  C   UNL     1       3.057   1.483   2.413  0.00  0.00    +0.096 C 
ATOM     31  C   UNL     1       2.106   0.341   2.427  0.00  0.00    +0.217 C 
ATOM     32  O   UNL     1       2.541  -0.719   2.825  0.00  0.00    -0.275 OA
ATOM     33  N   UNL     1       0.856   0.354   2.061  0.00  0.00    -0.285 N 
ATOM     34  H   UNL     1       0.572  -0.709   2.063  0.00  0.00    +0.155 HD
ENDBRANCH  19  27
ENDBRANCH   1  19
TORSDOF 3
