REMARK  Name = ZINC64244836
REMARK  6 active torsions:
REMARK  status: ('A' for Active; 'I' for Inactive)
REMARK    1  A    between atoms: C_4  and  C_7
REMARK    2  A    between atoms: C_7  and  C_8
REMARK    3  A    between atoms: C_8  and  N_9
REMARK    4  A    between atoms: N_12  and  S_15
REMARK    5  A    between atoms: S_15  and  C_18
REMARK    6  A    between atoms: C_21  and  N_23
REMARK                            x       y       z     vdW  Elec       q    Type
REMARK                         _______ _______ _______ _____ _____    ______ ____
ROOT
ATOM      1  N   UNL     1       5.453  -1.680   1.382  0.00  0.00    -0.299 NA
ATOM      2  C   UNL     1       6.517  -0.844   0.810  0.00  0.00    +0.101 C 
ATOM      3  C   UNL     1       7.788  -1.683   0.643  0.00  0.00    +0.125 C 
ATOM      4  N   UNL     1       8.112  -2.303   1.937  0.00  0.00    -0.174 NA
ATOM      5  C   UNL     1       7.053  -3.045   2.638  0.00  0.00    +0.125 C 
ATOM      6  C   UNL     1       5.811  -2.152   2.727  0.00  0.00    +0.101 C 
ENDROOT
BRANCH   4   7
ATOM      7  S   UNL     1       9.630  -2.171   2.587  0.00  0.00    +0.067 S 
ATOM      8  O   UNL     1       9.790  -3.272   3.471  0.00  0.00    -0.152 OA
ATOM      9  O   UNL     1      10.516  -1.928   1.503  0.00  0.00    -0.152 OA
BRANCH   7  10
ATOM     10  C   UNL     1       9.644  -0.718   3.584  0.00  0.00    +0.145 A 
ATOM     11  C   UNL     1       9.350  -0.583   4.900  0.00  0.00    +0.038 A 
ATOM     12  C   UNL     1       9.430   0.669   5.480  0.00  0.00    +0.042 A 
ATOM     13  C   UNL     1       9.800   1.725   4.715  0.00  0.00    +0.165 A 
ATOM     14  S   UNL     1      10.058   0.957   3.124  0.00  0.00    -0.045 S 
BRANCH  13  15
ATOM     15  N   UNL     1       9.957   3.146   5.100  0.00  0.00    +0.063 N 
ATOM     16  O   UNL     1       9.742   3.491   6.239  0.00  0.00    -0.126 OA
ATOM     17  O   UNL     1      10.299   3.962   4.276  0.00  0.00    -0.126 OA
ENDBRANCH  13  15
ENDBRANCH   7  10
ENDBRANCH   4   7
BRANCH   1  18
ATOM     18  C   UNL     1       4.171  -0.963   1.399  0.00  0.00    +0.089 C 
BRANCH  18  19
ATOM     19  C   UNL     1       3.711  -0.707  -0.038  0.00  0.00    +0.050 C 
BRANCH  19  23
ATOM     20  C   UNL     1      -0.017   1.378   0.010  0.00  0.00    +0.000 A 
ATOM     21  C   UNL     1       1.171   2.086   0.002  0.00  0.00    +0.000 A 
ATOM     22  C   UNL     1       2.377   1.411  -0.013  0.00  0.00    +0.003 A 
ATOM     23  C   UNL     1       2.396   0.029  -0.020  0.00  0.00    -0.046 A 
ATOM     24  C   UNL     1       1.208  -0.679  -0.012  0.00  0.00    +0.003 A 
ATOM     25  C   UNL     1       0.002  -0.004   0.002  0.00  0.00    +0.000 A 
ENDBRANCH  19  23
ENDBRANCH  18  19
ENDBRANCH   1  18
TORSDOF 6
