REMARK  Name = ZINC19880922
REMARK  4 active torsions:
REMARK  status: ('A' for Active; 'I' for Inactive)
REMARK    1  A    between atoms: C_3  and  O_24
REMARK    2  A    between atoms: C_6  and  C_7
REMARK    3  A    between atoms: C_10  and  C_17
REMARK    4  A    between atoms: O_24  and  C_25
REMARK                            x       y       z     vdW  Elec       q    Type
REMARK                         _______ _______ _______ _____ _____    ______ ____
ROOT
ATOM      1  C   UNL     1      -1.293  -0.774   0.011  0.00  0.00    +0.165 C 
ATOM      2  C   UNL     1      -1.350  -1.644   1.237  0.00  0.00    +0.028 C 
ATOM      3  C   UNL     1      -1.223  -2.963   1.201  0.00  0.00    +0.039 C 
ATOM      4  N   UNL     1      -1.031  -3.658  -0.001  0.00  0.00    -0.283 N 
ATOM      5  C   UNL     1      -1.242  -2.955  -1.177  0.00  0.00    +0.219 A 
ATOM      6  N   UNL     1      -1.372  -1.606  -1.187  0.00  0.00    -0.222 N 
ATOM      7  N   UNL     1      -1.579  -1.239  -2.516  0.00  0.00    -0.156 NA
ATOM      8  C   UNL     1      -1.559  -2.343  -3.220  0.00  0.00    +0.247 A 
ATOM      9  N   UNL     1      -1.353  -3.380  -2.406  0.00  0.00    -0.201 NA
ATOM     10  H   UNL     1      -0.763  -4.590  -0.009  0.00  0.00    +0.155 HD
ENDROOT
BRANCH   3  11
ATOM     11  C   UNL     1      -1.286  -3.726   2.469  0.00  0.00    -0.004 A 
ATOM     12  C   UNL     1      -1.482  -3.058   3.678  0.00  0.00    +0.012 A 
ATOM     13  C   UNL     1      -1.540  -3.772   4.856  0.00  0.00    +0.039 A 
ATOM     14  C   UNL     1      -1.404  -5.151   4.841  0.00  0.00    +0.123 A 
ATOM     15  C   UNL     1      -1.209  -5.819   3.643  0.00  0.00    +0.039 A 
ATOM     16  C   UNL     1      -1.155  -5.114   2.458  0.00  0.00    +0.012 A 
ATOM     17  F   UNL     1      -1.461  -5.846   5.998  0.00  0.00    -0.205 F 
ENDBRANCH   3  11
BRANCH   1  23
ATOM     18  C   UNL     1      -0.017   1.378   0.010  0.00  0.00    +0.009 A 
ATOM     19  C   UNL     1       1.169   2.087   0.002  0.00  0.00    +0.046 A 
ATOM     20  C   UNL     1       2.380   1.409  -0.013  0.00  0.00    +0.127 A 
ATOM     21  C   UNL     1       2.396   0.022  -0.021  0.00  0.00    +0.046 A 
ATOM     22  C   UNL     1       1.207  -0.681  -0.013  0.00  0.00    +0.009 A 
ATOM     23  C   UNL     1       0.002  -0.004   0.002  0.00  0.00    -0.019 A 
BRANCH  20  24
ATOM     24  O   UNL     1       3.548   2.104  -0.021  0.00  0.00    -0.434 OA
BRANCH  24  25
ATOM     25  C   UNL     1       4.756   1.341  -0.036  0.00  0.00    +0.541 C 
ATOM     26  F   UNL     1       4.810   0.528   1.101  0.00  0.00    -0.166 F 
ATOM     27  F   UNL     1       4.787   0.540  -1.183  0.00  0.00    -0.166 F 
ENDBRANCH  24  25
ENDBRANCH  20  24
ENDBRANCH   1  23
TORSDOF 4
