REMARK  Name = ZINC37971556
REMARK  3 active torsions:
REMARK  status: ('A' for Active; 'I' for Inactive)
REMARK    1  A    between atoms: C_7  and  C_11
REMARK    2  A    between atoms: C_7  and  N_14
REMARK    3  A    between atoms: N_14  and  C_15
REMARK                            x       y       z     vdW  Elec       q    Type
REMARK                         _______ _______ _______ _____ _____    ______ ____
ROOT
ATOM      1  C   UNL     1       1.455  -2.480   3.255  0.00  0.00    +0.000 A 
ATOM      2  C   UNL     1       2.728  -2.872   3.627  0.00  0.00    +0.004 A 
ATOM      3  C   UNL     1       3.660  -3.189   2.660  0.00  0.00    +0.046 A 
ATOM      4  C   UNL     1       3.324  -3.116   1.312  0.00  0.00    +0.123 A 
ATOM      5  C   UNL     1       2.049  -2.727   0.944  0.00  0.00    -0.006 A 
ATOM      6  C   UNL     1       1.117  -2.407   1.918  0.00  0.00    +0.006 A 
ATOM      7  C   UNL     1       1.640  -2.646  -0.505  0.00  0.00    +0.068 C 
ATOM      8  C   UNL     1       2.887  -2.603  -1.391  0.00  0.00    +0.044 C 
ATOM      9  C   UNL     1       3.837  -3.719  -0.940  0.00  0.00    +0.228 C 
ATOM     10  O   UNL     1       4.271  -3.431   0.390  0.00  0.00    -0.492 OA
ENDROOT
BRANCH   7  11
ATOM     11  C   UNL     1       0.824  -1.398  -0.727  0.00  0.00    +0.350 C 
ATOM     12  O   UNL     1       1.317  -0.442  -1.303  0.00  0.00    -0.248 OA
ATOM     13  O   UNL     1      -0.328  -1.343  -0.331  0.00  0.00    -0.248 OA
ENDBRANCH   7  11
BRANCH   7  14
ATOM     14  N   UNL     1       0.833  -3.823  -0.852  0.00  0.00    +0.395 N 
ATOM     15  H   UNL     1       1.328  -4.661  -0.583  0.00  0.00    -0.083 HD
ATOM     16  H   UNL     1      -0.049  -3.782  -0.364  0.00  0.00    -0.083 HD
BRANCH  14  17
ATOM     17  C   UNL     1       0.591  -3.841  -2.301  0.00  0.00    -0.070 C 
ATOM     18  C   UNL     1      -0.336  -2.684  -2.678  0.00  0.00    -0.016 C 
ATOM     19  C   UNL     1      -0.588  -2.703  -4.187  0.00  0.00    -0.002 C 
ATOM     20  C   UNL     1      -1.243  -4.030  -4.578  0.00  0.00    -0.000 C 
ATOM     21  C   UNL     1      -0.315  -5.187  -4.201  0.00  0.00    -0.002 C 
ATOM     22  C   UNL     1      -0.063  -5.168  -2.692  0.00  0.00    -0.016 C 
ENDBRANCH  14  17
ENDBRANCH   7  14
TORSDOF 3
