REMARK  Name = ZINC07209240
REMARK  4 active torsions:
REMARK  status: ('A' for Active; 'I' for Inactive)
REMARK    1  A    between atoms: C_1  and  O_2
REMARK    2  A    between atoms: O_2  and  C_3
REMARK    3  A    between atoms: C_6  and  C_10
REMARK    4  A    between atoms: N_17  and  C_18
REMARK                            x       y       z     vdW  Elec       q    Type
REMARK                         _______ _______ _______ _____ _____    ______ ____
ROOT
ATOM      1  C   UNL     1      -4.951  -2.612   0.035  0.00  0.00    +0.028 C 
ATOM      2  C   UNL     1      -5.008  -3.964  -0.069  0.00  0.00    +0.079 C 
ATOM      3  C   UNL     1      -6.182  -4.859  -0.188  0.00  0.00    +0.276 C 
ATOM      4  O   UNL     1      -7.323  -4.425  -0.206  0.00  0.00    -0.267 OA
ATOM      5  N   UNL     1      -5.928  -6.146  -0.273  0.00  0.00    -0.154 NA
ATOM      6  C   UNL     1      -4.697  -6.630  -0.255  0.00  0.00    +0.152 C 
ATOM      7  S   UNL     1      -3.684  -5.166  -0.108  0.00  0.00    -0.052 S 
ATOM      8  N   UNL     1      -4.295  -7.937  -0.335  0.00  0.00    -0.322 N 
ATOM      9  H   UNL     1      -3.351  -8.157  -0.309  0.00  0.00    +0.148 HD
ENDROOT
BRANCH   1  13
ATOM     10  C   UNL     1      -1.210  -0.625  -0.162  0.00  0.00    +0.134 A 
ATOM     11  C   UNL     1      -1.288  -1.985  -0.440  0.00  0.00    +0.047 A 
ATOM     12  C   UNL     1      -2.500  -2.635  -0.378  0.00  0.00    +0.011 A 
ATOM     13  C   UNL     1      -3.656  -1.924  -0.032  0.00  0.00    -0.023 A 
ATOM     14  C   UNL     1      -3.573  -0.554   0.247  0.00  0.00    +0.027 A 
ATOM     15  C   UNL     1      -2.354   0.085   0.187  0.00  0.00    +0.060 A 
ATOM     16 BR   UNL     1      -2.238   1.933   0.571  0.00  0.00    -0.047 Br
BRANCH  10  18
ATOM     17  C   UNL     1       1.122  -0.777  -0.589  0.00  0.00    +0.277 C 
ATOM     18  O   UNL     1      -0.013   0.011  -0.225  0.00  0.00    -0.494 OA
ENDBRANCH  10  18
ENDBRANCH   1  13
BRANCH   8  19
ATOM     19  C   UNL     1      -5.292  -9.003  -0.459  0.00  0.00    +0.072 C 
ATOM     20  C   UNL     1      -5.795  -9.396   0.931  0.00  0.00    +0.022 C 
ATOM     21  C   UNL     1      -6.836 -10.509   0.802  0.00  0.00    +0.002 C 
ATOM     22  C   UNL     1      -6.200 -11.726   0.127  0.00  0.00    +0.000 C 
ATOM     23  C   UNL     1      -5.697 -11.334  -1.264  0.00  0.00    +0.002 C 
ATOM     24  C   UNL     1      -4.656 -10.220  -1.134  0.00  0.00    +0.022 C 
ENDBRANCH   8  19
TORSDOF 3
