REMARK  Name = ZINC20466531
REMARK  9 active torsions:
REMARK  status: ('A' for Active; 'I' for Inactive)
REMARK    1  A    between atoms: C_1  and  C_2
REMARK    2  A    between atoms: C_4  and  N_28
REMARK    3  A    between atoms: C_8  and  C_27
REMARK    4  A    between atoms: C_11  and  O_26
REMARK    5  A    between atoms: C_13  and  C_17
REMARK    6  A    between atoms: C_17  and  C_19
REMARK    7  A    between atoms: C_17  and  C_20
REMARK    8  A    between atoms: N_22  and  C_23
REMARK    9  A    between atoms: C_29  and  C_31
REMARK                            x       y       z     vdW  Elec       q    Type
REMARK                         _______ _______ _______ _____ _____    ______ ____
ROOT
ATOM      1  C   UNL     1       3.302   4.279  -0.910  0.00  0.00    +0.010 C 
ATOM      2  C   UNL     1       1.836   3.883  -0.724  0.00  0.00    +0.012 C 
ATOM      3  C   UNL     1       1.399   4.204   0.707  0.00  0.00    +0.076 C 
ATOM      4  C   UNL     1      -0.067   3.808   0.893  0.00  0.00    +0.023 C 
ATOM      5  C   UNL     1      -0.227   2.308   0.635  0.00  0.00    +0.009 C 
ATOM      6  C   UNL     1       0.210   1.987  -0.795  0.00  0.00    -0.027 C 
ATOM      7  C   UNL     1       1.676   2.383  -0.981  0.00  0.00    +0.028 C 
ATOM      8  C   UNL     1       2.114   2.062  -2.412  0.00  0.00    +0.122 C 
ATOM      9  C   UNL     1       1.954   0.562  -2.669  0.00  0.00    +0.029 C 
ATOM     10  C   UNL     1       0.488   0.166  -2.483  0.00  0.00    +0.007 C 
ATOM     11  C   UNL     1       0.051   0.487  -1.052  0.00  0.00    +0.007 C 
ATOM     12  C   UNL     1      -0.659   2.769  -1.782  0.00  0.00    +0.011 C 
ENDROOT
BRANCH   3  13
ATOM     13  N   UNL     1       1.552   5.640   0.953  0.00  0.00    -0.312 N 
ATOM     14  C   UNL     1       1.723   6.093   2.211  0.00  0.00    +0.216 C 
ATOM     15  O   UNL     1       1.751   5.312   3.138  0.00  0.00    -0.276 OA
ATOM     16  H   UNL     1       1.527   6.348   0.112  0.00  0.00    +0.149 HD
BRANCH  14  17
ATOM     17  C   UNL     1       1.881   7.571   2.464  0.00  0.00    +0.075 C 
ATOM     18  C   UNL     1       3.109   8.089   1.713  0.00  0.00    +0.013 C 
ATOM     19  C   UNL     1       3.269   9.588   1.971  0.00  0.00    +0.001 C 
ATOM     20  C   UNL     1       3.447   9.832   3.471  0.00  0.00    +0.000 C 
ATOM     21  C   UNL     1       2.219   9.314   4.221  0.00  0.00    +0.001 C 
ATOM     22  C   UNL     1       2.059   7.814   3.964  0.00  0.00    +0.013 C 
ENDBRANCH  14  17
ENDBRANCH   3  13
BRANCH   9  23
ATOM     23  C   UNL     1       2.823  -0.220  -1.683  0.00  0.00    +0.077 C 
ATOM     24  C   UNL     1       4.281   0.221  -1.826  0.00  0.00    +0.017 C 
BRANCH  23  25
ATOM     25  C   UNL     1       2.713  -1.695  -1.975  0.00  0.00    +0.216 C 
ATOM     26  O   UNL     1       2.009  -2.082  -2.884  0.00  0.00    -0.276 OA
ATOM     27  N   UNL     1       3.397  -2.583  -1.228  0.00  0.00    -0.312 N 
ATOM     28  H   UNL     1       4.036  -2.232  -0.404  0.00  0.00    +0.149 HD
BRANCH  27  29
ATOM     29  C   UNL     1       3.290  -4.016  -1.512  0.00  0.00    +0.073 C 
ATOM     30  C   UNL     1       3.130  -4.963  -0.321  0.00  0.00    +0.024 C 
ATOM     31  C   UNL     1       4.455  -4.910  -1.084  0.00  0.00    +0.024 C 
ENDBRANCH  27  29
ENDBRANCH  23  25
ENDBRANCH   9  23
BRANCH   8  32
ATOM     32  O   UNL     1       3.483   2.432  -2.586  0.00  0.00    -0.391 OA
ATOM     33  H   UNL     1       3.976   2.274  -3.557  0.00  0.00    +0.210 HD
ENDBRANCH   8  32
TORSDOF 6
