REMARK  Name = ZINC04473407
REMARK  7 active torsions:
REMARK  status: ('A' for Active; 'I' for Inactive)
REMARK    1  A    between atoms: C_1  and  C_2
REMARK    2  A    between atoms: C_2  and  C_3
REMARK    3  A    between atoms: C_2  and  C_4
REMARK    4  A    between atoms: C_2  and  C_5
REMARK    5  A    between atoms: C_12  and  N_28
REMARK    6  A    between atoms: C_13  and  C_26
REMARK    7  A    between atoms: C_14  and  C_16
REMARK                            x       y       z     vdW  Elec       q    Type
REMARK                         _______ _______ _______ _____ _____    ______ ____
ROOT
ATOM      1  C   UNL     1       0.959  -0.881  -1.278  0.00  0.00    +0.076 A 
ATOM      2  C   UNL     1       1.078  -2.247  -1.498  0.00  0.00    +0.050 A 
ATOM      3  C   UNL     1       1.887  -2.432  -2.584  0.00  0.00    +0.222 A 
ATOM      4  N   UNL     1       2.259  -1.220  -3.024  0.00  0.00    -0.246 N 
ATOM      5  H   UNL     1       2.836  -1.040  -3.783  0.00  0.00    +0.192 HD
ATOM      6  N   UNL     1       1.661  -0.258  -2.195  0.00  0.00    -0.175 NA
ATOM      7  O   UNL     1       2.200  -3.662  -3.062  0.00  0.00    -0.423 OA
ATOM      8  C   UNL     1       1.479  -4.709  -2.613  0.00  0.00    +0.200 C 
ATOM      9  C   UNL     1       0.655  -4.652  -1.543  0.00  0.00    +0.098 C 
ATOM     10  C   UNL     1       0.467  -3.393  -0.734  0.00  0.00    +0.102 C 
ENDROOT
BRANCH  10  11
ATOM     11  C   UNL     1       1.153  -3.538   0.600  0.00  0.00    -0.027 A 
ATOM     12  C   UNL     1       2.510  -3.609   0.667  0.00  0.00    +0.005 A 
ATOM     13  C   UNL     1       3.162  -3.744   1.891  0.00  0.00    +0.001 A 
ATOM     14  C   UNL     1       2.460  -3.808   3.056  0.00  0.00    +0.008 A 
ATOM     15  C   UNL     1       1.057  -3.737   3.026  0.00  0.00    -0.018 A 
ATOM     16  C   UNL     1       0.394  -3.595   1.782  0.00  0.00    -0.014 A 
ATOM     17  C   UNL     1      -1.009  -3.518   1.753  0.00  0.00    +0.009 A 
ATOM     18  C   UNL     1      -1.710  -3.577   2.917  0.00  0.00    +0.001 A 
ATOM     19  C   UNL     1      -1.058  -3.711   4.142  0.00  0.00    +0.001 A 
ATOM     20  C   UNL     1       0.298  -3.801   4.208  0.00  0.00    +0.008 A 
ENDBRANCH  10  11
BRANCH   1  22
ATOM     21  C   UNL     1       0.117   1.284  -0.412  0.00  0.00    +0.017 C 
ATOM     22  C   UNL     1       0.157  -0.228  -0.182  0.00  0.00    +0.007 C 
ATOM     23  C   UNL     1       0.810  -0.520   1.171  0.00  0.00    +0.017 C 
ATOM     24  C   UNL     1      -1.268  -0.784  -0.192  0.00  0.00    +0.017 C 
ENDBRANCH   1  22
BRANCH   8  25
ATOM     25  N   UNL     1       1.587  -5.903  -3.282  0.00  0.00    -0.328 N 
ATOM     26  H   UNL     1       2.170  -5.975  -4.054  0.00  0.00    +0.145 HD
ATOM     27  H   UNL     1       1.080  -6.674  -2.983  0.00  0.00    +0.145 HD
ENDBRANCH   8  25
BRANCH   9  28
ATOM     28  C   UNL     1      -0.065  -5.830  -1.163  0.00  0.00    +0.101 C 
ATOM     29  N   UNL     1      -0.635  -6.765  -0.862  0.00  0.00    -0.191 NA
ENDBRANCH   9  28
TORSDOF 4
