REMARK  Name = ZINC32096715
REMARK  8 active torsions:
REMARK  status: ('A' for Active; 'I' for Inactive)
REMARK    1  A    between atoms: C_1  and  C_2
REMARK    2  A    between atoms: C_3  and  C_27
REMARK    3  A    between atoms: C_9  and  C_20
REMARK    4  A    between atoms: N_14  and  C_15
REMARK    5  A    between atoms: C_15  and  C_16
REMARK    6  A    between atoms: C_16  and  C_18
REMARK    7  A    between atoms: C_16  and  O_19
REMARK    8  A    between atoms: C_20  and  C_21
REMARK                            x       y       z     vdW  Elec       q    Type
REMARK                         _______ _______ _______ _____ _____    ______ ____
ROOT
ATOM      1  C   UNL     1      -5.605   1.135  -3.588  0.00  0.00    +0.045 C 
ATOM      2  C   UNL     1      -5.488   2.164  -4.683  0.00  0.00    -0.028 A 
ATOM      3  C   UNL     1      -6.093   1.969  -5.866  0.00  0.00    -0.008 A 
ATOM      4  S   UNL     1      -5.664   3.429  -6.794  0.00  0.00    -0.073 S 
ATOM      5  C   UNL     1      -4.685   4.257  -5.567  0.00  0.00    +0.116 A 
ATOM      6  C   UNL     1      -4.720   3.376  -4.472  0.00  0.00    +0.055 A 
ATOM      7  C   UNL     1      -3.970   3.825  -3.283  0.00  0.00    +0.170 A 
ATOM      8  N   UNL     1      -3.765   3.300  -2.090  0.00  0.00    -0.210 NA
ATOM      9  C   UNL     1      -3.004   4.120  -1.370  0.00  0.00    +0.156 A 
ATOM     10  N   UNL     1      -2.713   5.184  -2.078  0.00  0.00    -0.147 NA
ATOM     11  N   UNL     1      -3.320   5.024  -3.332  0.00  0.00    -0.181 N 
ATOM     12  C   UNL     1      -3.361   5.792  -4.460  0.00  0.00    +0.219 A 
ATOM     13  N   UNL     1      -4.023   5.407  -5.526  0.00  0.00    -0.207 NA
ATOM     14  N   UNL     1      -2.693   6.997  -4.479  0.00  0.00    -0.311 N 
ATOM     15  C   UNL     1      -6.933   0.796  -6.303  0.00  0.00    +0.052 C 
ATOM     16  H   UNL     1      -2.134   7.330  -3.592  0.00  0.00    +0.149 HD
ENDROOT
BRANCH  14  17
ATOM     17  C   UNL     1      -2.728   7.834  -5.681  0.00  0.00    +0.135 C 
BRANCH  17  18
ATOM     18  C   UNL     1      -1.914   9.107  -5.439  0.00  0.00    +0.128 C 
ATOM     19  C   UNL     1      -2.052  10.037  -6.646  0.00  0.00    +0.039 C 
BRANCH  18  20
ATOM     20  O   UNL     1      -0.539   8.764  -5.257  0.00  0.00    -0.391 OA
ATOM     21  H   UNL     1       0.204   9.553  -5.070  0.00  0.00    +0.210 HD
ENDBRANCH  18  20
ENDBRANCH  17  18
ENDBRANCH  14  17
BRANCH   9  22
ATOM     22  C   UNL     1      -2.553   3.869   0.045  0.00  0.00    +0.113 C 
BRANCH  22  23
ATOM     23  C   UNL     1      -1.238   3.133   0.030  0.00  0.00    -0.040 A 
ATOM     24  C   UNL     1      -1.219   1.751   0.017  0.00  0.00    +0.004 A 
ATOM     25  C   UNL     1      -0.013   1.076   0.008  0.00  0.00    +0.000 A 
ATOM     26  C   UNL     1       1.175   1.783   0.000  0.00  0.00    +0.000 A 
ATOM     27  C   UNL     1       1.156   3.165   0.008  0.00  0.00    +0.000 A 
ATOM     28  C   UNL     1      -0.050   3.840   0.022  0.00  0.00    +0.004 A 
ENDBRANCH  22  23
ENDBRANCH   9  22
TORSDOF 5
