REMARK  Name = ZINC31055623
REMARK  7 active torsions:
REMARK  status: ('A' for Active; 'I' for Inactive)
REMARK    1  A    between atoms: C_1  and  C_2
REMARK    2  A    between atoms: C_2  and  C_37
REMARK    3  A    between atoms: C_4  and  N_13
REMARK    4  A    between atoms: C_14  and  C_16
REMARK    5  A    between atoms: N_21  and  C_23
REMARK    6  A    between atoms: C_23  and  C_24
REMARK    7  A    between atoms: C_26  and  C_29
REMARK                            x       y       z     vdW  Elec       q    Type
REMARK                         _______ _______ _______ _____ _____    ______ ____
ROOT
ATOM      1  C   UNL     1       1.290   3.531   0.155  0.00  0.00    +0.058 C 
ATOM      2  C   UNL     1       0.473   4.127  -0.995  0.00  0.00    +0.009 C 
ATOM      3  C   UNL     1      -0.927   3.507  -0.991  0.00  0.00    -0.018 C 
ATOM      4  C   UNL     1      -0.806   1.987  -1.113  0.00  0.00    -0.078 C 
ATOM      5  N   UNL     1      -0.018   1.465   0.010  0.00  0.00    +0.386 N 
ATOM      6  C   UNL     1       1.346   2.010   0.000  0.00  0.00    -0.065 C 
ATOM      7  H   UNL     1      -0.503   1.793   0.941  0.00  0.00    -0.081 HD
ENDROOT
BRANCH   1   9
ATOM      8  N   UNL     1       2.885   5.420   0.245  0.00  0.00    -0.308 N 
ATOM      9  C   UNL     1       2.688   4.092   0.124  0.00  0.00    +0.215 C 
ATOM     10  O   UNL     1       3.637   3.348  -0.009  0.00  0.00    -0.276 OA
ATOM     11  H   UNL     1       2.024   6.094   0.366  0.00  0.00    +0.149 HD
BRANCH   8  15
ATOM     12  C   UNL     1       6.766   7.044   1.026  0.00  0.00    +0.055 C 
ATOM     13  C   UNL     1       5.614   7.986   0.671  0.00  0.00    +0.107 C 
ATOM     14  C   UNL     1       4.275   7.299   0.965  0.00  0.00    +0.074 C 
ATOM     15  C   UNL     1       4.244   5.965   0.214  0.00  0.00    +0.110 C 
ATOM     16  C   UNL     1       4.668   6.178  -1.217  0.00  0.00    +0.015 A 
ATOM     17  C   UNL     1       4.364   5.204  -2.154  0.00  0.00    +0.009 A 
ATOM     18  C   UNL     1       4.739   5.364  -3.473  0.00  0.00    +0.001 A 
ATOM     19  C   UNL     1       5.423   6.501  -3.864  0.00  0.00    +0.004 A 
ATOM     20  C   UNL     1       5.727   7.475  -2.935  0.00  0.00    +0.046 A 
ATOM     21  C   UNL     1       5.349   7.318  -1.605  0.00  0.00    +0.126 A 
ATOM     22  O   UNL     1       5.662   8.301  -0.722  0.00  0.00    -0.486 OA
ATOM     23  C   UNL     1       5.727   9.271   1.494  0.00  0.00    +0.055 C 
ENDBRANCH   8  15
ENDBRANCH   1   9
BRANCH   5  24
ATOM     24  C   UNL     1       0.002  -0.004   0.002  0.00  0.00    +0.022 C 
BRANCH  24  25
ATOM     25  C   UNL     1      -1.388  -0.527   0.259  0.00  0.00    +0.211 A 
ATOM     26  N   UNL     1      -2.298  -0.793  -0.644  0.00  0.00    -0.193 NA
ATOM     27  C   UNL     1      -3.375  -1.234   0.045  0.00  0.00    +0.203 A 
ATOM     28  N   UNL     1      -3.059  -1.208   1.314  0.00  0.00    -0.056 NA
ATOM     29  O   UNL     1      -1.921  -0.811   1.452  0.00  0.00    -0.340 OA
BRANCH  27  30
ATOM     30  C   UNL     1      -4.673  -1.664  -0.530  0.00  0.00    +0.041 A 
ATOM     31  C   UNL     1      -5.700  -2.096   0.306  0.00  0.00    +0.014 A 
ATOM     32  C   UNL     1      -6.906  -2.494  -0.233  0.00  0.00    +0.021 A 
ATOM     33  C   UNL     1      -7.097  -2.465  -1.605  0.00  0.00    +0.042 A 
ATOM     34  C   UNL     1      -6.081  -2.037  -2.441  0.00  0.00    +0.040 A 
ATOM     35  C   UNL     1      -4.872  -1.631  -1.910  0.00  0.00    +0.053 A 
ATOM     36 CL   UNL     1      -3.600  -1.087  -2.960  0.00  0.00    -0.083 Cl
ATOM     37 CL   UNL     1      -8.617  -2.968  -2.277  0.00  0.00    -0.083 Cl
ENDBRANCH  27  30
ENDBRANCH  24  25
ENDBRANCH   5  24
TORSDOF 5
