REMARK  Name = ZINC33811172
REMARK  5 active torsions:
REMARK  status: ('A' for Active; 'I' for Inactive)
REMARK    1  A    between atoms: C_1  and  C_2
REMARK    2  A    between atoms: C_2  and  C_3
REMARK    3  A    between atoms: C_3  and  O_4
REMARK    4  A    between atoms: O_4  and  C_5
REMARK    5  A    between atoms: C_10  and  C_16
REMARK                            x       y       z     vdW  Elec       q    Type
REMARK                         _______ _______ _______ _____ _____    ______ ____
ROOT
ATOM      1  C   UNL     1       2.239   4.187   0.003  0.00  0.00    +0.124 A 
ATOM      2  C   UNL     1       3.480   3.551  -0.013  0.00  0.00    +0.046 A 
ATOM      3  C   UNL     1       3.557   2.191  -0.021  0.00  0.00    +0.015 A 
ATOM      4  C   UNL     1       2.382   1.421  -0.013  0.00  0.00    +0.019 A 
ATOM      5  C   UNL     1       2.458   0.008  -0.022  0.00  0.00    +0.031 A 
ATOM      6  C   UNL     1       1.280  -0.723  -0.015  0.00  0.00    +0.122 A 
ATOM      7  C   UNL     1       0.002  -0.004   0.002  0.00  0.00    +0.350 A 
ATOM      8  O   UNL     1      -1.044  -0.626   0.009  0.00  0.00    -0.244 OA
ATOM      9  O   UNL     1      -0.016   1.339   0.009  0.00  0.00    -0.422 OA
ATOM     10  C   UNL     1       1.127   2.059   0.002  0.00  0.00    +0.143 A 
ATOM     11  C   UNL     1       1.069   3.446   0.011  0.00  0.00    +0.092 A 
ENDROOT
BRANCH   6  12
ATOM     12  C   UNL     1       1.312  -2.194  -0.023  0.00  0.00    +0.257 C 
ATOM     13  O   UNL     1       0.272  -2.825  -0.016  0.00  0.00    -0.270 OA
ATOM     14  N   UNL     1       2.493  -2.842  -0.038  0.00  0.00    -0.260 N 
ATOM     15  C   UNL     1       2.523  -4.226  -0.046  0.00  0.00    +0.166 A 
ATOM     16  N   UNL     1       3.563  -5.027  -0.060  0.00  0.00    -0.225 NA
ATOM     17  C   UNL     1       3.443  -6.372  -0.067  0.00  0.00    +0.080 A 
ATOM     18  C   UNL     1       4.474  -7.341  -0.082  0.00  0.00    +0.030 A 
ATOM     19  C   UNL     1       4.178  -8.679  -0.086  0.00  0.00    +0.017 A 
ATOM     20  C   UNL     1       2.865  -9.131  -0.076  0.00  0.00    +0.019 A 
ATOM     21  C   UNL     1       1.832  -8.211  -0.060  0.00  0.00    +0.032 A 
ATOM     22  C   UNL     1       2.120  -6.869  -0.056  0.00  0.00    +0.042 A 
ATOM     23  S   UNL     1       1.156  -5.377  -0.030  0.00  0.00    -0.052 S 
ATOM     24 BR   UNL     1       2.494 -10.985  -0.081  0.00  0.00    -0.050 Br
ATOM     25  H   UNL     1       3.434  -2.272  -0.044  0.00  0.00    +0.157 HD
ENDBRANCH   6  12
BRANCH   1  26
ATOM     26  O   UNL     1       2.177   5.542   0.011  0.00  0.00    -0.492 OA
BRANCH  26  27
ATOM     27  C   UNL     1       3.419   6.249   0.004  0.00  0.00    +0.229 C 
BRANCH  27  29
ATOM     28  C   UNL     1       4.480   8.511   0.006  0.00  0.00    +0.007 C 
ATOM     29  C   UNL     1       3.150   7.755   0.015  0.00  0.00    +0.038 C 
ENDBRANCH  27  29
ENDBRANCH  26  27
ENDBRANCH   1  26
TORSDOF 4
