REMARK  Name = ZINC55334577
REMARK  8 active torsions:
REMARK  status: ('A' for Active; 'I' for Inactive)
REMARK    1  A    between atoms: C_1  and  C_2
REMARK    2  A    between atoms: C_2  and  C_3
REMARK    3  A    between atoms: C_2  and  C_4
REMARK    4  A    between atoms: C_2  and  C_5
REMARK    5  A    between atoms: C_5  and  C_7
REMARK    6  A    between atoms: C_5  and  N_20
REMARK    7  A    between atoms: C_9  and  C_12
REMARK    8  A    between atoms: C_12  and  C_13
REMARK                            x       y       z     vdW  Elec       q    Type
REMARK                         _______ _______ _______ _____ _____    ______ ____
ROOT
ATOM      1  C   UNL     1       2.132   0.024  -1.268  0.00  0.00    +0.213 A 
ATOM      2  N   UNL     1       2.582   0.997  -2.010  0.00  0.00    -0.197 NA
ATOM      3  C   UNL     1       3.882   1.198  -1.765  0.00  0.00    +0.176 A 
ATOM      4  N   UNL     1       4.276   0.351  -0.859  0.00  0.00    -0.061 NA
ATOM      5  O   UNL     1       3.141  -0.428  -0.512  0.00  0.00    -0.340 OA
ENDROOT
BRANCH   1   6
ATOM      6  C   UNL     1       0.718  -0.497  -1.257  0.00  0.00    +0.021 C 
BRANCH   6   8
ATOM      7  C   UNL     1      -0.019   1.526   0.010  0.00  0.00    +0.009 C 
ATOM      8  C   UNL     1       0.002  -0.004   0.002  0.00  0.00    -0.042 C 
ATOM      9  C   UNL     1       0.742  -0.511   1.242  0.00  0.00    +0.009 C 
ATOM     10  C   UNL     1      -1.433  -0.534   0.013  0.00  0.00    +0.009 C 
ENDBRANCH   6   8
BRANCH   6  11
ATOM     11  N   UNL     1       0.738  -1.966  -1.265  0.00  0.00    +0.386 N 
ATOM     12  H   UNL     1       1.210  -2.292  -2.095  0.00  0.00    -0.089 HD
ATOM     13  H   UNL     1       1.226  -2.301  -0.447  0.00  0.00    -0.089 HD
ATOM     14  H   UNL     1      -0.208  -2.316  -1.258  0.00  0.00    -0.089 HD
ENDBRANCH   6  11
ENDBRANCH   1   6
BRANCH   3  15
ATOM     15  C   UNL     1       4.748   2.237  -2.430  0.00  0.00    +0.116 C 
BRANCH  15  16
ATOM     16  C   UNL     1       4.701   3.515  -1.635  0.00  0.00    -0.026 A 
ATOM     17  C   UNL     1       3.806   4.511  -1.979  0.00  0.00    +0.005 A 
ATOM     18  C   UNL     1       3.762   5.684  -1.249  0.00  0.00    +0.000 A 
ATOM     19  C   UNL     1       4.613   5.862  -0.174  0.00  0.00    +0.001 A 
ATOM     20  C   UNL     1       5.508   4.867   0.171  0.00  0.00    +0.015 A 
ATOM     21  C   UNL     1       5.548   3.691  -0.556  0.00  0.00    +0.021 A 
ATOM     22 BR   UNL     1       6.768   2.326  -0.080  0.00  0.00    -0.050 Br
ENDBRANCH  15  16
ENDBRANCH   3  15
TORSDOF 5
