REMARK  Name = ZINC20134639
REMARK  5 active torsions:
REMARK  status: ('A' for Active; 'I' for Inactive)
REMARK    1  A    between atoms: C_4  and  C_7
REMARK    2  A    between atoms: C_10  and  C_32
REMARK    3  A    between atoms: C_17  and  C_20
REMARK    4  A    between atoms: C_20  and  C_21
REMARK    5  A    between atoms: N_23  and  C_24
REMARK                            x       y       z     vdW  Elec       q    Type
REMARK                         _______ _______ _______ _____ _____    ______ ____
ROOT
ATOM      1  C   UNL     1       6.153   0.794   3.602  0.00  0.00    +0.136 C 
ATOM      2  C   UNL     1       6.440   0.086   4.941  0.00  0.00    +0.087 C 
ATOM      3  C   UNL     1       5.222  -0.782   5.162  0.00  0.00    +0.069 C 
ATOM      4  N   UNL     1       4.398  -0.624   4.185  0.00  0.00    -0.182 NA
ATOM      5  N   UNL     1       4.832   0.276   3.214  0.00  0.00    -0.195 N 
ATOM      6  C   UNL     1       4.146   0.617   2.084  0.00  0.00    +0.170 C 
ATOM      7  N   UNL     1       4.509   1.462   1.129  0.00  0.00    -0.157 NA
ATOM      8  C   UNL     1       3.790   1.734   0.074  0.00  0.00    +0.252 C 
ATOM      9  O   UNL     1       4.160   2.516  -0.781  0.00  0.00    -0.272 OA
ATOM     10  C   UNL     1       2.457   1.002  -0.013  0.00  0.00    +0.150 C 
ATOM     11  S   UNL     1       2.547   0.028   1.543  0.00  0.00    -0.078 S 
ENDROOT
BRANCH   1  15
ATOM     12  C   UNL     1       6.006   5.028   4.150  0.00  0.00    +0.000 A 
ATOM     13  C   UNL     1       7.113   4.445   3.561  0.00  0.00    +0.000 A 
ATOM     14  C   UNL     1       7.160   3.075   3.384  0.00  0.00    +0.005 A 
ATOM     15  C   UNL     1       6.101   2.288   3.796  0.00  0.00    -0.025 A 
ATOM     16  C   UNL     1       4.993   2.871   4.380  0.00  0.00    +0.005 A 
ATOM     17  C   UNL     1       4.947   4.241   4.561  0.00  0.00    +0.000 A 
ENDBRANCH   1  15
BRANCH   3  18
ATOM     18  C   UNL     1       5.011  -1.672   6.319  0.00  0.00    -0.002 A 
ATOM     19  C   UNL     1       5.981  -1.766   7.319  0.00  0.00    +0.010 A 
ATOM     20  C   UNL     1       5.774  -2.596   8.401  0.00  0.00    +0.001 A 
ATOM     21  C   UNL     1       4.613  -3.344   8.491  0.00  0.00    +0.000 A 
ATOM     22  C   UNL     1       3.650  -3.260   7.501  0.00  0.00    +0.001 A 
ATOM     23  C   UNL     1       3.841  -2.430   6.417  0.00  0.00    +0.010 A 
ENDBRANCH   3  18
BRANCH  10  24
ATOM     24  C   UNL     1       1.280   1.980   0.007  0.00  0.00    +0.120 C 
BRANCH  24  25
ATOM     25  C   UNL     1      -0.014   1.209   0.007  0.00  0.00    +0.219 C 
ATOM     26  O   UNL     1       0.002  -0.004  -0.008  0.00  0.00    -0.275 OA
ATOM     27  N   UNL     1      -1.191   1.867   0.018  0.00  0.00    -0.285 N 
ATOM     28  H   UNL     1      -1.207   2.963   0.108  0.00  0.00    +0.155 HD
BRANCH  27  29
ATOM     29  C   UNL     1      -2.392   1.155  -0.086  0.00  0.00    +0.035 A 
ATOM     30  C   UNL     1      -3.469   1.704  -0.770  0.00  0.00    +0.026 A 
ATOM     31  C   UNL     1      -4.651   0.998  -0.876  0.00  0.00    +0.041 A 
ATOM     32  C   UNL     1      -4.768  -0.252  -0.292  0.00  0.00    +0.142 A 
ATOM     33  C   UNL     1      -3.697  -0.800   0.395  0.00  0.00    +0.078 A 
ATOM     34  C   UNL     1      -2.510  -0.099   0.499  0.00  0.00    +0.046 A 
ATOM     35 CL   UNL     1      -3.845  -2.367   1.126  0.00  0.00    -0.081 Cl
ATOM     36  F   UNL     1      -5.927  -0.938  -0.393  0.00  0.00    -0.204 F 
ENDBRANCH  27  29
ENDBRANCH  24  25
ENDBRANCH  10  24
TORSDOF 5
