REMARK  Name = ZINC02222149
REMARK  11 active torsions:
REMARK  status: ('A' for Active; 'I' for Inactive)
REMARK    1  A    between atoms: C_1  and  C_2
REMARK    2  A    between atoms: C_2  and  O_3
REMARK    3  A    between atoms: O_3  and  C_4
REMARK    4  A    between atoms: C_4  and  C_5
REMARK    5  A    between atoms: C_4  and  O_35
REMARK    6  A    between atoms: C_5  and  S_6
REMARK    7  A    between atoms: S_6  and  C_7
REMARK    8  A    between atoms: C_16  and  C_28
REMARK    9  A    between atoms: C_19  and  C_22
REMARK   10  A    between atoms: O_35  and  C_36
REMARK   11  A    between atoms: C_36  and  C_37
REMARK                            x       y       z     vdW  Elec       q    Type
REMARK                         _______ _______ _______ _____ _____    ______ ____
ROOT
ATOM      1  C   UNL     1       7.569  -0.739   4.939  0.00  0.00    +0.191 A 
ATOM      2  N   UNL     1       6.660  -0.015   5.575  0.00  0.00    -0.207 NA
ATOM      3  C   UNL     1       5.613   0.550   4.979  0.00  0.00    +0.129 A 
ATOM      4  C   UNL     1       5.507   0.335   3.574  0.00  0.00    +0.051 A 
ATOM      5  C   UNL     1       4.453   0.848   2.695  0.00  0.00    -0.022 A 
ATOM      6  C   UNL     1       4.552   0.512   1.397  0.00  0.00    +0.013 A 
ATOM      7  S   UNL     1       6.029  -0.477   1.271  0.00  0.00    -0.072 S 
ATOM      8  C   UNL     1       6.512  -0.448   2.965  0.00  0.00    +0.115 A 
ATOM      9  N   UNL     1       7.524  -0.976   3.626  0.00  0.00    -0.215 NA
ATOM     10  C   UNL     1       3.657   0.848   0.235  0.00  0.00    +0.114 C 
ATOM     11  S   UNL     1       2.557   2.211   0.732  0.00  0.00    -0.139 S 
ATOM     12  C   UNL     1       2.094   1.713   2.421  0.00  0.00    +0.082 C 
ATOM     13  C   UNL     1       3.345   1.710   3.288  0.00  0.00    +0.055 C 
ATOM     14  N   UNL     1       4.685   1.299   5.680  0.00  0.00    -0.343 N 
ATOM     15  H   UNL     1       4.200   2.011   5.234  0.00  0.00    +0.144 HD
ATOM     16  H   UNL     1       4.520   1.113   6.618  0.00  0.00    +0.144 HD
ENDROOT
BRANCH  12  17
ATOM     17  C   UNL     1       1.094   2.692   2.980  0.00  0.00    -0.034 A 
ATOM     18  C   UNL     1      -0.153   2.252   3.382  0.00  0.00    +0.005 A 
ATOM     19  C   UNL     1      -1.071   3.150   3.895  0.00  0.00    +0.000 A 
ATOM     20  C   UNL     1      -0.740   4.488   4.007  0.00  0.00    +0.000 A 
ATOM     21  C   UNL     1       0.507   4.927   3.606  0.00  0.00    +0.000 A 
ATOM     22  C   UNL     1       1.424   4.030   3.091  0.00  0.00    +0.005 A 
ENDBRANCH  12  17
BRANCH  10  23
ATOM     23  C   UNL     1       4.493   1.275  -0.943  0.00  0.00    -0.030 A 
ATOM     24  C   UNL     1       5.322   2.377  -0.840  0.00  0.00    +0.005 A 
ATOM     25  C   UNL     1       6.093   2.765  -1.920  0.00  0.00    +0.000 A 
ATOM     26  C   UNL     1       6.028   2.058  -3.106  0.00  0.00    +0.000 A 
ATOM     27  C   UNL     1       5.196   0.959  -3.210  0.00  0.00    +0.000 A 
ATOM     28  C   UNL     1       4.428   0.568  -2.129  0.00  0.00    +0.005 A 
ENDBRANCH  10  23
BRANCH   1  29
ATOM     29  S   UNL     1       8.901  -1.421   5.870  0.00  0.00    -0.081 S 
BRANCH  29  30
ATOM     30  C   UNL     1       8.477  -0.808   7.520  0.00  0.00    +0.138 C 
BRANCH  30  31
ATOM     31  C   UNL     1       9.525  -1.288   8.527  0.00  0.00    +0.260 C 
BRANCH  31  32
ATOM     32  O   UNL     1       9.552  -2.717   8.541  0.00  0.00    -0.351 OA
BRANCH  32  34
ATOM     33  C   UNL     1      10.063  -4.796   9.663  0.00  0.00    +0.034 C 
ATOM     34  C   UNL     1       9.922  -3.278   9.802  0.00  0.00    +0.159 C 
ENDBRANCH  32  34
ENDBRANCH  31  32
BRANCH  31  35
ATOM     35  O   UNL     1      10.810  -0.791   8.150  0.00  0.00    -0.351 OA
BRANCH  35  36
ATOM     36  C   UNL     1      11.802  -0.911   9.172  0.00  0.00    +0.159 C 
ATOM     37  C   UNL     1      13.083  -0.203   8.725  0.00  0.00    +0.034 C 
ENDBRANCH  35  36
ENDBRANCH  31  35
ENDBRANCH  30  31
ENDBRANCH  29  30
ENDBRANCH   1  29
TORSDOF 9
