REMARK  Name = ZINC36076609
REMARK  14 active torsions:
REMARK  status: ('A' for Active; 'I' for Inactive)
REMARK    1  A    between atoms: C_1  and  C_2
REMARK    2  A    between atoms: C_2  and  N_3
REMARK    3  A    between atoms: N_3  and  C_4
REMARK    4  A    between atoms: N_3  and  C_6
REMARK    5  A    between atoms: C_4  and  C_5
REMARK    6  A    between atoms: C_6  and  C_8
REMARK    7  A    between atoms: C_6  and  C_15
REMARK    8  A    between atoms: C_8  and  C_9
REMARK    9  A    between atoms: C_15  and  N_16
REMARK   10  A    between atoms: C_17  and  C_19
REMARK   11  A    between atoms: C_19  and  N_20
REMARK   12  A    between atoms: C_25  and  C_32
REMARK   13  A    between atoms: C_28  and  C_30
REMARK   14  A    between atoms: C_28  and  C_31
REMARK                            x       y       z     vdW  Elec       q    Type
REMARK                         _______ _______ _______ _____ _____    ______ ____
ROOT
ATOM      1  N   UNL     1       1.307  -1.602  -4.996  0.00  0.00    -0.316 N 
ATOM      2  C   UNL     1       1.915  -2.594  -5.677  0.00  0.00    +0.231 C 
ATOM      3  O   UNL     1       2.804  -2.335  -6.461  0.00  0.00    -0.274 OA
ATOM      4  H   UNL     1       0.648  -1.814  -4.317  0.00  0.00    +0.149 HD
ENDROOT
BRANCH   1   5
ATOM      5  C   UNL     1       1.642  -0.205  -5.282  0.00  0.00    +0.089 C 
BRANCH   5   6
ATOM      6  C   UNL     1       0.920   0.706  -4.287  0.00  0.00    -0.047 C 
BRANCH   6   7
ATOM      7  N   UNL     1       1.194   0.251  -2.918  0.00  0.00    +0.382 N 
ATOM      8  H   UNL     1       1.210  -0.758  -2.896  0.00  0.00    -0.081 HD
BRANCH   7  10
ATOM      9  C   UNL     1       3.587  -0.253  -2.792  0.00  0.00    -0.017 C 
ATOM     10  C   UNL     1       2.495   0.772  -2.479  0.00  0.00    -0.082 C 
ENDBRANCH   7  10
BRANCH   7  11
ATOM     11  C   UNL     1       0.141   0.743  -2.019  0.00  0.00    -0.082 C 
ATOM     12  C   UNL     1      -1.186   0.066  -2.369  0.00  0.00    -0.017 C 
ENDBRANCH   7  11
ENDBRANCH   6   7
BRANCH   6  13
ATOM     13  C   UNL     1       1.419   2.143  -4.457  0.00  0.00    +0.021 C 
BRANCH  13  14
ATOM     14  C   UNL     1       0.720   3.037  -3.465  0.00  0.00    -0.049 A 
ATOM     15  C   UNL     1      -0.580   3.445  -3.699  0.00  0.00    +0.003 A 
ATOM     16  C   UNL     1      -1.221   4.266  -2.789  0.00  0.00    +0.000 A 
ATOM     17  C   UNL     1      -0.562   4.678  -1.646  0.00  0.00    +0.000 A 
ATOM     18  C   UNL     1       0.738   4.269  -1.412  0.00  0.00    +0.000 A 
ATOM     19  C   UNL     1       1.377   3.445  -2.319  0.00  0.00    +0.003 A 
ENDBRANCH  13  14
ENDBRANCH   6  13
ENDBRANCH   5   6
ENDBRANCH   1   5
BRANCH   2  20
ATOM     20  C   UNL     1       1.491  -4.024  -5.464  0.00  0.00    +0.213 C 
BRANCH  20  21
ATOM     21  N   UNL     1       2.377  -4.913  -6.220  0.00  0.00    -0.215 N 
ATOM     22  C   UNL     1       2.157  -5.299  -7.494  0.00  0.00    +0.247 C 
ATOM     23  O   UNL     1       1.225  -4.987  -8.204  0.00  0.00    -0.273 OA
ATOM     24  C   UNL     1       3.317  -6.200  -7.849  0.00  0.00    +0.113 C 
ATOM     25  C   UNL     1       4.109  -5.613  -9.012  0.00  0.00    +0.038 C 
ATOM     26  C   UNL     1       5.296  -6.525  -9.336  0.00  0.00    -0.011 C 
ATOM     27  C   UNL     1       4.782  -7.919  -9.699  0.00  0.00    +0.009 C 
ATOM     28  C   UNL     1       4.009  -8.504  -8.514  0.00  0.00    -0.032 C 
ATOM     29  C   UNL     1       2.818  -7.600  -8.188  0.00  0.00    +0.041 C 
ATOM     30  C   UNL     1       3.505  -9.903  -8.875  0.00  0.00    +0.011 C 
ATOM     31  C   UNL     1       4.932  -8.592  -7.297  0.00  0.00    +0.011 C 
ATOM     32  C   UNL     1       6.077  -5.945 -10.516  0.00  0.00    +0.007 C 
ATOM     33  N   UNL     1       4.135  -6.226  -6.630  0.00  0.00    -0.285 N 
ATOM     34  C   UNL     1       3.507  -5.440  -5.734  0.00  0.00    +0.310 C 
ATOM     35  O   UNL     1       3.920  -5.235  -4.609  0.00  0.00    -0.252 OA
ATOM     36  H   UNL     1       4.965  -6.710  -6.497  0.00  0.00    +0.151 HD
ENDBRANCH  20  21
ENDBRANCH   2  20
TORSDOF 9
