REMARK  Name = ZINC02983451
REMARK  6 active torsions:
REMARK  status: ('A' for Active; 'I' for Inactive)
REMARK    1  A    between atoms: C_4  and  C_7
REMARK    2  A    between atoms: C_7  and  C_8
REMARK    3  A    between atoms: C_8  and  O_31
REMARK    4  A    between atoms: N_17  and  C_18
REMARK    5  A    between atoms: C_18  and  C_19
REMARK    6  A    between atoms: C_18  and  C_25
REMARK                            x       y       z     vdW  Elec       q    Type
REMARK                         _______ _______ _______ _____ _____    ______ ____
ROOT
ATOM      1  C   UNL     1       4.818   2.538  -2.790  0.00  0.00    +0.167 C 
ATOM      2  C   UNL     1       4.757   2.954  -4.238  0.00  0.00    +0.015 A 
ATOM      3  C   UNL     1       3.801   2.825  -5.217  0.00  0.00    +0.009 A 
ATOM      4  C   UNL     1       4.039   3.322  -6.488  0.00  0.00    +0.000 A 
ATOM      5  C   UNL     1       5.237   3.951  -6.775  0.00  0.00    +0.001 A 
ATOM      6  C   UNL     1       6.204   4.087  -5.800  0.00  0.00    +0.013 A 
ATOM      7  C   UNL     1       5.971   3.588  -4.517  0.00  0.00    +0.045 A 
ATOM      8  C   UNL     1       6.790   3.581  -3.290  0.00  0.00    +0.250 C 
ATOM      9  O   UNL     1       7.905   4.056  -3.196  0.00  0.00    -0.270 OA
ATOM     10  N   UNL     1       6.127   2.975  -2.290  0.00  0.00    -0.254 N 
ENDROOT
BRANCH   1  11
ATOM     11  O   UNL     1       4.700   1.118  -2.682  0.00  0.00    -0.367 OA
ATOM     12  H   UNL     1       3.861   0.767  -3.008  0.00  0.00    +0.212 HD
ENDBRANCH   1  11
BRANCH   1  13
ATOM     13  C   UNL     1       3.699   3.219  -1.999  0.00  0.00    +0.095 C 
BRANCH  13  17
ATOM     14  C   UNL     1      -0.090   1.967  -3.522  0.00  0.00    +0.000 A 
ATOM     15  C   UNL     1       0.532   3.083  -4.049  0.00  0.00    +0.000 A 
ATOM     16  C   UNL     1       1.758   3.489  -3.556  0.00  0.00    +0.004 A 
ATOM     17  C   UNL     1       2.363   2.777  -2.537  0.00  0.00    -0.043 A 
ATOM     18  C   UNL     1       1.741   1.661  -2.010  0.00  0.00    +0.004 A 
ATOM     19  C   UNL     1       0.514   1.256  -2.502  0.00  0.00    +0.000 A 
ENDBRANCH  13  17
ENDBRANCH   1  13
BRANCH  10  20
ATOM     20  C   UNL     1       6.627   2.783  -0.927  0.00  0.00    +0.140 C 
BRANCH  20  21
ATOM     21  C   UNL     1       7.762   1.791  -0.944  0.00  0.00    -0.023 A 
ATOM     22  C   UNL     1       8.960   2.121  -1.549  0.00  0.00    +0.006 A 
ATOM     23  C   UNL     1      10.002   1.212  -1.560  0.00  0.00    +0.000 A 
ATOM     24  C   UNL     1       9.842  -0.030  -0.975  0.00  0.00    +0.000 A 
ATOM     25  C   UNL     1       8.642  -0.362  -0.374  0.00  0.00    +0.000 A 
ATOM     26  C   UNL     1       7.602   0.549  -0.358  0.00  0.00    +0.006 A 
ENDBRANCH  20  21
BRANCH  20  27
ATOM     27  C   UNL     1       7.119   4.099  -0.383  0.00  0.00    -0.023 A 
ATOM     28  C   UNL     1       6.655   5.286  -0.918  0.00  0.00    +0.006 A 
ATOM     29  C   UNL     1       7.102   6.493  -0.415  0.00  0.00    +0.000 A 
ATOM     30  C   UNL     1       8.022   6.514   0.616  0.00  0.00    +0.000 A 
ATOM     31  C   UNL     1       8.491   5.327   1.148  0.00  0.00    +0.000 A 
ATOM     32  C   UNL     1       8.040   4.120   0.649  0.00  0.00    +0.006 A 
ENDBRANCH  20  27
ENDBRANCH  10  20
TORSDOF 6
