REMARK  Name = ZINC00924907
REMARK  10 active torsions:
REMARK  status: ('A' for Active; 'I' for Inactive)
REMARK    1  A    between atoms: C_1  and  C_2
REMARK    2  A    between atoms: C_7  and  C_15
REMARK    3  A    between atoms: C_13  and  C_14
REMARK    4  A    between atoms: C_15  and  N_16
REMARK    5  A    between atoms: N_16  and  C_17
REMARK    6  A    between atoms: N_16  and  S_26
REMARK    7  A    between atoms: C_17  and  C_18
REMARK    8  A    between atoms: C_21  and  O_24
REMARK    9  A    between atoms: O_24  and  C_25
REMARK   10  A    between atoms: S_26  and  C_29
REMARK                            x       y       z     vdW  Elec       q    Type
REMARK                         _______ _______ _______ _____ _____    ______ ____
ROOT
ATOM      1  N   UNL     1       4.184  -1.186  -1.580  0.00  0.00    -0.168 NA
ENDROOT
BRANCH   1   2
ATOM      2  S   UNL     1       3.584  -0.777  -0.091  0.00  0.00    +0.062 S 
ATOM      3  O   UNL     1       4.619  -0.077   0.585  0.00  0.00    -0.153 OA
ATOM      4  O   UNL     1       2.984  -1.951   0.441  0.00  0.00    -0.153 OA
BRANCH   2   5
ATOM      5  C   UNL     1       2.281   0.379  -0.354  0.00  0.00    +0.109 A 
ATOM      6  C   UNL     1       0.969  -0.056  -0.393  0.00  0.00    +0.032 A 
ATOM      7  C   UNL     1      -0.055   0.849  -0.600  0.00  0.00    +0.051 A 
ATOM      8  C   UNL     1       0.230   2.195  -0.770  0.00  0.00    +0.162 A 
ATOM      9  C   UNL     1       1.548   2.633  -0.728  0.00  0.00    +0.164 A 
ATOM     10  C   UNL     1       2.572   1.720  -0.521  0.00  0.00    +0.078 A 
ATOM     11  O   UNL     1       1.850   3.951  -0.883  0.00  0.00    -0.485 OA
ATOM     12  C   UNL     1       0.835   4.780  -1.460  0.00  0.00    +0.270 C 
ATOM     13  C   UNL     1      -0.497   4.459  -0.770  0.00  0.00    +0.270 C 
ATOM     14  O   UNL     1      -0.789   3.073  -0.982  0.00  0.00    -0.485 OA
ENDBRANCH   2   5
ENDBRANCH   1   2
BRANCH   1  15
ATOM     15  C   UNL     1       3.708  -2.396  -2.254  0.00  0.00    +0.150 C 
BRANCH  15  22
ATOM     16  C   UNL     1       0.567  -0.491  -9.334  0.00  0.00    +0.044 C 
ATOM     17  C   UNL     1       1.361  -0.880  -8.113  0.00  0.00    -0.046 A 
ATOM     18  C   UNL     1       2.710  -1.183  -8.239  0.00  0.00    +0.004 A 
ATOM     19  C   UNL     1       3.447  -1.538  -7.145  0.00  0.00    +0.010 A 
ATOM     20  C   UNL     1       2.838  -1.596  -5.887  0.00  0.00    -0.001 A 
ATOM     21  C   UNL     1       3.599  -1.968  -4.693  0.00  0.00    +0.020 A 
ATOM     22  C   UNL     1       2.954  -2.013  -3.502  0.00  0.00    +0.033 A 
ATOM     23  C   UNL     1       1.581  -1.697  -3.424  0.00  0.00    +0.254 A 
ATOM     24  O   UNL     1       1.022  -1.740  -2.342  0.00  0.00    -0.268 OA
ATOM     25  N   UNL     1       0.874  -1.350  -4.514  0.00  0.00    -0.322 N 
ATOM     26  H   UNL     1      -0.097  -1.133  -4.423  0.00  0.00    +0.169 HD
ATOM     27  C   UNL     1       1.470  -1.290  -5.756  0.00  0.00    +0.052 A 
ATOM     28  C   UNL     1       0.739  -0.931  -6.884  0.00  0.00    -0.024 A 
ATOM     29  C   UNL     1      -0.726  -0.601  -6.763  0.00  0.00    +0.046 C 
ENDBRANCH  15  22
ENDBRANCH   1  15
BRANCH   1  30
ATOM     30  C   UNL     1       5.190  -0.337  -2.222  0.00  0.00    +0.145 C 
BRANCH  30  31
ATOM     31  C   UNL     1       6.566  -0.872  -1.919  0.00  0.00    -0.031 A 
ATOM     32  C   UNL     1       7.248  -0.429  -0.802  0.00  0.00    +0.008 A 
ATOM     33  C   UNL     1       8.507  -0.922  -0.519  0.00  0.00    +0.046 A 
ATOM     34  C   UNL     1       9.092  -1.854  -1.364  0.00  0.00    +0.120 A 
ATOM     35  C   UNL     1       8.407  -2.293  -2.488  0.00  0.00    +0.046 A 
ATOM     36  C   UNL     1       7.146  -1.801  -2.763  0.00  0.00    +0.008 A 
BRANCH  34  37
ATOM     37  O   UNL     1      10.332  -2.337  -1.091  0.00  0.00    -0.495 OA
ATOM     38  C   UNL     1      10.978  -1.840   0.083  0.00  0.00    +0.277 C 
ENDBRANCH  34  37
ENDBRANCH  30  31
ENDBRANCH   1  30
TORSDOF 7
