REMARK  Name = ZINC11613048
REMARK  7 active torsions:
REMARK  status: ('A' for Active; 'I' for Inactive)
REMARK    1  A    between atoms: C_1  and  N_2
REMARK    2  A    between atoms: C_9  and  C_11
REMARK    3  A    between atoms: C_11  and  C_13
REMARK    4  A    between atoms: C_11  and  N_58
REMARK    5  A    between atoms: C_13  and  N_14
REMARK    6  A    between atoms: C_15  and  C_17
REMARK    7  A    between atoms: C_20  and  N_24
REMARK                            x       y       z     vdW  Elec       q    Type
REMARK                         _______ _______ _______ _____ _____    ______ ____
ROOT
ATOM      1  C   UNL     1      -3.344   6.120  -1.079  0.00  0.00    -0.020 C 
ENDROOT
BRANCH   1  10
ATOM      2  C   UNL     1       0.391   2.711   2.957  0.00  0.00    +0.129 C 
ATOM      3  N   UNL     1      -0.508   2.217   1.905  0.00  0.00    -0.332 N 
ATOM      4  C   UNL     1       0.253   1.538   0.833  0.00  0.00    +0.109 C 
ATOM      5  C   UNL     1      -0.603   1.818  -0.424  0.00  0.00    +0.056 C 
ATOM      6  C   UNL     1      -1.332   3.095  -0.057  0.00  0.00    -0.025 A 
ATOM      7  C   UNL     1      -1.228   3.268   1.318  0.00  0.00    +0.033 A 
ATOM      8  C   UNL     1      -1.816   4.386   1.906  0.00  0.00    +0.023 A 
ATOM      9  C   UNL     1      -2.495   5.302   1.130  0.00  0.00    +0.004 A 
ATOM     10  C   UNL     1      -2.598   5.118  -0.236  0.00  0.00    -0.059 A 
ATOM     11  C   UNL     1      -2.014   4.012  -0.828  0.00  0.00    +0.007 A 
ENDBRANCH   1  10
BRANCH   1  17
ATOM     12  C   UNL     1      -5.421   5.416  -0.056  0.00  0.00    -0.078 C 
ATOM     13  C   UNL     1      -6.592   5.886   0.810  0.00  0.00    -0.019 C 
ATOM     14  C   UNL     1      -7.379   6.961   0.055  0.00  0.00    -0.004 C 
ATOM     15  C   UNL     1      -6.439   8.116  -0.298  0.00  0.00    -0.019 C 
ATOM     16  C   UNL     1      -5.273   7.582  -1.132  0.00  0.00    -0.078 C 
ATOM     17  N   UNL     1      -4.542   6.569  -0.341  0.00  0.00    +0.385 N 
ATOM     18  H   UNL     1      -4.247   6.991   0.548  0.00  0.00    -0.081 HD
ENDBRANCH   1  17
BRANCH   1  19
ATOM     19  C   UNL     1      -2.445   7.329  -1.349  0.00  0.00    +0.094 C 
BRANCH  19  20
ATOM     20  N   UNL     1      -1.283   6.907  -2.136  0.00  0.00    -0.313 N 
ATOM     21  C   UNL     1      -0.296   7.785  -2.402  0.00  0.00    +0.245 C 
ATOM     22  O   UNL     1      -0.369   8.927  -1.990  0.00  0.00    -0.270 OA
ATOM     23  H   UNL     1      -1.224   5.997  -2.465  0.00  0.00    +0.149 HD
BRANCH  21  24
ATOM     24  C   UNL     1       0.876   7.361  -3.196  0.00  0.00    +0.055 A 
ATOM     25  C   UNL     1       0.964   6.051  -3.671  0.00  0.00    +0.017 A 
ATOM     26  C   UNL     1       2.061   5.660  -4.410  0.00  0.00    +0.033 A 
ATOM     27  C   UNL     1       3.073   6.564  -4.683  0.00  0.00    +0.128 A 
ATOM     28  C   UNL     1       2.994   7.863  -4.217  0.00  0.00    +0.053 A 
ATOM     29  C   UNL     1       1.899   8.269  -3.479  0.00  0.00    +0.055 A 
ATOM     30 CL   UNL     1       1.796   9.903  -2.900  0.00  0.00    -0.083 Cl
BRANCH  27  31
ATOM     31  N   UNL     1       4.246   6.137  -5.479  0.00  0.00    +0.056 N 
ATOM     32  O   UNL     1       4.319   4.994  -5.892  0.00  0.00    -0.126 OA
ATOM     33  O   UNL     1       5.139   6.930  -5.721  0.00  0.00    -0.126 OA
ENDBRANCH  27  31
ENDBRANCH  21  24
ENDBRANCH  19  20
ENDBRANCH   1  19
TORSDOF 6
