REMARK  Name = ZINC03665886
REMARK  6 active torsions:
REMARK  status: ('A' for Active; 'I' for Inactive)
REMARK    1  A    between atoms: C_1  and  C_2
REMARK    2  A    between atoms: C_5  and  C_8
REMARK    3  A    between atoms: C_8  and  N_9
REMARK    4  A    between atoms: C_10  and  C_12
REMARK    5  A    between atoms: C_12  and  O_31
REMARK    6  A    between atoms: N_22  and  C_23
REMARK                            x       y       z     vdW  Elec       q    Type
REMARK                         _______ _______ _______ _____ _____    ______ ____
ROOT
ATOM      1  C   UNL     1      -0.986   1.767   3.252  0.00  0.00    +0.247 C 
ATOM      2  C   UNL     1      -2.313   1.055   3.370  0.00  0.00    +0.033 A 
ATOM      3  C   UNL     1      -2.442  -0.276   3.043  0.00  0.00    +0.010 A 
ATOM      4  C   UNL     1      -3.674  -0.896   3.164  0.00  0.00    +0.001 A 
ATOM      5  C   UNL     1      -4.769  -0.180   3.612  0.00  0.00    +0.002 A 
ATOM      6  C   UNL     1      -4.642   1.156   3.941  0.00  0.00    +0.024 A 
ATOM      7  C   UNL     1      -3.408   1.782   3.821  0.00  0.00    +0.043 A 
ATOM      8  N   UNL     1      -3.259   3.130   4.149  0.00  0.00    -0.269 N 
ATOM      9  C   UNL     1      -2.092   3.779   4.051  0.00  0.00    +0.314 C 
ATOM     10  O   UNL     1      -2.055   4.955   4.358  0.00  0.00    -0.252 OA
ATOM     11  N   UNL     1      -0.958   3.190   3.629  0.00  0.00    -0.214 N 
ATOM     12  H   UNL     1      -4.036   3.619   4.462  0.00  0.00    +0.156 HD
ENDROOT
BRANCH  11  13
ATOM     13  C   UNL     1       0.232   3.922   3.547  0.00  0.00    +0.043 A 
ATOM     14  C   UNL     1       0.504   4.686   2.420  0.00  0.00    +0.025 A 
ATOM     15  C   UNL     1       1.679   5.407   2.341  0.00  0.00    +0.023 A 
ATOM     16  C   UNL     1       2.586   5.370   3.385  0.00  0.00    +0.059 A 
ATOM     17  C   UNL     1       2.318   4.610   4.511  0.00  0.00    +0.061 A 
ATOM     18  C   UNL     1       1.141   3.890   4.596  0.00  0.00    +0.045 A 
ATOM     19 CL   UNL     1       3.459   4.565   5.820  0.00  0.00    -0.082 Cl
ATOM     20 CL   UNL     1       4.062   6.278   3.284  0.00  0.00    -0.082 Cl
ENDBRANCH  11  13
BRANCH   1  22
ATOM     21  N   UNL     1      -1.185   2.309   0.847  0.00  0.00    -0.307 N 
ATOM     22  C   UNL     1      -0.523   1.655   1.822  0.00  0.00    +0.269 C 
ATOM     23  O   UNL     1       0.444   0.977   1.549  0.00  0.00    -0.270 OA
ATOM     24  H   UNL     1      -1.959   2.852   1.066  0.00  0.00    +0.149 HD
BRANCH  21  25
ATOM     25  C   UNL     1      -0.735   2.200  -0.543  0.00  0.00    +0.139 C 
BRANCH  25  30
ATOM     26  C   UNL     1      -4.198   5.344  -3.938  0.00  0.00    +0.044 C 
ATOM     27  C   UNL     1      -3.295   4.524  -3.053  0.00  0.00    -0.050 A 
ATOM     28  C   UNL     1      -2.170   5.099  -2.491  0.00  0.00    +0.003 A 
ATOM     29  C   UNL     1      -1.342   4.347  -1.679  0.00  0.00    +0.005 A 
ATOM     30  C   UNL     1      -1.638   3.020  -1.428  0.00  0.00    -0.030 A 
ATOM     31  C   UNL     1      -2.760   2.444  -1.994  0.00  0.00    +0.005 A 
ATOM     32  C   UNL     1      -3.591   3.197  -2.803  0.00  0.00    +0.003 A 
ENDBRANCH  25  30
ENDBRANCH  21  25
ENDBRANCH   1  22
BRANCH   1  33
ATOM     33  O   UNL     1      -0.041   1.076   4.072  0.00  0.00    -0.360 OA
ATOM     34  H   UNL     1       0.052   0.137   3.859  0.00  0.00    +0.213 HD
ENDBRANCH   1  33
TORSDOF 5
