REMARK  Name = ZINC13495963
REMARK  18 active torsions:
REMARK  status: ('A' for Active; 'I' for Inactive)
REMARK    1  A    between atoms: C_1  and  C_2
REMARK    2  A    between atoms: C_2  and  C_3
REMARK    3  A    between atoms: C_3  and  C_5
REMARK    4  A    between atoms: C_3  and  N_75
REMARK    5  A    between atoms: N_9  and  C_10
REMARK    6  A    between atoms: C_10  and  C_11
REMARK    7  A    between atoms: C_11  and  O_13
REMARK    8  A    between atoms: O_13  and  C_14
REMARK    9  A    between atoms: C_14  and  C_15
REMARK   10  A    between atoms: C_16  and  C_17
REMARK   11  A    between atoms: C_16  and  N_75
REMARK   12  A    between atoms: C_17  and  C_18
REMARK   13  A    between atoms: C_22  and  C_24
REMARK   14  A    between atoms: C_25  and  C_26
REMARK   15  A    between atoms: C_25  and  N_75
REMARK   16  A    between atoms: C_30  and  O_38
REMARK   17  A    between atoms: O_38  and  C_39
REMARK   18  A    between atoms: C_39  and  C_40
REMARK                            x       y       z     vdW  Elec       q    Type
REMARK                         _______ _______ _______ _____ _____    ______ ____
ROOT
ATOM      1  N   UNL     1      -4.148   0.212   1.467  0.00  0.00    +0.389 N 
ATOM      2  H   UNL     1      -3.803  -0.681   1.096  0.00  0.00    -0.080 HD
ENDROOT
BRANCH   1   3
ATOM      3  C   UNL     1      -5.358   0.609   0.717  0.00  0.00    +0.003 C 
BRANCH   3   4
ATOM      4  C   UNL     1      -6.017   1.797   1.369  0.00  0.00    +0.139 A 
ATOM      5  N   UNL     1      -6.334   1.920   2.634  0.00  0.00    -0.115 NA
ATOM      6  N   UNL     1      -6.876   3.077   2.799  0.00  0.00    -0.023 NA
ATOM      7  N   UNL     1      -6.919   3.693   1.669  0.00  0.00    -0.043 NA
ATOM      8  N   UNL     1      -6.399   2.937   0.762  0.00  0.00    -0.220 N 
BRANCH   8   9
ATOM      9  C   UNL     1      -6.252   3.258  -0.659  0.00  0.00    +0.267 C 
BRANCH   9  10
ATOM     10  C   UNL     1      -7.479   2.802  -1.407  0.00  0.00    +0.329 C 
ATOM     11  O   UNL     1      -8.383   2.264  -0.812  0.00  0.00    -0.249 OA
BRANCH  10  12
ATOM     12  O   UNL     1      -7.567   2.993  -2.732  0.00  0.00    -0.464 OA
BRANCH  12  13
ATOM     13  C   UNL     1      -8.777   2.528  -3.386  0.00  0.00    +0.229 C 
ATOM     14  C   UNL     1      -8.696   2.831  -4.884  0.00  0.00    +0.048 C 
ENDBRANCH  12  13
ENDBRANCH  10  12
ENDBRANCH   9  10
ENDBRANCH   8   9
ENDBRANCH   3   4
BRANCH   3  16
ATOM     15  C   UNL     1      -5.723  -1.725  -0.097  0.00  0.00    +0.002 C 
ATOM     16  C   UNL     1      -6.335  -0.568   0.697  0.00  0.00    -0.011 C 
ENDBRANCH   3  16
ENDBRANCH   1   3
BRANCH   1  17
ATOM     17  C   UNL     1      -3.095   1.237   1.308  0.00  0.00    -0.073 C 
BRANCH  17  18
ATOM     18  C   UNL     1      -2.510   1.125  -0.101  0.00  0.00    +0.016 C 
BRANCH  18  19
ATOM     19  C   UNL     1      -1.426   2.157  -0.278  0.00  0.00    -0.049 A 
ATOM     20  C   UNL     1      -0.117   1.845   0.039  0.00  0.00    +0.003 A 
ATOM     21  C   UNL     1       0.878   2.789  -0.128  0.00  0.00    +0.001 A 
ATOM     22  C   UNL     1       0.565   4.047  -0.609  0.00  0.00    +0.003 A 
ATOM     23  C   UNL     1      -0.745   4.360  -0.921  0.00  0.00    -0.050 A 
ATOM     24  C   UNL     1      -1.741   3.416  -0.753  0.00  0.00    +0.007 A 
ATOM     25  C   UNL     1      -1.087   5.731  -1.445  0.00  0.00    +0.044 C 
ENDBRANCH  18  19
ENDBRANCH  17  18
ENDBRANCH   1  17
BRANCH   1  26
ATOM     26  C   UNL     1      -4.475   0.041   2.899  0.00  0.00    -0.037 C 
BRANCH  26  27
ATOM     27  C   UNL     1      -3.400  -0.795   3.543  0.00  0.00    +0.001 A 
ATOM     28  C   UNL     1      -2.370  -0.192   4.188  0.00  0.00    +0.017 A 
ATOM     29  C   UNL     1      -1.342  -1.033   4.804  0.00  0.00    +0.002 A 
ATOM     30  C   UNL     1      -0.258  -0.466   5.483  0.00  0.00    +0.055 A 
ATOM     31  C   UNL     1       0.694  -1.288   6.052  0.00  0.00    +0.121 A 
ATOM     32  C   UNL     1       0.578  -2.673   5.953  0.00  0.00    +0.047 A 
ATOM     33  C   UNL     1      -0.485  -3.242   5.287  0.00  0.00    +0.030 A 
ATOM     34  C   UNL     1      -1.455  -2.432   4.706  0.00  0.00    +0.049 A 
ATOM     35  N   UNL     1      -2.528  -2.983   4.035  0.00  0.00    -0.322 N 
ATOM     36  H   UNL     1      -2.605  -3.948   3.968  0.00  0.00    +0.169 HD
ATOM     37  C   UNL     1      -3.470  -2.203   3.478  0.00  0.00    +0.251 A 
ATOM     38  O   UNL     1      -4.407  -2.725   2.898  0.00  0.00    -0.268 OA
BRANCH  31  39
ATOM     39  O   UNL     1       1.750  -0.743   6.713  0.00  0.00    -0.492 OA
BRANCH  39  40
ATOM     40  C   UNL     1       2.699  -1.650   7.278  0.00  0.00    +0.225 C 
ATOM     41  C   UNL     1       3.807  -0.859   7.976  0.00  0.00    +0.048 C 
ENDBRANCH  39  40
ENDBRANCH  31  39
ENDBRANCH  26  27
ENDBRANCH   1  26
TORSDOF 14
