REMARK  Name = ZINC13468077
REMARK  8 active torsions:
REMARK  status: ('A' for Active; 'I' for Inactive)
REMARK    1  A    between atoms: C_1  and  C_2
REMARK    2  A    between atoms: C_5  and  C_8
REMARK    3  A    between atoms: C_11  and  C_36
REMARK    4  A    between atoms: C_14  and  C_29
REMARK    5  A    between atoms: C_19  and  C_22
REMARK    6  A    between atoms: C_25  and  C_28
REMARK    7  A    between atoms: C_32  and  C_35
REMARK    8  A    between atoms: C_39  and  C_42
REMARK                            x       y       z     vdW  Elec       q    Type
REMARK                         _______ _______ _______ _____ _____    ______ ____
ROOT
ATOM      1  C   UNL     1      -0.453  -0.729   2.577  0.00  0.00    -0.028 C 
ATOM      2  C   UNL     1       0.330  -1.295   1.381  0.00  0.00    +0.067 C 
ATOM      3  C   UNL     1      -0.335  -0.782   0.093  0.00  0.00    +0.093 C 
ATOM      4  N   UNL     1      -0.361   0.685   0.113  0.00  0.00    -0.301 NA
ATOM      5  C   UNL     1       0.986   1.266   0.112  0.00  0.00    +0.093 C 
ATOM      6  C   UNL     1       1.716   0.856   1.401  0.00  0.00    +0.067 C 
ATOM      7  C   UNL     1       1.719  -0.669   1.434  0.00  0.00    +0.141 C 
ATOM      8  O   UNL     1       2.732  -1.323   1.496  0.00  0.00    -0.297 OA
ATOM      9  C   UNL     1       0.867   1.320   2.596  0.00  0.00    -0.028 C 
ATOM     10  N   UNL     1      -0.475   0.736   2.492  0.00  0.00    +0.389 N 
ATOM     11  H   UNL     1      -0.892   1.055  -0.777  0.00  0.00    +0.123 HD
ATOM     12  H   UNL     1      -0.905   1.040   1.526  0.00  0.00    -0.084 HD
ATOM     13  H   UNL     1      -1.087   1.142   3.310  0.00  0.00    -0.084 HD
ENDROOT
BRANCH   1  18
ATOM     14  C   UNL     1      -5.866  -2.749   2.470  0.00  0.00    +0.044 C 
ATOM     15  C   UNL     1      -4.455  -2.222   2.498  0.00  0.00    -0.050 A 
ATOM     16  C   UNL     1      -3.519  -2.797   3.338  0.00  0.00    +0.003 A 
ATOM     17  C   UNL     1      -2.224  -2.314   3.363  0.00  0.00    +0.002 A 
ATOM     18  C   UNL     1      -1.865  -1.256   2.549  0.00  0.00    -0.061 A 
ATOM     19  C   UNL     1      -2.802  -0.678   1.714  0.00  0.00    +0.002 A 
ATOM     20  C   UNL     1      -4.096  -1.164   1.685  0.00  0.00    +0.003 A 
ENDBRANCH   1  18
BRANCH   9  21
ATOM     21  C   UNL     1       0.764   2.823   2.586  0.00  0.00    -0.061 A 
ATOM     22  C   UNL     1      -0.135   3.449   1.742  0.00  0.00    +0.002 A 
ATOM     23  C   UNL     1      -0.233   4.828   1.737  0.00  0.00    +0.003 A 
ATOM     24  C   UNL     1       0.575   5.581   2.568  0.00  0.00    -0.050 A 
ATOM     25  C   UNL     1       1.477   4.956   3.408  0.00  0.00    +0.003 A 
ATOM     26  C   UNL     1       1.572   3.577   3.417  0.00  0.00    +0.002 A 
ATOM     27  C   UNL     1       0.471   7.085   2.559  0.00  0.00    +0.044 C 
ENDBRANCH   9  21
BRANCH   5  28
ATOM     28  C   UNL     1       1.752   0.760  -1.084  0.00  0.00    -0.030 A 
ATOM     29  C   UNL     1       2.908   0.023  -0.903  0.00  0.00    +0.005 A 
ATOM     30  C   UNL     1       3.607  -0.445  -1.999  0.00  0.00    +0.003 A 
ATOM     31  C   UNL     1       3.156  -0.170  -3.276  0.00  0.00    -0.050 A 
ATOM     32  C   UNL     1       2.003   0.571  -3.457  0.00  0.00    +0.003 A 
ATOM     33  C   UNL     1       1.301   1.036  -2.361  0.00  0.00    +0.005 A 
ATOM     34  C   UNL     1       3.921  -0.677  -4.471  0.00  0.00    +0.044 C 
ENDBRANCH   5  28
BRANCH   3  35
ATOM     35  C   UNL     1       0.451  -1.255  -1.102  0.00  0.00    -0.030 A 
ATOM     36  C   UNL     1       0.024  -0.942  -2.379  0.00  0.00    +0.005 A 
ATOM     37  C   UNL     1       0.748  -1.371  -3.475  0.00  0.00    +0.003 A 
ATOM     38  C   UNL     1       1.894  -2.123  -3.295  0.00  0.00    -0.050 A 
ATOM     39  C   UNL     1       2.318  -2.441  -2.018  0.00  0.00    +0.003 A 
ATOM     40  C   UNL     1       1.597  -2.007  -0.922  0.00  0.00    +0.005 A 
ATOM     41  C   UNL     1       2.681  -2.596  -4.490  0.00  0.00    +0.044 C 
ENDBRANCH   3  35
TORSDOF 4
