REMARK  Name = ZINC38682902
REMARK  14 active torsions:
REMARK  status: ('A' for Active; 'I' for Inactive)
REMARK    1  A    between atoms: C_1  and  C_2
REMARK    2  A    between atoms: C_2  and  C_3
REMARK    3  A    between atoms: C_3  and  C_4
REMARK    4  A    between atoms: C_4  and  O_5
REMARK    5  A    between atoms: O_5  and  C_6
REMARK    6  A    between atoms: C_11  and  C_12
REMARK    7  A    between atoms: C_17  and  O_26
REMARK    8  A    between atoms: C_21  and  N_25
REMARK    9  A    between atoms: C_22  and  C_23
REMARK   10  A    between atoms: O_26  and  C_27
REMARK   11  A    between atoms: C_27  and  C_29
REMARK   12  A    between atoms: C_32  and  O_35
REMARK   13  A    between atoms: O_35  and  C_36
REMARK   14  A    between atoms: C_36  and  C_37
REMARK                            x       y       z     vdW  Elec       q    Type
REMARK                         _______ _______ _______ _____ _____    ______ ____
ROOT
ATOM      1  C   UNL     1       2.854  -3.522   4.682  0.00  0.00    +0.101 C 
ATOM      2  C   UNL     1       2.203  -3.781   6.014  0.00  0.00    +0.008 A 
ATOM      3  C   UNL     1       0.970  -3.216   6.291  0.00  0.00    +0.012 A 
ATOM      4  C   UNL     1       0.358  -3.443   7.507  0.00  0.00    +0.047 A 
ATOM      5  C   UNL     1       0.979  -4.240   8.459  0.00  0.00    +0.135 A 
ATOM      6  C   UNL     1       2.213  -4.807   8.185  0.00  0.00    +0.093 A 
ATOM      7  C   UNL     1       2.827  -4.579   6.961  0.00  0.00    +0.138 A 
ATOM      8  O   UNL     1       4.035  -5.141   6.708  0.00  0.00    -0.441 OA
ATOM      9  C   UNL     1       4.814  -4.645   5.733  0.00  0.00    +0.199 C 
ATOM     10  C   UNL     1       4.314  -3.872   4.744  0.00  0.00    +0.098 C 
ENDROOT
BRANCH   1  16
ATOM     11  C   UNL     1       1.561  -3.755   2.546  0.00  0.00    +0.125 A 
ATOM     12  C   UNL     1       0.949  -4.533   1.573  0.00  0.00    +0.046 A 
ATOM     13  C   UNL     1       0.957  -5.909   1.685  0.00  0.00    +0.004 A 
ATOM     14  C   UNL     1       1.573  -6.513   2.766  0.00  0.00    +0.001 A 
ATOM     15  C   UNL     1       2.183  -5.740   3.737  0.00  0.00    +0.008 A 
ATOM     16  C   UNL     1       2.183  -4.363   3.626  0.00  0.00    +0.007 A 
BRANCH  11  17
ATOM     17  O   UNL     1       1.555  -2.401   2.438  0.00  0.00    -0.492 OA
BRANCH  17  18
ATOM     18  C   UNL     1       0.895  -1.843   1.300  0.00  0.00    +0.229 C 
BRANCH  18  19
ATOM     19  C   UNL     1       0.992  -0.317   1.350  0.00  0.00    +0.041 C 
BRANCH  19  21
ATOM     20  C   UNL     1       0.383   1.805   0.181  0.00  0.00    +0.004 C 
ATOM     21  C   UNL     1       0.285   0.279   0.131  0.00  0.00    -0.000 C 
ENDBRANCH  19  21
ENDBRANCH  18  19
ENDBRANCH  17  18
ENDBRANCH  11  17
ENDBRANCH   1  16
BRANCH   9  22
ATOM     22  N   UNL     1       6.156  -4.933   5.741  0.00  0.00    -0.328 N 
ATOM     23  H   UNL     1       6.529  -5.487   6.444  0.00  0.00    +0.145 HD
ATOM     24  H   UNL     1       6.732  -4.583   5.043  0.00  0.00    +0.145 HD
ENDBRANCH   9  22
BRANCH  10  25
ATOM     25  C   UNL     1       5.198  -3.376   3.732  0.00  0.00    +0.101 C 
ATOM     26  N   UNL     1       5.900  -2.982   2.930  0.00  0.00    -0.191 NA
ENDBRANCH  10  25
BRANCH   5  27
ATOM     27  O   UNL     1       0.378  -4.464   9.657  0.00  0.00    -0.422 OA
BRANCH  27  28
ATOM     28  C   UNL     1       0.929  -3.910  10.755  0.00  0.00    +0.344 C 
ATOM     29  O   UNL     1       1.870  -3.149  10.644  0.00  0.00    -0.245 OA
BRANCH  28  30
ATOM     30  C   UNL     1       0.389  -4.226  12.090  0.00  0.00    +0.060 A 
ATOM     31  C   UNL     1      -0.690  -5.105  12.220  0.00  0.00    +0.018 A 
ATOM     32  C   UNL     1      -1.190  -5.398  13.469  0.00  0.00    +0.046 A 
ATOM     33  C   UNL     1      -0.624  -4.821  14.600  0.00  0.00    +0.121 A 
ATOM     34  C   UNL     1       0.449  -3.946  14.475  0.00  0.00    +0.046 A 
ATOM     35  C   UNL     1       0.959  -3.652  13.230  0.00  0.00    +0.018 A 
BRANCH  33  36
ATOM     36  O   UNL     1      -1.121  -5.112  15.828  0.00  0.00    -0.488 OA
BRANCH  36  37
ATOM     37  C   UNL     1      -0.491  -4.485  16.948  0.00  0.00    +0.256 C 
BRANCH  37  38
ATOM     38  C   UNL     1      -1.172  -4.924  18.218  0.00  0.00    +0.006 C 
ATOM     39  C   UNL     1      -0.456  -5.276  19.257  0.00  0.00    +0.007 C 
ENDBRANCH  37  38
ENDBRANCH  36  37
ENDBRANCH  33  36
ENDBRANCH  28  30
ENDBRANCH  27  28
ENDBRANCH   5  27
TORSDOF 13
