REMARK  Name = ZINC20710577
REMARK  8 active torsions:
REMARK  status: ('A' for Active; 'I' for Inactive)
REMARK    1  A    between atoms: C_1  and  N_2
REMARK    2  A    between atoms: N_2  and  C_3
REMARK    3  A    between atoms: N_2  and  S_9
REMARK    4  A    between atoms: S_9  and  C_12
REMARK    5  A    between atoms: C_25  and  C_28
REMARK    6  A    between atoms: C_33  and  O_34
REMARK    7  A    between atoms: O_34  and  C_35
REMARK    8  A    between atoms: C_35  and  C_36
REMARK                            x       y       z     vdW  Elec       q    Type
REMARK                         _______ _______ _______ _____ _____    ______ ____
ROOT
ATOM      1  C   UNL     1       5.043   3.884   1.780  0.00  0.00    +0.109 A 
ATOM      2  C   UNL     1       3.884   3.827   2.533  0.00  0.00    +0.030 A 
ATOM      3  C   UNL     1       3.965   3.780   3.910  0.00  0.00    +0.025 A 
ATOM      4  C   UNL     1       5.207   3.801   4.534  0.00  0.00    +0.031 A 
ATOM      5  C   UNL     1       6.367   3.866   3.785  0.00  0.00    -0.018 A 
ATOM      6  C   UNL     1       6.275   3.906   2.400  0.00  0.00    +0.034 A 
ATOM      7  C   UNL     1       7.739   3.903   4.403  0.00  0.00    +0.049 C 
ATOM      8  C   UNL     1       8.407   5.196   3.953  0.00  0.00    -0.023 C 
ATOM      9  C   UNL     1       8.261   6.126   4.863  0.00  0.00    -0.030 C 
ATOM     10  C   UNL     1       7.482   5.590   6.050  0.00  0.00    +0.033 C 
ATOM     11  C   UNL     1       7.686   4.060   5.934  0.00  0.00    +0.029 C 
ATOM     12  C   UNL     1       6.522   3.305   6.547  0.00  0.00    +0.108 C 
ATOM     13  N   UNL     1       5.268   3.754   5.932  0.00  0.00    -0.336 N 
ATOM     14  H   UNL     1       4.416   4.040   6.566  0.00  0.00    +0.147 HD
ENDROOT
BRANCH  12  15
ATOM     15  C   UNL     1       6.699   1.828   6.306  0.00  0.00    +0.015 A 
ATOM     16  C   UNL     1       5.973   1.198   5.314  0.00  0.00    +0.009 A 
ATOM     17  C   UNL     1       6.139  -0.156   5.089  0.00  0.00    +0.001 A 
ATOM     18  C   UNL     1       7.022  -0.885   5.864  0.00  0.00    +0.004 A 
ATOM     19  C   UNL     1       7.746  -0.260   6.861  0.00  0.00    +0.046 A 
ATOM     20  C   UNL     1       7.586   1.100   7.085  0.00  0.00    +0.126 A 
BRANCH  20  21
ATOM     21  O   UNL     1       8.296   1.716   8.065  0.00  0.00    -0.487 OA
BRANCH  21  22
ATOM     22  C   UNL     1       9.191   0.903   8.827  0.00  0.00    +0.264 C 
BRANCH  22  23
ATOM     23  C   UNL     1       9.886   1.753   9.860  0.00  0.00    -0.010 A 
ATOM     24  C   UNL     1      11.085   2.371   9.553  0.00  0.00    +0.007 A 
ATOM     25  C   UNL     1      11.720   3.154  10.499  0.00  0.00    +0.000 A 
ATOM     26  C   UNL     1      11.162   3.312  11.754  0.00  0.00    +0.000 A 
ATOM     27  C   UNL     1       9.966   2.691  12.062  0.00  0.00    +0.000 A 
ATOM     28  C   UNL     1       9.328   1.911  11.115  0.00  0.00    +0.007 A 
ENDBRANCH  22  23
ENDBRANCH  21  22
ENDBRANCH  20  21
ENDBRANCH  12  15
BRANCH   1  29
ATOM     29  S   UNL     1       4.944   3.935   0.021  0.00  0.00    +0.074 S 
ATOM     30  O   UNL     1       6.146   4.541  -0.435  0.00  0.00    -0.150 OA
ATOM     31  O   UNL     1       3.660   4.453  -0.299  0.00  0.00    -0.150 OA
BRANCH  29  33
ATOM     32  C   UNL     1       6.250   1.681  -0.707  0.00  0.00    +0.157 C 
ATOM     33  N   UNL     1       4.971   2.369  -0.517  0.00  0.00    -0.206 N 
BRANCH  33  34
ATOM     34  C   UNL     1       3.773   1.704  -0.789  0.00  0.00    +0.051 A 
ATOM     35  C   UNL     1       2.914   2.189  -1.767  0.00  0.00    +0.025 A 
ATOM     36  C   UNL     1       1.730   1.529  -2.034  0.00  0.00    +0.002 A 
ATOM     37  C   UNL     1       1.400   0.386  -1.329  0.00  0.00    +0.000 A 
ATOM     38  C   UNL     1       2.253  -0.099  -0.354  0.00  0.00    +0.002 A 
ATOM     39  C   UNL     1       3.438   0.556  -0.082  0.00  0.00    +0.025 A 
ENDBRANCH  33  34
ENDBRANCH  29  33
ENDBRANCH   1  29
TORSDOF 7
