REMARK  Name = ZINC59516300
REMARK  7 active torsions:
REMARK  status: ('A' for Active; 'I' for Inactive)
REMARK    1  A    between atoms: C_1  and  O_2
REMARK    2  A    between atoms: O_2  and  C_3
REMARK    3  A    between atoms: C_8  and  N_9
REMARK    4  A    between atoms: C_10  and  C_12
REMARK    5  A    between atoms: N_14  and  N_15
REMARK    6  A    between atoms: C_16  and  C_17
REMARK    7  A    between atoms: C_20  and  N_23
REMARK                            x       y       z     vdW  Elec       q    Type
REMARK                         _______ _______ _______ _____ _____    ______ ____
ROOT
ATOM      1  C   UNL     1       1.132  -4.913   0.178  0.00  0.00    +0.318 C 
ATOM      2  O   UNL     1       2.206  -4.347   0.170  0.00  0.00    -0.263 OA
ATOM      3  N   UNL     1       1.079  -6.257   0.273  0.00  0.00    -0.199 N 
ATOM      4  H   UNL     1       0.221  -6.709   0.279  0.00  0.00    +0.178 HD
ENDROOT
BRANCH   1   6
ATOM      5  N   UNL     1      -0.076  -2.780  -0.013  0.00  0.00    -0.275 N 
ATOM      6  C   UNL     1      -0.128  -4.123   0.082  0.00  0.00    +0.305 C 
ATOM      7  O   UNL     1      -1.202  -4.689   0.090  0.00  0.00    -0.265 OA
ATOM      8  H   UNL     1       0.781  -2.333  -0.100  0.00  0.00    +0.155 HD
BRANCH   5  14
ATOM      9  C   UNL     1      -1.295  -0.766  -0.572  0.00  0.00    +0.141 A 
ATOM     10  C   UNL     1      -2.468  -0.030  -0.548  0.00  0.00    +0.049 A 
ATOM     11  C   UNL     1      -3.596  -0.546   0.062  0.00  0.00    +0.024 A 
ATOM     12  C   UNL     1      -3.558  -1.799   0.650  0.00  0.00    +0.043 A 
ATOM     13  C   UNL     1      -2.390  -2.539   0.630  0.00  0.00    +0.047 A 
ATOM     14  C   UNL     1      -1.256  -2.030   0.014  0.00  0.00    +0.077 A 
ATOM     15 CL   UNL     1      -4.978  -2.441   1.414  0.00  0.00    -0.083 Cl
BRANCH   9  17
ATOM     16  C   UNL     1      -0.298   1.042  -1.753  0.00  0.00    +0.277 C 
ATOM     17  O   UNL     1      -0.185  -0.259  -1.172  0.00  0.00    -0.493 OA
ENDBRANCH   9  17
ENDBRANCH   5  14
ENDBRANCH   1   6
BRANCH   3  18
ATOM     18  N   UNL     1       2.264  -7.000   0.363  0.00  0.00    -0.187 NA
ATOM     19  C   UNL     1       2.213  -8.294   0.454  0.00  0.00    +0.138 C 
BRANCH  19  20
ATOM     20  C   UNL     1       3.459  -9.076   0.549  0.00  0.00    -0.005 A 
ATOM     21  C   UNL     1       4.697  -8.427   0.546  0.00  0.00    +0.012 A 
ATOM     22  C   UNL     1       5.859  -9.165   0.634  0.00  0.00    +0.033 A 
ATOM     23  C   UNL     1       5.801 -10.545   0.725  0.00  0.00    +0.126 A 
ATOM     24  C   UNL     1       4.579 -11.194   0.729  0.00  0.00    +0.033 A 
ATOM     25  C   UNL     1       3.409 -10.469   0.647  0.00  0.00    +0.012 A 
BRANCH  23  26
ATOM     26  N   UNL     1       7.052 -11.330   0.819  0.00  0.00    +0.056 N 
ATOM     27  O   UNL     1       8.121 -10.765   0.816  0.00  0.00    -0.126 OA
ATOM     28  O   UNL     1       7.005 -12.535   0.899  0.00  0.00    -0.126 OA
ENDBRANCH  23  26
ENDBRANCH  19  20
ENDBRANCH   3  18
TORSDOF 6
