REMARK  Name = ZINC04048229
REMARK  5 active torsions:
REMARK  status: ('A' for Active; 'I' for Inactive)
REMARK    1  A    between atoms: C_4  and  C_7
REMARK    2  A    between atoms: C_7  and  O_8
REMARK    3  A    between atoms: O_8  and  C_9
REMARK    4  A    between atoms: C_14  and  C_15
REMARK    5  A    between atoms: C_20  and  C_25
REMARK                            x       y       z     vdW  Elec       q    Type
REMARK                         _______ _______ _______ _____ _____    ______ ____
ROOT
ATOM      1  C   UNL     1       1.105  -2.167  -0.753  0.00  0.00    +0.139 C 
ATOM      2  C   UNL     1       0.901  -0.676  -0.626  0.00  0.00    +0.037 C 
ATOM      3  C   UNL     1      -0.096  -0.071   0.041  0.00  0.00    +0.017 C 
ATOM      4  C   UNL     1      -0.194   1.445   0.067  0.00  0.00    +0.059 C 
ATOM      5  C   UNL     1       1.207   2.056   0.042  0.00  0.00    +0.032 C 
ATOM      6  C   UNL     1       1.895   1.593  -1.248  0.00  0.00    +0.088 C 
ATOM      7  C   UNL     1       1.890   0.094  -1.281  0.00  0.00    +0.163 C 
ATOM      8  O   UNL     1       2.768  -0.480  -1.894  0.00  0.00    -0.292 OA
ATOM      9  N   UNL     1      -1.074  -0.714   0.728  0.00  0.00    -0.316 N 
ATOM     10  C   UNL     1      -1.802  -1.795   0.243  0.00  0.00    +0.052 A 
ATOM     11  C   UNL     1      -3.165  -1.725   0.011  0.00  0.00    +0.025 A 
ATOM     12  C   UNL     1      -3.837  -2.852  -0.429  0.00  0.00    +0.002 A 
ATOM     13  C   UNL     1      -3.154  -4.038  -0.631  0.00  0.00    +0.002 A 
ATOM     14  C   UNL     1      -1.789  -4.105  -0.414  0.00  0.00    +0.025 A 
ATOM     15  C   UNL     1      -1.109  -2.972   0.005  0.00  0.00    +0.049 A 
ATOM     16  N   UNL     1       0.279  -2.962   0.131  0.00  0.00    -0.331 N 
ATOM     17  H   UNL     1      -1.280  -0.397   1.621  0.00  0.00    +0.152 HD
ATOM     18  H   UNL     1       0.698  -3.497   0.823  0.00  0.00    +0.147 HD
ENDROOT
BRANCH   5  19
ATOM     19  C   UNL     1       1.108   3.560   0.057  0.00  0.00    -0.043 A 
ATOM     20  C   UNL     1       0.449   4.219  -0.964  0.00  0.00    +0.005 A 
ATOM     21  C   UNL     1       0.353   5.598  -0.948  0.00  0.00    +0.020 A 
ATOM     22  C   UNL     1       0.928   6.319   0.083  0.00  0.00    +0.041 A 
ATOM     23  C   UNL     1       1.593   5.659   1.101  0.00  0.00    +0.020 A 
ATOM     24  C   UNL     1       1.683   4.280   1.087  0.00  0.00    +0.005 A 
ATOM     25 CL   UNL     1       0.815   8.051   0.100  0.00  0.00    -0.084 Cl
ENDBRANCH   5  19
BRANCH   1  31
ATOM     26  C   UNL     1       1.331  -3.745  -2.689  0.00  0.00    +0.126 A 
ATOM     27  C   UNL     1       1.052  -4.113  -3.997  0.00  0.00    +0.046 A 
ATOM     28  C   UNL     1       0.260  -3.303  -4.787  0.00  0.00    +0.004 A 
ATOM     29  C   UNL     1      -0.258  -2.128  -4.274  0.00  0.00    +0.001 A 
ATOM     30  C   UNL     1       0.015  -1.761  -2.969  0.00  0.00    +0.009 A 
ATOM     31  C   UNL     1       0.807  -2.568  -2.175  0.00  0.00    +0.019 A 
BRANCH  26  32
ATOM     32  O   UNL     1       2.115  -4.537  -1.911  0.00  0.00    -0.487 OA
BRANCH  32  33
ATOM     33  C   UNL     1       2.621  -5.734  -2.507  0.00  0.00    +0.264 C 
BRANCH  33  37
ATOM     34  C   UNL     1       5.004  -7.845   0.341  0.00  0.00    +0.000 A 
ATOM     35  C   UNL     1       3.648  -8.098   0.251  0.00  0.00    +0.000 A 
ATOM     36  C   UNL     1       2.877  -7.415  -0.670  0.00  0.00    +0.007 A 
ATOM     37  C   UNL     1       3.462  -6.479  -1.502  0.00  0.00    -0.010 A 
ATOM     38  C   UNL     1       4.819  -6.229  -1.416  0.00  0.00    +0.007 A 
ATOM     39  C   UNL     1       5.589  -6.909  -0.492  0.00  0.00    +0.000 A 
ENDBRANCH  33  37
ENDBRANCH  32  33
ENDBRANCH  26  32
ENDBRANCH   1  31
TORSDOF 5
