REMARK  Name = ZINC60017291
REMARK  6 active torsions:
REMARK  status: ('A' for Active; 'I' for Inactive)
REMARK    1  A    between atoms: C_1  and  C_2
REMARK    2  A    between atoms: C_2  and  C_3
REMARK    3  A    between atoms: C_3  and  C_11
REMARK    4  A    between atoms: C_14  and  N_17
REMARK    5  A    between atoms: C_18  and  C_20
REMARK    6  A    between atoms: C_20  and  C_24
REMARK                            x       y       z     vdW  Elec       q    Type
REMARK                         _______ _______ _______ _____ _____    ______ ____
ROOT
ATOM      1  C   UNL     1      -1.258   1.828   0.965  0.00  0.00    -0.032 A 
ATOM      2  C   UNL     1      -1.128   0.883   1.966  0.00  0.00    +0.006 A 
ATOM      3  C   UNL     1      -2.010   0.876   3.029  0.00  0.00    +0.023 A 
ATOM      4  C   UNL     1      -3.029   1.818   3.091  0.00  0.00    +0.033 A 
ATOM      5  C   UNL     1      -3.156   2.765   2.083  0.00  0.00    +0.023 A 
ATOM      6  C   UNL     1      -2.268   2.770   1.026  0.00  0.00    +0.006 A 
ENDROOT
BRANCH   1   7
ATOM      7  C   UNL     1      -0.293   1.833  -0.193  0.00  0.00    +0.072 C 
ATOM      8  C   UNL     1       0.816   0.806   0.058  0.00  0.00    +0.030 C 
ATOM      9  C   UNL     1       1.718   0.751  -1.179  0.00  0.00    +0.097 C 
ATOM     10  C   UNL     1       0.878   0.448  -2.392  0.00  0.00    +0.219 C 
ATOM     11  O   UNL     1       1.373  -0.145  -3.325  0.00  0.00    -0.275 OA
ATOM     12  N   UNL     1      -0.409   0.823  -2.458  0.00  0.00    -0.256 N 
ATOM     13  C   UNL     1      -1.025   1.472  -1.459  0.00  0.00    +0.230 C 
ATOM     14  O   UNL     1      -2.193   1.774  -1.578  0.00  0.00    -0.274 OA
ATOM     15  H   UNL     1      -0.913   0.616  -3.260  0.00  0.00    +0.157 HD
BRANCH   7  17
ATOM     16  C   UNL     1       1.035   3.607   0.961  0.00  0.00    +0.005 C 
ATOM     17  C   UNL     1       0.323   3.226  -0.339  0.00  0.00    +0.017 C 
ENDBRANCH   7  17
ENDBRANCH   1   7
BRANCH   4  18
ATOM     18  N   UNL     1      -3.925   1.812   4.165  0.00  0.00    -0.285 N 
ATOM     19  C   UNL     1      -4.474   2.967   4.591  0.00  0.00    +0.228 C 
ATOM     20  O   UNL     1      -4.207   4.009   4.029  0.00  0.00    -0.275 OA
ATOM     21  H   UNL     1      -4.151   0.977   4.604  0.00  0.00    +0.155 HD
BRANCH  19  22
ATOM     22  C   UNL     1      -5.420   2.965   5.764  0.00  0.00    +0.072 C 
ATOM     23  C   UNL     1      -6.761   2.272   5.473  0.00  0.00    +0.021 C 
ATOM     24  C   UNL     1      -7.274   3.640   4.994  0.00  0.00    +0.003 C 
ATOM     25  C   UNL     1      -6.217   4.271   5.916  0.00  0.00    +0.021 C 
BRANCH  22  26
ATOM     26  C   UNL     1      -4.766   2.505   7.042  0.00  0.00    -0.032 A 
ATOM     27  C   UNL     1      -4.575   3.397   8.080  0.00  0.00    +0.006 A 
ATOM     28  C   UNL     1      -3.976   2.976   9.252  0.00  0.00    +0.015 A 
ATOM     29  C   UNL     1      -3.567   1.662   9.386  0.00  0.00    +0.018 A 
ATOM     30  C   UNL     1      -3.757   0.769   8.347  0.00  0.00    +0.015 A 
ATOM     31  C   UNL     1      -4.362   1.190   7.177  0.00  0.00    +0.006 A 
ATOM     32 BR   UNL     1      -2.746   1.085  10.989  0.00  0.00    -0.050 Br
ENDBRANCH  22  26
ENDBRANCH  19  22
ENDBRANCH   4  18
TORSDOF 5
