REMARK  Name = ZINC39566283
REMARK  3 active torsions:
REMARK  status: ('A' for Active; 'I' for Inactive)
REMARK    1  A    between atoms: C_2  and  C_15
REMARK    2  A    between atoms: C_4  and  C_11
REMARK    3  A    between atoms: C_6  and  C_7
REMARK                            x       y       z     vdW  Elec       q    Type
REMARK                         _______ _______ _______ _____ _____    ______ ____
ROOT
ATOM      1  C   UNL     1      -0.017   1.374   0.010  0.00  0.00    +0.023 A 
ATOM      2  C   UNL     1       1.187   2.087   0.002  0.00  0.00    +0.019 A 
ATOM      3  C   UNL     1       2.401   1.393  -0.013  0.00  0.00    +0.023 A 
ATOM      4  C   UNL     1       2.404   0.015  -0.021  0.00  0.00    +0.056 A 
ATOM      5  C   UNL     1       1.208  -0.683  -0.014  0.00  0.00    +0.024 A 
ATOM      6  C   UNL     1       0.002  -0.004   0.002  0.00  0.00    +0.056 A 
ENDROOT
BRANCH   2   7
ATOM      7  C   UNL     1       1.175   3.563   0.009  0.00  0.00    +0.171 C 
ATOM      8  N   UNL     1       2.235   4.348  -0.002  0.00  0.00    -0.169 NA
ATOM      9  C   UNL     1       1.792   5.622   0.010  0.00  0.00    +0.200 C 
ATOM     10  S   UNL     1       2.768   7.029   0.003  0.00  0.00    -0.013 S 
ATOM     11  N   UNL     1       0.445   5.590   0.029  0.00  0.00    -0.092 NA
ATOM     12  N   UNL     1       0.066   4.358   0.023  0.00  0.00    -0.140 NA
ENDBRANCH   2   7
BRANCH   6  13
ATOM     13  C   UNL     1      -1.294  -0.773   0.011  0.00  0.00    +0.417 C 
ATOM     14  F   UNL     1      -2.368   0.123   0.026  0.00  0.00    -0.166 F 
ATOM     15  F   UNL     1      -1.369  -1.572  -1.135  0.00  0.00    -0.166 F 
ATOM     16  F   UNL     1      -1.347  -1.585   1.149  0.00  0.00    -0.166 F 
ENDBRANCH   6  13
BRANCH   4  17
ATOM     17  C   UNL     1       3.712  -0.734  -0.037  0.00  0.00    +0.417 C 
ATOM     18  F   UNL     1       4.772   0.179  -0.043  0.00  0.00    -0.166 F 
ATOM     19  F   UNL     1       3.800  -1.544   1.100  0.00  0.00    -0.166 F 
ATOM     20  F   UNL     1       3.778  -1.532  -1.185  0.00  0.00    -0.166 F 
ENDBRANCH   4  17
TORSDOF 3
