REMARK  Name = ZINC39884090
REMARK  4 active torsions:
REMARK  status: ('A' for Active; 'I' for Inactive)
REMARK    1  A    between atoms: C_4  and  O_37
REMARK    2  A    between atoms: C_5  and  C_7
REMARK    3  A    between atoms: N_11  and  C_15
REMARK    4  A    between atoms: C_15  and  C_16
REMARK                            x       y       z     vdW  Elec       q    Type
REMARK                         _______ _______ _______ _____ _____    ______ ____
ROOT
ATOM      1  C   UNL     1       1.275  -2.183   0.118  0.00  0.00    +0.075 C 
ATOM      2  C   UNL     1       0.674  -2.760  -1.133  0.00  0.00    +0.033 A 
ATOM      3  C   UNL     1      -0.565  -3.256  -1.341  0.00  0.00    +0.091 A 
ATOM      4  N   UNL     1      -0.796  -3.729  -2.609  0.00  0.00    -0.288 N 
ATOM      5  C   UNL     1       0.175  -3.661  -3.540  0.00  0.00    +0.292 A 
ATOM      6  O   UNL     1       0.135  -4.027  -4.701  0.00  0.00    -0.259 OA
ATOM      7  S   UNL     1       1.456  -2.949  -2.714  0.00  0.00    -0.030 S 
ATOM      8  S   UNL     1      -1.787  -3.263  -0.037  0.00  0.00    -0.093 S 
ATOM      9  C   UNL     1      -0.992  -2.149   1.150  0.00  0.00    +0.152 C 
ATOM     10  C   UNL     1       0.476  -2.664   1.303  0.00  0.00    +0.111 C 
ATOM     11  C   UNL     1       0.812  -2.151   2.668  0.00  0.00    +0.235 C 
ATOM     12  O   UNL     1       1.902  -1.823   3.072  0.00  0.00    -0.274 OA
ATOM     13  N   UNL     1      -0.357  -2.129   3.360  0.00  0.00    -0.162 N 
ATOM     14  C   UNL     1      -1.482  -2.285   2.566  0.00  0.00    +0.244 C 
ATOM     15  O   UNL     1      -2.617  -2.498   2.923  0.00  0.00    -0.273 OA
ATOM     16  C   UNL     1      -0.421  -1.952   4.695  0.00  0.00    +0.313 C 
ATOM     17  O   UNL     1       0.600  -1.802   5.337  0.00  0.00    -0.252 OA
ATOM     18  N   UNL     1      -1.616  -1.941   5.317  0.00  0.00    -0.313 N 
ATOM     19  H   UNL     1      -2.431  -2.061   4.804  0.00  0.00    +0.147 HD
ATOM     20  H   UNL     1      -1.662  -1.813   6.277  0.00  0.00    +0.147 HD
ENDROOT
BRANCH   1  25
ATOM     21  C   UNL     1       1.983   1.454   0.841  0.00  0.00    +0.001 A 
ATOM     22  C   UNL     1       1.148   2.087  -0.062  0.00  0.00    +0.004 A 
ATOM     23  C   UNL     1       0.352   1.339  -0.909  0.00  0.00    +0.046 A 
ATOM     24  C   UNL     1       0.392  -0.046  -0.853  0.00  0.00    +0.121 A 
ATOM     25  C   UNL     1       1.230  -0.678   0.054  0.00  0.00    +0.003 A 
ATOM     26  C   UNL     1       2.024   0.074   0.899  0.00  0.00    +0.008 A 
BRANCH  24  27
ATOM     27  O   UNL     1      -0.391  -0.784  -1.684  0.00  0.00    -0.506 OA
ATOM     28  H   UNL     1      -0.008  -0.927  -2.561  0.00  0.00    +0.292 HD
ENDBRANCH  24  27
ENDBRANCH   1  25
BRANCH   4  29
ATOM     29  C   UNL     1      -2.098  -4.308  -2.949  0.00  0.00    +0.222 C 
BRANCH  29  30
ATOM     30  C   UNL     1      -3.012  -3.223  -3.459  0.00  0.00    +0.235 C 
ATOM     31  O   UNL     1      -2.615  -2.080  -3.531  0.00  0.00    -0.274 OA
ATOM     32  N   UNL     1      -4.271  -3.525  -3.835  0.00  0.00    -0.300 N 
ATOM     33  C   UNL     1      -4.769  -4.904  -3.748  0.00  0.00    +0.108 C 
ATOM     34  C   UNL     1      -6.070  -4.909  -2.940  0.00  0.00    +0.019 C 
ATOM     35  C   UNL     1      -7.059  -3.923  -3.567  0.00  0.00    +0.003 C 
ATOM     36  C   UNL     1      -6.469  -2.511  -3.526  0.00  0.00    +0.019 C 
ATOM     37  C   UNL     1      -5.174  -2.478  -4.334  0.00  0.00    +0.108 C 
ENDBRANCH  29  30
ENDBRANCH   4  29
TORSDOF 4
