REMARK  Name = ZINC09508627
REMARK  14 active torsions:
REMARK  status: ('A' for Active; 'I' for Inactive)
REMARK    1  A    between atoms: C_1  and  C_2
REMARK    2  A    between atoms: C_2  and  C_3
REMARK    3  A    between atoms: C_3  and  N_4
REMARK    4  A    between atoms: C_5  and  N_34
REMARK    5  A    between atoms: C_6  and  N_13
REMARK    6  A    between atoms: N_13  and  C_14
REMARK    7  A    between atoms: C_14  and  C_15
REMARK    8  A    between atoms: C_15  and  O_16
REMARK    9  A    between atoms: O_16  and  C_17
REMARK   10  A    between atoms: C_18  and  C_20
REMARK   11  A    between atoms: C_20  and  S_21
REMARK   12  A    between atoms: S_21  and  C_22
REMARK   13  A    between atoms: C_24  and  C_33
REMARK   14  A    between atoms: C_29  and  C_32
REMARK                            x       y       z     vdW  Elec       q    Type
REMARK                         _______ _______ _______ _____ _____    ______ ____
ROOT
ATOM      1  N   UNL     1      -1.569  -4.704  -2.458  0.00  0.00    -0.261 N 
ATOM      2  C   UNL     1      -1.357  -3.978  -3.575  0.00  0.00    +0.230 C 
ATOM      3  O   UNL     1      -1.325  -2.766  -3.513  0.00  0.00    -0.274 OA
ENDROOT
BRANCH   1   6
ATOM      4  N   UNL     1      -0.824  -3.618   0.972  0.00  0.00    -0.280 N 
ATOM      5  C   UNL     1      -0.702  -4.259  -0.238  0.00  0.00    +0.127 A 
ATOM      6  C   UNL     1      -1.666  -4.061  -1.205  0.00  0.00    +0.140 A 
ATOM      7  C   UNL     1      -2.748  -3.208  -0.921  0.00  0.00    +0.277 A 
ATOM      8  O   UNL     1      -3.615  -3.016  -1.758  0.00  0.00    -0.266 OA
ATOM      9  N   UNL     1      -2.821  -2.604   0.281  0.00  0.00    -0.273 N 
ATOM     10  H   UNL     1      -3.566  -2.015   0.478  0.00  0.00    +0.173 HD
ATOM     11  C   UNL     1      -1.874  -2.812   1.213  0.00  0.00    +0.331 A 
ATOM     12  O   UNL     1      -1.967  -2.258   2.292  0.00  0.00    -0.246 OA
BRANCH   5  13
ATOM     13  N   UNL     1       0.368  -5.085  -0.483  0.00  0.00    -0.343 N 
ATOM     14  H   UNL     1       1.075  -5.171   0.176  0.00  0.00    +0.144 HD
ATOM     15  H   UNL     1       0.417  -5.583  -1.314  0.00  0.00    +0.144 HD
ENDBRANCH   5  13
BRANCH   4  16
ATOM     16  C   UNL     1       0.193  -3.818   2.008  0.00  0.00    +0.128 C 
BRANCH  16  18
ATOM     17  C   UNL     1       0.864  -5.221   3.963  0.00  0.00    +0.005 C 
ATOM     18  C   UNL     1      -0.198  -5.011   2.882  0.00  0.00    +0.018 C 
ENDBRANCH  16  18
ENDBRANCH   4  16
ENDBRANCH   1   6
BRANCH   1  19
ATOM     19  C   UNL     1      -1.698  -6.161  -2.545  0.00  0.00    +0.142 C 
BRANCH  19  20
ATOM     20  C   UNL     1      -3.176  -6.535  -2.674  0.00  0.00    +0.178 C 
BRANCH  20  21
ATOM     21  O   UNL     1      -3.688  -6.035  -3.911  0.00  0.00    -0.381 OA
ATOM     22  C   UNL     1      -5.068  -6.332  -4.132  0.00  0.00    +0.194 C 
ENDBRANCH  20  21
ENDBRANCH  19  20
ENDBRANCH   1  19
BRANCH   2  23
ATOM     23  C   UNL     1      -1.160  -4.670  -4.898  0.00  0.00    +0.172 C 
BRANCH  23  24
ATOM     24  S   UNL     1      -0.900  -3.431  -6.197  0.00  0.00    -0.097 S 
BRANCH  24  25
ATOM     25  C   UNL     1      -0.689  -4.386  -7.662  0.00  0.00    +0.098 A 
ATOM     26  C   UNL     1      -0.457  -3.730  -8.880  0.00  0.00    +0.038 A 
ATOM     27  C   UNL     1      -0.291  -4.456 -10.021  0.00  0.00    -0.039 A 
ATOM     28  C   UNL     1      -0.360  -5.862  -9.935  0.00  0.00    +0.004 A 
ATOM     29  C   UNL     1      -0.198  -6.669 -11.071  0.00  0.00    +0.010 A 
ATOM     30  C   UNL     1      -0.270  -8.024 -10.950  0.00  0.00    +0.001 A 
ATOM     31  C   UNL     1      -0.503  -8.620  -9.713  0.00  0.00    +0.005 A 
ATOM     32  C   UNL     1      -0.666  -7.866  -8.591  0.00  0.00    -0.024 A 
ATOM     33  C   UNL     1      -0.598  -6.465  -8.676  0.00  0.00    +0.075 A 
ATOM     34  N   UNL     1      -0.748  -5.701  -7.588  0.00  0.00    -0.240 NA
ATOM     35  C   UNL     1      -0.918  -8.531  -7.262  0.00  0.00    +0.046 C 
ATOM     36  C   UNL     1      -0.041  -3.774 -11.341  0.00  0.00    +0.044 C 
ENDBRANCH  24  25
ENDBRANCH  23  24
ENDBRANCH   2  23
TORSDOF 10
