REMARK  Name = ZINC08996570
REMARK  11 active torsions:
REMARK  status: ('A' for Active; 'I' for Inactive)
REMARK    1  A    between atoms: C_1  and  C_2
REMARK    2  A    between atoms: C_5  and  C_32
REMARK    3  A    between atoms: C_6  and  C_8
REMARK    4  A    between atoms: C_8  and  O_9
REMARK    5  A    between atoms: O_9  and  C_10
REMARK    6  A    between atoms: C_13  and  C_17
REMARK    7  A    between atoms: C_14  and  O_16
REMARK    8  A    between atoms: C_18  and  C_24
REMARK    9  A    between atoms: C_19  and  C_23
REMARK   10  A    between atoms: C_29  and  O_30
REMARK   11  A    between atoms: O_30  and  C_31
REMARK                            x       y       z     vdW  Elec       q    Type
REMARK                         _______ _______ _______ _____ _____    ______ ____
ROOT
ATOM      1  C   UNL     1       0.061  -2.448   4.832  0.00  0.00    +0.124 A 
ATOM      2  C   UNL     1       0.085  -3.827   5.004  0.00  0.00    +0.046 A 
ATOM      3  C   UNL     1       0.099  -4.368   6.271  0.00  0.00    +0.017 A 
ATOM      4  C   UNL     1       0.088  -3.529   7.388  0.00  0.00    +0.042 A 
ATOM      5  C   UNL     1       0.063  -2.139   7.213  0.00  0.00    +0.129 A 
ATOM      6  C   UNL     1       0.055  -1.607   5.935  0.00  0.00    +0.091 A 
ENDROOT
BRANCH   4   7
ATOM      7  C   UNL     1       0.102  -4.105   8.747  0.00  0.00    +0.077 A 
ATOM      8  C   UNL     1      -0.911  -4.014   9.693  0.00  0.00    +0.034 A 
ATOM      9  C   UNL     1      -0.476  -4.704  10.838  0.00  0.00    +0.068 A 
ATOM     10  N   UNL     1       0.718  -5.181  10.608  0.00  0.00    -0.178 NA
ATOM     11  N   UNL     1       1.109  -4.831   9.310  0.00  0.00    -0.276 N 
ATOM     12  H   UNL     1       1.950  -5.062   8.886  0.00  0.00    +0.189 HD
ATOM     13  C   UNL     1      -1.255  -4.865  12.118  0.00  0.00    +0.068 C 
BRANCH   8  14
ATOM     14  C   UNL     1      -2.210  -3.320   9.526  0.00  0.00    +0.028 A 
ATOM     15  C   UNL     1      -3.313  -4.008   9.027  0.00  0.00    +0.012 A 
ATOM     16  C   UNL     1      -4.521  -3.357   8.873  0.00  0.00    +0.001 A 
ATOM     17  C   UNL     1      -4.639  -2.021   9.214  0.00  0.00    +0.004 A 
ATOM     18  C   UNL     1      -3.551  -1.328   9.710  0.00  0.00    +0.046 A 
ATOM     19  C   UNL     1      -2.335  -1.971   9.875  0.00  0.00    +0.128 A 
BRANCH  19  20
ATOM     20  O   UNL     1      -1.266  -1.292  10.368  0.00  0.00    -0.495 OA
ATOM     21  C   UNL     1      -1.468   0.082  10.703  0.00  0.00    +0.277 C 
ENDBRANCH  19  20
ENDBRANCH   8  14
ENDBRANCH   4   7
BRANCH   5  22
ATOM     22  O   UNL     1       0.052  -1.317   8.294  0.00  0.00    -0.506 OA
ATOM     23  H   UNL     1       0.932  -1.063   8.604  0.00  0.00    +0.292 HD
ENDBRANCH   5  22
BRANCH   1  24
ATOM     24  O   UNL     1       0.047  -1.922   3.580  0.00  0.00    -0.487 OA
BRANCH  24  25
ATOM     25  C   UNL     1       0.054  -2.845   2.489  0.00  0.00    +0.264 C 
BRANCH  25  31
ATOM     26  C   UNL     1      -0.018   1.503   0.010  0.00  0.00    +0.044 C 
ATOM     27  C   UNL     1       0.002  -0.004   0.002  0.00  0.00    -0.050 A 
ATOM     28  C   UNL     1       0.006  -0.689  -1.199  0.00  0.00    +0.003 A 
ATOM     29  C   UNL     1       0.025  -2.071  -1.207  0.00  0.00    +0.004 A 
ATOM     30  C   UNL     1       0.040  -2.768  -0.013  0.00  0.00    -0.044 A 
ATOM     31  C   UNL     1       0.037  -2.084   1.188  0.00  0.00    -0.007 A 
ATOM     32  C   UNL     1       0.023  -0.702   1.195  0.00  0.00    +0.010 A 
ATOM     33  C   UNL     1       0.059  -4.275  -0.021  0.00  0.00    +0.044 C 
ENDBRANCH  25  31
ENDBRANCH  24  25
ENDBRANCH   1  24
TORSDOF 7
