REMARK  Name = ZINC13072832
REMARK  10 active torsions:
REMARK  status: ('A' for Active; 'I' for Inactive)
REMARK    1  A    between atoms: C_1  and  C_2
REMARK    2  A    between atoms: C_2  and  C_3
REMARK    3  A    between atoms: C_6  and  C_9
REMARK    4  A    between atoms: N_14  and  C_16
REMARK    5  A    between atoms: C_16  and  N_17
REMARK    6  A    between atoms: N_20  and  S_23
REMARK    7  A    between atoms: S_23  and  C_26
REMARK    8  A    between atoms: C_29  and  C_32
REMARK    9  A    between atoms: C_32  and  C_33
REMARK   10  A    between atoms: C_32  and  C_34
REMARK                            x       y       z     vdW  Elec       q    Type
REMARK                         _______ _______ _______ _____ _____    ______ ____
ROOT
ATOM      1  N   UNL     1      -2.981   2.994  -2.793  0.00  0.00    -0.281 NA
ATOM      2  C   UNL     1      -2.076   3.886  -2.056  0.00  0.00    +0.103 C 
ATOM      3  C   UNL     1      -0.706   3.213  -1.915  0.00  0.00    +0.125 C 
ATOM      4  N   UNL     1      -0.897   1.885  -1.312  0.00  0.00    -0.174 NA
ATOM      5  C   UNL     1      -1.887   0.982  -1.919  0.00  0.00    +0.125 C 
ATOM      6  C   UNL     1      -3.215   1.745  -2.057  0.00  0.00    +0.103 C 
ENDROOT
BRANCH   4   7
ATOM      7  S   UNL     1      -0.017   1.417   0.010  0.00  0.00    +0.061 S 
ATOM      8  O   UNL     1       0.002  -0.004   0.002  0.00  0.00    -0.153 OA
ATOM      9  O   UNL     1       1.172   2.195   0.003  0.00  0.00    -0.153 OA
BRANCH   7  10
ATOM     10  C   UNL     1      -0.927   1.900   1.439  0.00  0.00    +0.105 A 
ATOM     11  C   UNL     1      -0.717   3.145   2.004  0.00  0.00    +0.029 A 
ATOM     12  C   UNL     1      -1.434   3.526   3.123  0.00  0.00    +0.006 A 
ATOM     13  C   UNL     1      -2.354   2.659   3.683  0.00  0.00    -0.045 A 
ATOM     14  C   UNL     1      -2.559   1.412   3.121  0.00  0.00    +0.006 A 
ATOM     15  C   UNL     1      -1.846   1.033   2.000  0.00  0.00    +0.029 A 
BRANCH  13  16
ATOM     16  C   UNL     1      -3.132   3.072   4.905  0.00  0.00    +0.013 C 
ATOM     17  C   UNL     1      -2.163   3.372   6.050  0.00  0.00    +0.012 C 
ATOM     18  C   UNL     1      -3.950   4.326   4.588  0.00  0.00    +0.012 C 
ENDBRANCH  13  16
ENDBRANCH   7  10
ENDBRANCH   4   7
BRANCH   1  19
ATOM     19  C   UNL     1      -4.250   3.669  -3.100  0.00  0.00    +0.233 C 
BRANCH  19  25
ATOM     20  C   UNL     1      -6.335   1.440  -5.018  0.00  0.00    +0.160 A 
ATOM     21  N   UNL     1      -6.782   1.190  -3.736  0.00  0.00    -0.317 N 
ATOM     22  H   UNL     1      -7.583   0.455  -3.566  0.00  0.00    +0.169 HD
ATOM     23  C   UNL     1      -6.081   1.966  -2.885  0.00  0.00    +0.177 A 
ATOM     24  S   UNL     1      -6.264   2.022  -1.184  0.00  0.00    -0.011 S 
ATOM     25  N   UNL     1      -5.210   2.691  -3.616  0.00  0.00    -0.226 N 
ATOM     26  N   UNL     1      -5.397   2.343  -4.961  0.00  0.00    -0.150 NA
BRANCH  20  30
ATOM     27  C   UNL     1      -7.788  -0.409  -8.557  0.00  0.00    -0.048 A 
ATOM     28  C   UNL     1      -6.779   0.535  -8.637  0.00  0.00    +0.004 A 
ATOM     29  C   UNL     1      -6.303   1.139  -7.491  0.00  0.00    +0.012 A 
ATOM     30  C   UNL     1      -6.841   0.796  -6.251  0.00  0.00    +0.019 A 
ATOM     31  C   UNL     1      -7.855  -0.159  -6.176  0.00  0.00    +0.012 A 
ATOM     32  C   UNL     1      -8.325  -0.753  -7.329  0.00  0.00    +0.004 A 
BRANCH  27  34
ATOM     33  C   UNL     1      -7.490  -2.330 -10.096  0.00  0.00    +0.009 C 
ATOM     34  C   UNL     1      -8.303  -1.065  -9.812  0.00  0.00    +0.032 C 
ENDBRANCH  27  34
ENDBRANCH  20  30
ENDBRANCH  19  25
ENDBRANCH   1  19
TORSDOF 7
