REMARK  Name = ZINC47041460
REMARK  5 active torsions:
REMARK  status: ('A' for Active; 'I' for Inactive)
REMARK    1  A    between atoms: C_6  and  S_11
REMARK    2  A    between atoms: S_11  and  C_12
REMARK    3  A    between atoms: C_12  and  C_13
REMARK    4  A    between atoms: N_15  and  C_16
REMARK    5  A    between atoms: C_20  and  N_22
REMARK                            x       y       z     vdW  Elec       q    Type
REMARK                         _______ _______ _______ _____ _____    ______ ____
ROOT
ATOM      1  C   UNL     1       5.990  -5.459  -0.066  0.00  0.00    +0.227 C 
ATOM      2  O   UNL     1       7.081  -4.930  -0.094  0.00  0.00    -0.275 OA
ATOM      3  N   UNL     1       5.892  -6.803  -0.069  0.00  0.00    -0.285 N 
ATOM      4  H   UNL     1       5.024  -7.226   0.018  0.00  0.00    +0.155 HD
ENDROOT
BRANCH   3   5
ATOM      5  C   UNL     1       7.044  -7.587  -0.199  0.00  0.00    +0.035 A 
ATOM      6  C   UNL     1       8.237  -7.173   0.380  0.00  0.00    +0.023 A 
ATOM      7  C   UNL     1       9.374  -7.947   0.252  0.00  0.00    +0.004 A 
ATOM      8  C   UNL     1       9.328  -9.136  -0.450  0.00  0.00    +0.024 A 
ATOM      9  C   UNL     1       8.139  -9.556  -1.030  0.00  0.00    +0.040 A 
ATOM     10  C   UNL     1       6.994  -8.783  -0.900  0.00  0.00    +0.047 A 
BRANCH   9  11
ATOM     11  N   UNL     1       8.094 -10.760  -1.742  0.00  0.00    -0.254 N 
ATOM     12  C   UNL     1       9.195 -11.729  -1.848  0.00  0.00    +0.134 C 
ATOM     13  C   UNL     1       8.616 -12.851  -2.732  0.00  0.00    +0.125 C 
ATOM     14  N   UNL     1       7.250 -12.396  -3.030  0.00  0.00    -0.297 N 
ATOM     15  C   UNL     1       7.039 -11.216  -2.430  0.00  0.00    +0.307 C 
ATOM     16  O   UNL     1       5.986 -10.613  -2.507  0.00  0.00    -0.252 OA
ATOM     17  H   UNL     1       6.603 -12.875  -3.571  0.00  0.00    +0.150 HD
ENDBRANCH   9  11
ENDBRANCH   3   5
BRANCH   1  18
ATOM     18  C   UNL     1       4.743  -4.613  -0.028  0.00  0.00    +0.170 C 
BRANCH  18  19
ATOM     19  S   UNL     1       5.203  -2.858  -0.033  0.00  0.00    -0.116 S 
BRANCH  19  25
ATOM     20  C   UNL     1      -0.058   1.317   0.133  0.00  0.00    +0.001 A 
ATOM     21  C   UNL     1       1.122   2.057   0.103  0.00  0.00    +0.001 A 
ATOM     22  C   UNL     1       2.335   1.440   0.066  0.00  0.00    +0.008 A 
ATOM     23  C   UNL     1       2.400   0.035   0.058  0.00  0.00    -0.017 A 
ATOM     24  C   UNL     1       3.634  -0.634   0.021  0.00  0.00    +0.023 A 
ATOM     25  C   UNL     1       3.658  -2.013   0.014  0.00  0.00    +0.009 A 
ATOM     26  C   UNL     1       2.465  -2.748   0.043  0.00  0.00    +0.015 A 
ATOM     27  C   UNL     1       1.260  -2.122   0.079  0.00  0.00    +0.009 A 
ATOM     28  C   UNL     1       1.199  -0.717   0.088  0.00  0.00    -0.018 A 
ATOM     29  C   UNL     1      -0.034  -0.043   0.125  0.00  0.00    +0.008 A 
ENDBRANCH  19  25
ENDBRANCH  18  19
ENDBRANCH   1  18
TORSDOF 5
