REMARK  Name = ZINC42880030
REMARK  8 active torsions:
REMARK  status: ('A' for Active; 'I' for Inactive)
REMARK    1  A    between atoms: C_1  and  C_2
REMARK    2  A    between atoms: C_4  and  C_8
REMARK    3  A    between atoms: C_5  and  C_7
REMARK    4  A    between atoms: C_8  and  C_10
REMARK    5  A    between atoms: C_8  and  N_11
REMARK    6  A    between atoms: N_11  and  C_12
REMARK    7  A    between atoms: C_12  and  C_13
REMARK    8  A    between atoms: C_18  and  O_19
REMARK                            x       y       z     vdW  Elec       q    Type
REMARK                         _______ _______ _______ _____ _____    ______ ____
ROOT
ATOM      1  N   UNL     1      -3.137  -2.572   0.475  0.00  0.00    +0.386 N 
ATOM      2  H   UNL     1      -2.964  -2.160   1.380  0.00  0.00    -0.085 HD
ATOM      3  H   UNL     1      -3.414  -1.852  -0.175  0.00  0.00    -0.085 HD
ENDROOT
BRANCH   1   4
ATOM      4  C   UNL     1      -1.912  -3.224  -0.008  0.00  0.00    -0.043 C 
ATOM      5  C   UNL     1      -2.137  -3.741  -1.430  0.00  0.00    -0.009 C 
BRANCH   4   9
ATOM      6  C   UNL     1      -0.018   1.503   0.010  0.00  0.00    +0.051 C 
ATOM      7  C   UNL     1       0.002  -0.004   0.002  0.00  0.00    -0.013 A 
ATOM      8  C   UNL     1      -1.039  -0.872   0.002  0.00  0.00    +0.013 A 
ATOM      9  C   UNL     1      -0.780  -2.230  -0.007  0.00  0.00    -0.051 A 
ATOM     10  C   UNL     1       0.507  -2.653  -0.016  0.00  0.00    -0.011 A 
ATOM     11  S   UNL     1       1.404  -1.109  -0.018  0.00  0.00    -0.098 S 
ATOM     12  C   UNL     1       1.043  -4.062  -0.027  0.00  0.00    +0.052 C 
ENDBRANCH   4   9
ENDBRANCH   1   4
BRANCH   1  13
ATOM     13  C   UNL     1      -4.210  -3.569   0.589  0.00  0.00    -0.042 C 
BRANCH  13  14
ATOM     14  C   UNL     1      -5.466  -2.900   1.085  0.00  0.00    -0.019 A 
ATOM     15  C   UNL     1      -6.509  -2.655   0.210  0.00  0.00    +0.054 A 
ATOM     16  C   UNL     1      -7.665  -2.040   0.663  0.00  0.00    +0.167 A 
ATOM     17  C   UNL     1      -7.776  -1.669   2.001  0.00  0.00    +0.170 A 
ATOM     18  C   UNL     1      -6.731  -1.917   2.875  0.00  0.00    +0.095 A 
ATOM     19  C   UNL     1      -5.577  -2.536   2.418  0.00  0.00    +0.122 A 
ATOM     20  O   UNL     1      -8.997  -1.089   2.192  0.00  0.00    -0.452 OA
ATOM     21  C   UNL     1      -9.467  -0.739   0.877  0.00  0.00    +0.466 C 
ATOM     22  O   UNL     1      -8.817  -1.692   0.016  0.00  0.00    -0.453 OA
BRANCH  19  23
ATOM     23  O   UNL     1      -4.553  -2.784   3.278  0.00  0.00    -0.506 OA
ATOM     24  H   UNL     1      -3.909  -2.065   3.340  0.00  0.00    +0.292 HD
ENDBRANCH  19  23
ENDBRANCH  13  14
ENDBRANCH   1  13
TORSDOF 5
