REMARK  Name = ZINC35970098
REMARK  10 active torsions:
REMARK  status: ('A' for Active; 'I' for Inactive)
REMARK    1  A    between atoms: C_1  and  C_2
REMARK    2  A    between atoms: C_3  and  C_34
REMARK    3  A    between atoms: C_4  and  C_28
REMARK    4  A    between atoms: C_7  and  C_12
REMARK    5  A    between atoms: C_13  and  N_15
REMARK    6  A    between atoms: N_15  and  C_16
REMARK    7  A    between atoms: C_16  and  C_17
REMARK    8  A    between atoms: C_17  and  C_18
REMARK    9  A    between atoms: C_34  and  O_36
REMARK   10  A    between atoms: O_36  and  C_37
REMARK                            x       y       z     vdW  Elec       q    Type
REMARK                         _______ _______ _______ _____ _____    ______ ____
ROOT
ATOM      1  C   UNL     1       0.328   1.163   0.896  0.00  0.00    +0.066 C 
ATOM      2  C   UNL     1       0.260  -0.293   0.512  0.00  0.00    +0.053 C 
ATOM      3  C   UNL     1      -0.965  -0.929   0.447  0.00  0.00    +0.082 C 
ATOM      4  C   UNL     1      -0.980  -2.390   0.057  0.00  0.00    +0.150 C 
ATOM      5  N   UNL     1       0.333  -3.029  -0.227  0.00  0.00    -0.267 N 
ATOM      6  C   UNL     1       0.557  -4.340  -0.598  0.00  0.00    +0.048 C 
ATOM      7  C   UNL     1       1.835  -4.722  -0.810  0.00  0.00    +0.072 C 
ATOM      8  S   UNL     1       2.729  -3.216  -0.483  0.00  0.00    -0.060 S 
ATOM      9  C   UNL     1       1.430  -2.223  -0.105  0.00  0.00    +0.166 C 
ATOM     10  N   UNL     1       1.374  -0.951   0.235  0.00  0.00    -0.230 NA
ENDROOT
BRANCH   4  11
ATOM     11  C   UNL     1      -1.639  -3.161   1.172  0.00  0.00    -0.022 A 
ATOM     12  C   UNL     1      -0.959  -3.382   2.355  0.00  0.00    +0.006 A 
ATOM     13  C   UNL     1      -1.563  -4.089   3.377  0.00  0.00    +0.000 A 
ATOM     14  C   UNL     1      -2.847  -4.575   3.217  0.00  0.00    +0.000 A 
ATOM     15  C   UNL     1      -3.527  -4.353   2.034  0.00  0.00    +0.000 A 
ATOM     16  C   UNL     1      -2.925  -3.642   1.013  0.00  0.00    +0.006 A 
ENDBRANCH   4  11
BRANCH   6  17
ATOM     17  C   UNL     1      -0.557  -5.287  -0.755  0.00  0.00    +0.091 C 
ATOM     18  C   UNL     1      -0.305  -6.589  -0.990  0.00  0.00    +0.239 C 
ATOM     19  O   UNL     1       0.969  -7.050  -0.959  0.00  0.00    -0.271 OA
BRANCH  18  20
ATOM     20  N   UNL     1      -1.349  -7.457  -1.264  0.00  0.00    -0.311 N 
ATOM     21  H   UNL     1      -2.265  -7.145  -1.214  0.00  0.00    +0.149 HD
BRANCH  20  22
ATOM     22  C   UNL     1      -1.068  -8.848  -1.630  0.00  0.00    +0.109 C 
BRANCH  22  23
ATOM     23  C   UNL     1      -2.375  -9.552  -1.999  0.00  0.00    +0.056 C 
BRANCH  23  24
ATOM     24  C   UNL     1      -2.086 -10.982  -2.375  0.00  0.00    -0.021 A 
ATOM     25  C   UNL     1      -1.888 -11.458  -3.615  0.00  0.00    +0.087 A 
ATOM     26  N   UNL     1      -1.653 -12.805  -3.566  0.00  0.00    -0.360 N 
ATOM     27  H   UNL     1      -1.482 -13.369  -4.337  0.00  0.00    +0.165 HD
ATOM     28  C   UNL     1      -1.694 -13.240  -2.261  0.00  0.00    +0.047 A 
ATOM     29  C   UNL     1      -1.961 -12.117  -1.457  0.00  0.00    +0.003 A 
ATOM     30  C   UNL     1      -2.054 -12.258  -0.071  0.00  0.00    +0.010 A 
ATOM     31  C   UNL     1      -1.883 -13.488   0.498  0.00  0.00    +0.001 A 
ATOM     32  C   UNL     1      -1.615 -14.599  -0.290  0.00  0.00    +0.002 A 
ATOM     33  C   UNL     1      -1.528 -14.484  -1.660  0.00  0.00    +0.026 A 
ENDBRANCH  23  24
ENDBRANCH  22  23
ENDBRANCH  20  22
ENDBRANCH  18  20
ENDBRANCH   6  17
BRANCH   3  34
ATOM     34  C   UNL     1      -2.152  -0.244   0.733  0.00  0.00    +0.339 C 
ATOM     35  O   UNL     1      -2.116   0.933   1.045  0.00  0.00    -0.245 OA
BRANCH  34  36
ATOM     36  O   UNL     1      -3.337  -0.889   0.662  0.00  0.00    -0.465 OA
ATOM     37  C   UNL     1      -4.508  -0.129   0.966  0.00  0.00    +0.280 C 
ENDBRANCH  34  36
ENDBRANCH   3  34
TORSDOF 8
