REMARK  Name = ZINC09577723
REMARK  9 active torsions:
REMARK  status: ('A' for Active; 'I' for Inactive)
REMARK    1  A    between atoms: C_1  and  C_2
REMARK    2  A    between atoms: C_11  and  N_21
REMARK    3  A    between atoms: C_13  and  C_15
REMARK    4  A    between atoms: C_26  and  C_27
REMARK    5  A    between atoms: C_26  and  N_68
REMARK    6  A    between atoms: N_29  and  C_30
REMARK    7  A    between atoms: C_30  and  C_31
REMARK    8  A    between atoms: C_31  and  C_32
REMARK    9  A    between atoms: C_31  and  C_33
REMARK                            x       y       z     vdW  Elec       q    Type
REMARK                         _______ _______ _______ _____ _____    ______ ____
ROOT
ATOM      1  C   UNL     1       7.810   2.931  -0.946  0.00  0.00    +0.008 C 
ATOM      2  C   UNL     1       6.908   1.890  -0.280  0.00  0.00    -0.009 C 
ATOM      3  C   UNL     1       5.485   2.443  -0.164  0.00  0.00    +0.008 C 
ATOM      4  C   UNL     1       4.528   1.330   0.265  0.00  0.00    +0.037 C 
ATOM      5  C   UNL     1       5.080   0.662   1.521  0.00  0.00    -0.025 A 
ATOM      6  C   UNL     1       6.378   0.802   1.862  0.00  0.00    -0.004 A 
ATOM      7  S   UNL     1       6.562  -0.115   3.368  0.00  0.00    -0.073 S 
ATOM      8  C   UNL     1       4.895  -0.699   3.531  0.00  0.00    +0.114 A 
ATOM      9  C   UNL     1       4.245  -0.150   2.406  0.00  0.00    +0.051 A 
ATOM     10  C   UNL     1       2.860  -0.457   2.287  0.00  0.00    +0.134 A 
ATOM     11  N   UNL     1       2.287  -1.222   3.199  0.00  0.00    -0.212 NA
ATOM     12  C   UNL     1       2.962  -1.713   4.234  0.00  0.00    +0.164 A 
ATOM     13  N   UNL     1       4.253  -1.454   4.399  0.00  0.00    -0.220 NA
ATOM     14  C   UNL     1       7.431   1.575   1.128  0.00  0.00    +0.046 C 
ENDROOT
BRANCH  10  15
ATOM     15  N   UNL     1       2.123   0.034   1.224  0.00  0.00    -0.318 N 
ATOM     16  C   UNL     1       1.623  -1.059   0.379  0.00  0.00    +0.088 C 
ATOM     17  C   UNL     1       0.883  -0.472  -0.825  0.00  0.00    -0.059 C 
ATOM     18  C   UNL     1       0.278   1.466   0.491  0.00  0.00    -0.059 C 
ATOM     19  C   UNL     1       1.017   0.879   1.696  0.00  0.00    +0.088 C 
ATOM     20  N   UNL     1      -0.239   0.357  -0.338  0.00  0.00    +0.387 N 
ATOM     21  H   UNL     1      -0.861  -0.226   0.235  0.00  0.00    -0.081 HD
BRANCH  20  22
ATOM     22  C   UNL     1      -1.005   0.895  -1.482  0.00  0.00    +0.019 C 
BRANCH  22  23
ATOM     23  C   UNL     1      -2.261   1.546  -0.964  0.00  0.00    +0.196 C 
ATOM     24  O   UNL     1      -2.483   1.573   0.228  0.00  0.00    -0.278 OA
ATOM     25  N   UNL     1      -3.138   2.099  -1.825  0.00  0.00    -0.317 N 
ATOM     26  H   UNL     1      -2.960   2.078  -2.779  0.00  0.00    +0.149 HD
BRANCH  25  27
ATOM     27  C   UNL     1      -4.359   2.732  -1.321  0.00  0.00    +0.107 C 
BRANCH  27  28
ATOM     28  C   UNL     1      -5.174   3.276  -2.497  0.00  0.00    -0.000 C 
ATOM     29  C   UNL     1      -5.651   2.113  -3.368  0.00  0.00    +0.009 C 
ATOM     30  C   UNL     1      -6.385   4.046  -1.965  0.00  0.00    +0.009 C 
ENDBRANCH  27  28
ENDBRANCH  25  27
ENDBRANCH  22  23
ENDBRANCH  20  22
ENDBRANCH  10  15
BRANCH  12  31
ATOM     31  C   UNL     1       2.260  -2.565   5.223  0.00  0.00    +0.037 A 
ATOM     32  C   UNL     1       2.947  -3.099   6.317  0.00  0.00    +0.014 A 
ATOM     33  C   UNL     1       2.245  -3.885   7.214  0.00  0.00    +0.020 A 
ATOM     34  C   UNL     1       0.900  -4.123   6.996  0.00  0.00    +0.111 A 
ATOM     35  N   UNL     1       0.279  -3.611   5.951  0.00  0.00    -0.263 NA
ATOM     36  C   UNL     1       0.904  -2.853   5.073  0.00  0.00    +0.122 A 
ENDBRANCH  12  31
TORSDOF 6
