REMARK  Name = ZINC20678332
REMARK  5 active torsions:
REMARK  status: ('A' for Active; 'I' for Inactive)
REMARK    1  A    between atoms: C_1  and  C_2
REMARK    2  A    between atoms: C_5  and  N_26
REMARK    3  A    between atoms: C_9  and  C_18
REMARK    4  A    between atoms: C_21  and  O_24
REMARK    5  A    between atoms: O_24  and  C_25
REMARK                            x       y       z     vdW  Elec       q    Type
REMARK                         _______ _______ _______ _____ _____    ______ ____
ROOT
ATOM      1  C   UNL     1       5.295   2.952   2.551  0.00  0.00    +0.045 C 
ATOM      2  C   UNL     1       5.758   2.092   1.403  0.00  0.00    -0.029 A 
ATOM      3  C   UNL     1       7.076   2.141   1.004  0.00  0.00    +0.007 A 
ATOM      4  C   UNL     1       7.515   1.356  -0.046  0.00  0.00    +0.033 A 
ATOM      5  C   UNL     1       6.625   0.517  -0.691  0.00  0.00    +0.132 A 
ATOM      6  C   UNL     1       5.306   0.458  -0.295  0.00  0.00    +0.011 A 
ATOM      7  C   UNL     1       4.846   1.255   0.757  0.00  0.00    +0.037 A 
ATOM      8  N   UNL     1       3.523   1.287   1.192  0.00  0.00    -0.336 N 
ATOM      9  C   UNL     1       2.594   0.341   0.554  0.00  0.00    +0.105 C 
ATOM     10  C   UNL     1       2.954   0.285  -0.916  0.00  0.00    +0.029 C 
ATOM     11  C   UNL     1       4.335  -0.441  -0.955  0.00  0.00    +0.051 C 
ATOM     12  C   UNL     1       4.437  -0.872  -2.381  0.00  0.00    -0.023 C 
ATOM     13  C   UNL     1       3.215  -1.020  -2.880  0.00  0.00    -0.030 C 
ATOM     14  C   UNL     1       2.171  -0.682  -1.812  0.00  0.00    +0.033 C 
ATOM     15  H   UNL     1       3.160   1.974   1.970  0.00  0.00    +0.147 HD
ENDROOT
BRANCH   9  16
ATOM     16  C   UNL     1       1.176   0.824   0.718  0.00  0.00    -0.027 A 
ATOM     17  C   UNL     1       0.159  -0.084   0.947  0.00  0.00    +0.009 A 
ATOM     18  C   UNL     1      -1.143   0.356   1.091  0.00  0.00    +0.046 A 
ATOM     19  C   UNL     1      -1.427   1.712   1.018  0.00  0.00    +0.120 A 
ATOM     20  C   UNL     1      -0.405   2.622   0.788  0.00  0.00    +0.046 A 
ATOM     21  C   UNL     1       0.894   2.176   0.638  0.00  0.00    +0.009 A 
BRANCH  19  22
ATOM     22  O   UNL     1      -2.706   2.148   1.164  0.00  0.00    -0.495 OA
ATOM     23  C   UNL     1      -3.707   1.155   1.399  0.00  0.00    +0.277 C 
ENDBRANCH  19  22
ENDBRANCH   9  16
BRANCH   5  24
ATOM     24  N   UNL     1       7.093  -0.324  -1.816  0.00  0.00    +0.057 N 
ATOM     25  O   UNL     1       6.853  -1.518  -1.824  0.00  0.00    -0.126 OA
ATOM     26  O   UNL     1       7.718   0.178  -2.733  0.00  0.00    -0.126 OA
ENDBRANCH   5  24
TORSDOF 3
