REMARK  Name = ZINC32507858
REMARK  8 active torsions:
REMARK  status: ('A' for Active; 'I' for Inactive)
REMARK    1  A    between atoms: C_8  and  N_10
REMARK    2  A    between atoms: C_12  and  N_31
REMARK    3  A    between atoms: C_15  and  C_17
REMARK    4  A    between atoms: N_19  and  C_20
REMARK    5  A    between atoms: C_20  and  C_21
REMARK    6  A    between atoms: C_21  and  C_22
REMARK    7  A    between atoms: N_31  and  C_32
REMARK    8  A    between atoms: C_32  and  C_33
REMARK                            x       y       z     vdW  Elec       q    Type
REMARK                         _______ _______ _______ _____ _____    ______ ____
ROOT
ATOM      1  N   UNL     1       3.632  -3.409   0.207  0.00  0.00    -0.289 NA
ATOM      2  C   UNL     1       3.817  -3.113   1.643  0.00  0.00    +0.070 C 
ATOM      3  C   UNL     1       5.152  -3.804   2.021  0.00  0.00    -0.055 C 
ATOM      4  C   UNL     1       5.997  -3.573   0.741  0.00  0.00    +0.014 C 
ATOM      5  C   UNL     1       4.952  -3.683  -0.390  0.00  0.00    +0.142 C 
ENDROOT
BRANCH   1  13
ATOM      6  C   UNL     1      -0.533  -1.062  -3.454  0.00  0.00    +0.000 A 
ATOM      7  C   UNL     1      -1.139  -0.695  -2.267  0.00  0.00    +0.000 A 
ATOM      8  C   UNL     1      -0.523  -0.973  -1.063  0.00  0.00    +0.004 A 
ATOM      9  C   UNL     1       0.702  -1.619  -1.040  0.00  0.00    -0.043 A 
ATOM     10  C   UNL     1       1.308  -1.986  -2.227  0.00  0.00    -0.043 A 
ATOM     11  C   UNL     1       0.689  -1.706  -3.433  0.00  0.00    +0.004 A 
ATOM     12  C   UNL     1       2.627  -2.671  -1.937  0.00  0.00    +0.054 C 
ATOM     13  C   UNL     1       2.966  -2.294  -0.479  0.00  0.00    +0.066 C 
ATOM     14  C   UNL     1       1.571  -2.032   0.128  0.00  0.00    +0.054 C 
ENDBRANCH   1  13
BRANCH   5  15
ATOM     15  C   UNL     1       4.973  -5.072  -0.974  0.00  0.00    +0.230 C 
ATOM     16  O   UNL     1       3.986  -5.774  -0.904  0.00  0.00    -0.274 OA
ATOM     17  N   UNL     1       6.088  -5.535  -1.574  0.00  0.00    -0.314 N 
ATOM     18  H   UNL     1       6.877  -4.973  -1.630  0.00  0.00    +0.149 HD
BRANCH  17  19
ATOM     19  C   UNL     1       6.108  -6.885  -2.141  0.00  0.00    +0.109 C 
BRANCH  19  20
ATOM     20  C   UNL     1       7.481  -7.159  -2.758  0.00  0.00    +0.054 C 
BRANCH  20  21
ATOM     21  C   UNL     1       7.502  -8.548  -3.342  0.00  0.00    -0.042 A 
ATOM     22  C   UNL     1       7.889  -9.620  -2.559  0.00  0.00    +0.007 A 
ATOM     23  C   UNL     1       7.909 -10.896  -3.090  0.00  0.00    +0.050 A 
ATOM     24  C   UNL     1       7.541 -11.104  -4.409  0.00  0.00    +0.166 A 
ATOM     25  C   UNL     1       7.150 -10.025  -5.197  0.00  0.00    +0.166 A 
ATOM     26  C   UNL     1       7.127  -8.749  -4.657  0.00  0.00    +0.053 A 
ATOM     27  O   UNL     1       6.839 -10.485  -6.444  0.00  0.00    -0.453 OA
ATOM     28  C   UNL     1       7.433 -11.794  -6.530  0.00  0.00    +0.466 C 
ATOM     29  O   UNL     1       7.475 -12.241  -5.162  0.00  0.00    -0.453 OA
ENDBRANCH  20  21
ENDBRANCH  19  20
ENDBRANCH  17  19
ENDBRANCH   5  15
BRANCH   3  30
ATOM     30  N   UNL     1       5.770  -3.154   3.184  0.00  0.00    +0.384 N 
ATOM     31  H   UNL     1       6.684  -3.551   3.345  0.00  0.00    -0.085 HD
ATOM     32  H   UNL     1       5.859  -2.164   3.009  0.00  0.00    -0.085 HD
BRANCH  30  33
ATOM     33  C   UNL     1       4.928  -3.368   4.369  0.00  0.00    -0.046 C 
BRANCH  33  34
ATOM     34  C   UNL     1       5.562  -2.701   5.563  0.00  0.00    -0.064 A 
ATOM     35  C   UNL     1       6.457  -3.401   6.351  0.00  0.00    +0.004 A 
ATOM     36  C   UNL     1       7.039  -2.791   7.445  0.00  0.00    +0.038 A 
ATOM     37  C   UNL     1       6.726  -1.478   7.753  0.00  0.00    +0.123 A 
ATOM     38  C   UNL     1       5.830  -0.777   6.963  0.00  0.00    +0.038 A 
ATOM     39  C   UNL     1       5.253  -1.388   5.866  0.00  0.00    +0.004 A 
ATOM     40  F   UNL     1       7.295  -0.880   8.823  0.00  0.00    -0.205 F 
ENDBRANCH  33  34
ENDBRANCH  30  33
ENDBRANCH   3  30
TORSDOF 8
