REMARK  Name = ZINC35325591
REMARK  9 active torsions:
REMARK  status: ('A' for Active; 'I' for Inactive)
REMARK    1  A    between atoms: C_1  and  C_2
REMARK    2  A    between atoms: C_7  and  N_12
REMARK    3  A    between atoms: C_9  and  C_11
REMARK    4  A    between atoms: C_13  and  C_15
REMARK    5  A    between atoms: C_15  and  C_39
REMARK    6  A    between atoms: N_28  and  C_29
REMARK    7  A    between atoms: C_29  and  C_30
REMARK    8  A    between atoms: C_30  and  C_31
REMARK    9  A    between atoms: C_31  and  N_32
REMARK                            x       y       z     vdW  Elec       q    Type
REMARK                         _______ _______ _______ _____ _____    ______ ____
ROOT
ATOM      1  C   UNL     1       2.018  -4.018   4.135  0.00  0.00    +0.129 C 
ATOM      2  C   UNL     1       1.282  -3.540   5.386  0.00  0.00    +0.159 C 
ATOM      3  N   UNL     1       1.572  -2.122   5.609  0.00  0.00    -0.317 N 
ATOM      4  C   UNL     1       0.836  -1.142   6.182  0.00  0.00    +0.069 A 
ATOM      5  C   UNL     1      -0.439  -1.111   6.742  0.00  0.00    +0.028 A 
ATOM      6  C   UNL     1      -0.874   0.100   7.249  0.00  0.00    +0.002 A 
ATOM      7  C   UNL     1      -0.087   1.241   7.210  0.00  0.00    +0.002 A 
ATOM      8  C   UNL     1       1.170   1.243   6.665  0.00  0.00    +0.030 A 
ATOM      9  C   UNL     1       1.642   0.030   6.141  0.00  0.00    +0.090 A 
ATOM     10  N   UNL     1       2.796  -0.294   5.551  0.00  0.00    -0.223 NA
ATOM     11  C   UNL     1       2.774  -1.553   5.222  0.00  0.00    +0.198 A 
ATOM     12  C   UNL     1       3.799  -2.370   4.525  0.00  0.00    +0.283 C 
ATOM     13  O   UNL     1       4.924  -1.953   4.330  0.00  0.00    -0.267 OA
ATOM     14  N   UNL     1       3.416  -3.602   4.118  0.00  0.00    -0.279 N 
ATOM     15  C   UNL     1       1.956  -5.545   4.080  0.00  0.00    +0.043 C 
ENDROOT
BRANCH   1  17
ATOM     16  N   UNL     1       1.678  -2.246   2.442  0.00  0.00    -0.310 N 
ATOM     17  C   UNL     1       1.328  -3.458   2.918  0.00  0.00    +0.238 C 
ATOM     18  O   UNL     1       0.457  -4.097   2.367  0.00  0.00    -0.273 OA
ATOM     19  H   UNL     1       2.374  -1.735   2.883  0.00  0.00    +0.149 HD
BRANCH  16  25
ATOM     20  C   UNL     1       0.478   1.921   0.069  0.00  0.00    +0.008 C 
ATOM     21  C   UNL     1       0.392   0.394   0.047  0.00  0.00    -0.009 C 
ATOM     22  C   UNL     1       1.074  -0.136  -1.216  0.00  0.00    +0.003 C 
ATOM     23  C   UNL     1       0.988  -1.664  -1.239  0.00  0.00    +0.002 C 
ATOM     24  C   UNL     1       1.689  -2.232  -0.003  0.00  0.00    +0.022 C 
ATOM     25  C   UNL     1       1.007  -1.702   1.260  0.00  0.00    +0.076 C 
ATOM     26  C   UNL     1       1.093  -0.174   1.282  0.00  0.00    +0.009 C 
ATOM     27  C   UNL     1       0.411   0.356   2.545  0.00  0.00    +0.009 C 
ENDBRANCH  16  25
ENDBRANCH   1  17
BRANCH  14  28
ATOM     28  C   UNL     1       4.434  -4.545   3.647  0.00  0.00    +0.107 C 
BRANCH  28  29
ATOM     29  C   UNL     1       4.624  -4.378   2.138  0.00  0.00    +0.000 C 
BRANCH  29  30
ATOM     30  C   UNL     1       5.687  -5.362   1.646  0.00  0.00    -0.077 C 
BRANCH  30  31
ATOM     31  N   UNL     1       5.778  -5.294   0.181  0.00  0.00    +0.380 N 
ATOM     32  C   UNL     1       6.623  -6.406  -0.293  0.00  0.00    -0.079 C 
ATOM     33  C   UNL     1       6.246  -6.712  -1.721  0.00  0.00    -0.019 C 
ATOM     34  C   UNL     1       7.181  -5.999  -2.716  0.00  0.00    -0.002 C 
ATOM     35  C   UNL     1       7.507  -4.561  -2.265  0.00  0.00    -0.002 C 
ATOM     36  C   UNL     1       6.302  -3.846  -1.709  0.00  0.00    -0.019 C 
ATOM     37  C   UNL     1       6.265  -4.036  -0.178  0.00  0.00    -0.079 C 
ATOM     38  H   UNL     1       4.853  -5.405  -0.205  0.00  0.00    -0.082 HD
ENDBRANCH  30  31
ENDBRANCH  29  30
ENDBRANCH  28  29
ENDBRANCH  14  28
TORSDOF 6
