REMARK  Name = ZINC39686822
REMARK  10 active torsions:
REMARK  status: ('A' for Active; 'I' for Inactive)
REMARK    1  A    between atoms: C_1  and  C_2
REMARK    2  A    between atoms: C_2  and  C_3
REMARK    3  A    between atoms: C_3  and  C_4
REMARK    4  A    between atoms: C_4  and  C_6
REMARK    5  A    between atoms: C_4  and  C_7
REMARK    6  A    between atoms: C_11  and  C_20
REMARK    7  A    between atoms: N_22  and  C_23
REMARK    8  A    between atoms: C_23  and  C_25
REMARK    9  A    between atoms: C_23  and  C_26
REMARK   10  A    between atoms: C_26  and  C_27
REMARK                            x       y       z     vdW  Elec       q    Type
REMARK                         _______ _______ _______ _____ _____    ______ ____
ROOT
ATOM      1  C   UNL     1      -2.923  -2.769  -0.278  0.00  0.00    +0.218 C 
ATOM      2  O   UNL     1      -3.882  -2.062  -0.507  0.00  0.00    -0.275 OA
ATOM      3  N   UNL     1      -3.084  -4.100  -0.140  0.00  0.00    -0.300 N 
ATOM      4  C   UNL     1      -2.063  -5.103   0.245  0.00  0.00    +0.121 C 
ATOM      5  C   UNL     1      -2.812  -6.084   1.175  0.00  0.00    +0.100 C 
ATOM      6  C   UNL     1      -4.293  -5.942   0.784  0.00  0.00    -0.004 C 
ATOM      7  C   UNL     1      -4.323  -4.890  -0.334  0.00  0.00    +0.115 C 
ATOM      8  C   UNL     1      -5.110  -5.457   1.978  0.00  0.00    -0.010 C 
ATOM      9  C   UNL     1      -6.587  -5.378   1.582  0.00  0.00    -0.082 C 
ATOM     10  N   UNL     1      -7.051  -6.702   1.151  0.00  0.00    +0.379 N 
ATOM     11  C   UNL     1      -6.324  -7.121  -0.053  0.00  0.00    -0.082 C 
ATOM     12  C   UNL     1      -4.835  -7.273   0.274  0.00  0.00    -0.010 C 
ATOM     13  H   UNL     1      -6.889  -7.371   1.889  0.00  0.00    -0.086 HD
ATOM     14  H   UNL     1      -8.039  -6.662   0.949  0.00  0.00    -0.086 HD
ENDROOT
BRANCH   5  15
ATOM     15  C   UNL     1      -2.338  -7.495   0.939  0.00  0.00    +0.218 C 
ATOM     16  O   UNL     1      -1.961  -7.832  -0.163  0.00  0.00    -0.275 OA
ATOM     17  N   UNL     1      -2.333  -8.383   1.953  0.00  0.00    -0.312 N 
ATOM     18  H   UNL     1      -2.635  -8.113   2.835  0.00  0.00    +0.149 HD
BRANCH  17  19
ATOM     19  C   UNL     1      -1.873  -9.754   1.724  0.00  0.00    +0.074 C 
ATOM     20  C   UNL     1      -0.350  -9.810   1.862  0.00  0.00    +0.028 C 
BRANCH  19  21
ATOM     21  C   UNL     1      -2.513 -10.686   2.755  0.00  0.00    +0.060 C 
BRANCH  21  22
ATOM     22  C   UNL     1      -4.004 -10.725   2.539  0.00  0.00    -0.010 A 
ATOM     23  C   UNL     1      -4.829  -9.887   3.265  0.00  0.00    +0.006 A 
ATOM     24  C   UNL     1      -6.197  -9.922   3.067  0.00  0.00    +0.000 A 
ATOM     25  C   UNL     1      -6.741 -10.796   2.144  0.00  0.00    +0.003 A 
ATOM     26  C   UNL     1      -5.917 -11.635   1.417  0.00  0.00    +0.038 A 
ATOM     27  C   UNL     1      -4.546 -11.597   1.611  0.00  0.00    +0.127 A 
ATOM     28  F   UNL     1      -3.740 -12.413   0.898  0.00  0.00    -0.205 F 
ENDBRANCH  21  22
ENDBRANCH  19  21
ENDBRANCH  17  19
ENDBRANCH   5  15
BRANCH   1  29
ATOM     29  C   UNL     1      -1.552  -2.158  -0.147  0.00  0.00    +0.072 C 
ATOM     30  C   UNL     1      -1.303  -1.771   1.312  0.00  0.00    +0.017 C 
BRANCH  29  31
ATOM     31  C   UNL     1      -1.464  -0.910  -1.028  0.00  0.00    +0.012 C 
BRANCH  31  33
ATOM     32  C   UNL     1       0.052   0.887  -1.874  0.00  0.00    +0.004 C 
ATOM     33  C   UNL     1      -0.036  -0.361  -0.993  0.00  0.00    -0.003 C 
ENDBRANCH  31  33
ENDBRANCH  29  31
ENDBRANCH   1  29
TORSDOF 7
