REMARK  Name = ZINC39252519
REMARK  10 active torsions:
REMARK  status: ('A' for Active; 'I' for Inactive)
REMARK    1  A    between atoms: C_1  and  C_2
REMARK    2  A    between atoms: C_2  and  C_3
REMARK    3  A    between atoms: C_3  and  C_4
REMARK    4  A    between atoms: C_3  and  C_5
REMARK    5  A    between atoms: C_3  and  C_6
REMARK    6  A    between atoms: C_10  and  N_13
REMARK    7  A    between atoms: C_14  and  C_16
REMARK    8  A    between atoms: N_21  and  C_23
REMARK    9  A    between atoms: C_23  and  C_24
REMARK   10  A    between atoms: C_24  and  C_25
REMARK                            x       y       z     vdW  Elec       q    Type
REMARK                         _______ _______ _______ _____ _____    ______ ____
ROOT
ATOM      1  C   UNL     1      -2.446  -6.210   4.956  0.00  0.00    +0.101 C 
ATOM      2  C   UNL     1      -2.517  -5.221   6.143  0.00  0.00    +0.110 C 
ATOM      3  C   UNL     1      -2.813  -6.098   7.340  0.00  0.00    +0.216 C 
ATOM      4  O   UNL     1      -3.220  -5.699   8.410  0.00  0.00    -0.276 OA
ATOM      5  N   UNL     1      -2.561  -7.385   7.043  0.00  0.00    -0.300 N 
ATOM      6  C   UNL     1      -2.072  -7.529   5.666  0.00  0.00    +0.121 C 
ENDROOT
BRANCH   1   8
ATOM      7  N   UNL     1      -1.487  -4.641   3.302  0.00  0.00    -0.290 N 
ATOM      8  C   UNL     1      -1.375  -5.801   3.978  0.00  0.00    +0.220 C 
ATOM      9  O   UNL     1      -0.413  -6.517   3.798  0.00  0.00    -0.275 OA
ATOM     10  H   UNL     1      -2.257  -4.068   3.445  0.00  0.00    +0.151 HD
BRANCH   7  14
ATOM     11  C   UNL     1       0.763  -2.041   1.233  0.00  0.00    +0.135 C 
ATOM     12  N   UNL     1       1.393  -2.578   2.467  0.00  0.00    -0.241 NA
ATOM     13  N   UNL     1       0.759  -3.732   3.053  0.00  0.00    -0.227 NA
ATOM     14  C   UNL     1      -0.447  -4.244   2.350  0.00  0.00    +0.216 C 
ATOM     15  S   UNL     1      -0.942  -2.735   1.403  0.00  0.00    -0.101 S 
ATOM     16  H   UNL     1       1.522  -1.849   3.154  0.00  0.00    +0.142 HD
ATOM     17  H   UNL     1       0.570  -3.583   4.033  0.00  0.00    +0.143 HD
BRANCH  11  18
ATOM     18  C   UNL     1       0.742  -0.511   1.242  0.00  0.00    -0.009 C 
ATOM     19  C   UNL     1       2.178   0.019   1.231  0.00  0.00    +0.013 C 
ATOM     20  C   UNL     1       0.026  -0.018   2.500  0.00  0.00    +0.013 C 
BRANCH  18  22
ATOM     21  C   UNL     1      -0.019   1.526   0.010  0.00  0.00    +0.004 C 
ATOM     22  C   UNL     1       0.002  -0.004   0.002  0.00  0.00    +0.005 C 
ENDBRANCH  18  22
ENDBRANCH  11  18
ENDBRANCH   7  14
ENDBRANCH   1   8
BRANCH   5  23
ATOM     23  C   UNL     1      -2.749  -8.500   7.974  0.00  0.00    +0.112 C 
BRANCH  23  24
ATOM     24  C   UNL     1      -4.171  -9.048   7.833  0.00  0.00    +0.056 C 
BRANCH  24  25
ATOM     25  C   UNL     1      -4.365 -10.195   8.791  0.00  0.00    -0.021 A 
ATOM     26  C   UNL     1      -4.751 -10.097  10.200  0.00  0.00    +0.006 A 
ATOM     27  C   UNL     1      -5.042  -9.031  11.054  0.00  0.00    +0.048 A 
ATOM     28  C   UNL     1      -5.383  -9.283  12.366  0.00  0.00    +0.124 A 
ATOM     29  C   UNL     1      -5.437 -10.588  12.839  0.00  0.00    +0.040 A 
ATOM     30  C   UNL     1      -5.152 -11.649  12.008  0.00  0.00    +0.029 A 
ATOM     31  C   UNL     1      -4.806 -11.418  10.681  0.00  0.00    +0.047 A 
ATOM     32  N   UNL     1      -4.476 -12.247   9.631  0.00  0.00    -0.360 N 
ATOM     33  C   UNL     1      -4.222 -11.501   8.512  0.00  0.00    +0.087 A 
ATOM     34  F   UNL     1      -5.665  -8.254  13.196  0.00  0.00    -0.205 F 
ATOM     35  H   UNL     1      -4.433 -13.215   9.676  0.00  0.00    +0.165 HD
ENDBRANCH  24  25
ENDBRANCH  23  24
ENDBRANCH   5  23
TORSDOF 7
