REMARK  Name = ZINC04994993
REMARK  6 active torsions:
REMARK  status: ('A' for Active; 'I' for Inactive)
REMARK    1  A    between atoms: C_1  and  N_2
REMARK    2  A    between atoms: N_2  and  C_3
REMARK    3  A    between atoms: N_2  and  C_4
REMARK    4  A    between atoms: C_7  and  C_11
REMARK    5  A    between atoms: C_12  and  C_13
REMARK    6  A    between atoms: C_12  and  C_15
REMARK                            x       y       z     vdW  Elec       q    Type
REMARK                         _______ _______ _______ _____ _____    ______ ____
ROOT
ATOM      1  C   UNL     1      -2.711   5.795  -0.627  0.00  0.00    +0.029 C 
ATOM      2  C   UNL     1      -2.621   5.861   0.734  0.00  0.00    +0.084 C 
ENDROOT
BRANCH   2   3
ATOM      3  C   UNL     1      -1.431   6.459   1.366  0.00  0.00    +0.120 A 
ATOM      4  N   UNL     1      -1.351   7.526   2.135  0.00  0.00    -0.238 NA
ATOM      5  C   UNL     1      -0.185   7.961   2.649  0.00  0.00    +0.079 A 
ATOM      6  C   UNL     1       0.038   9.084   3.482  0.00  0.00    +0.029 A 
ATOM      7  C   UNL     1       1.288   9.389   3.920  0.00  0.00    +0.002 A 
ATOM      8  C   UNL     1       2.391   8.621   3.571  0.00  0.00    +0.001 A 
ATOM      9  C   UNL     1       2.217   7.516   2.758  0.00  0.00    +0.017 A 
ATOM     10  C   UNL     1       0.958   7.199   2.311  0.00  0.00    +0.040 A 
ATOM     11  S   UNL     1       0.271   5.917   1.291  0.00  0.00    -0.067 S 
ENDBRANCH   2   3
BRANCH   1  15
ATOM     12  C   UNL     1       0.211   7.696  -3.031  0.00  0.00    +0.043 A 
ATOM     13  C   UNL     1      -0.133   8.235  -1.793  0.00  0.00    +0.025 A 
ATOM     14  C   UNL     1      -1.074   7.624  -1.015  0.00  0.00    +0.010 A 
ATOM     15  C   UNL     1      -1.700   6.451  -1.461  0.00  0.00    -0.023 A 
ATOM     16  C   UNL     1      -1.358   5.911  -2.708  0.00  0.00    +0.025 A 
ATOM     17  C   UNL     1      -0.404   6.530  -3.483  0.00  0.00    +0.039 A 
ATOM     18 BR   UNL     1       0.067   5.804  -5.165  0.00  0.00    -0.048 Br
BRANCH  12  20
ATOM     19  C   UNL     1       0.762   9.695  -4.154  0.00  0.00    +0.129 C 
ATOM     20  N   UNL     1       1.171   8.325  -3.818  0.00  0.00    -0.335 N 
ATOM     21  C   UNL     1       2.483   8.314  -3.157  0.00  0.00    +0.129 C 
ENDBRANCH  12  20
ENDBRANCH   1  15
BRANCH   2  22
ATOM     22  C   UNL     1      -3.682   5.349   1.547  0.00  0.00    +0.102 C 
ATOM     23  N   UNL     1      -4.524   4.942   2.192  0.00  0.00    -0.191 NA
ENDBRANCH   2  22
TORSDOF 4
