REMARK  Name = ZINC40149302
REMARK  10 active torsions:
REMARK  status: ('A' for Active; 'I' for Inactive)
REMARK    1  A    between atoms: C_1  and  C_2
REMARK    2  A    between atoms: C_2  and  N_3
REMARK    3  A    between atoms: N_6  and  C_9
REMARK    4  A    between atoms: C_9  and  C_10
REMARK    5  A    between atoms: C_10  and  C_12
REMARK    6  A    between atoms: C_10  and  C_13
REMARK    7  A    between atoms: C_13  and  N_14
REMARK    8  A    between atoms: C_22  and  C_24
REMARK    9  A    between atoms: C_24  and  N_25
REMARK   10  A    between atoms: C_28  and  C_31
REMARK                            x       y       z     vdW  Elec       q    Type
REMARK                         _______ _______ _______ _____ _____    ______ ____
ROOT
ATOM      1  N   UNL     1       4.418  -6.069  -4.623  0.00  0.00    -0.328 N 
ATOM      2  C   UNL     1       5.228  -6.861  -5.416  0.00  0.00    +0.131 A 
ATOM      3  C   UNL     1       5.347  -8.255  -5.160  0.00  0.00    +0.051 A 
ATOM      4  C   UNL     1       4.696  -9.051  -4.107  0.00  0.00    -0.025 A 
ATOM      5  C   UNL     1       4.976 -10.364  -4.078  0.00  0.00    -0.004 A 
ATOM      6  S   UNL     1       6.103 -10.627  -5.429  0.00  0.00    -0.073 S 
ATOM      7  C   UNL     1       6.197  -8.963  -6.029  0.00  0.00    +0.114 A 
ATOM      8  N   UNL     1       6.836  -8.357  -7.013  0.00  0.00    -0.227 NA
ATOM      9  C   UNL     1       6.687  -7.061  -7.202  0.00  0.00    +0.116 A 
ATOM     10  N   UNL     1       5.901  -6.335  -6.427  0.00  0.00    -0.219 NA
ATOM     11  C   UNL     1       4.261 -11.074  -2.960  0.00  0.00    +0.043 C 
ATOM     12  C   UNL     1       3.813  -9.944  -2.007  0.00  0.00    +0.010 C 
ATOM     13  C   UNL     1       3.719  -8.743  -2.969  0.00  0.00    +0.037 C 
ATOM     14  H   UNL     1       3.928  -6.462  -3.884  0.00  0.00    +0.147 HD
ENDROOT
BRANCH   1  15
ATOM     15  C   UNL     1       4.299  -4.635  -4.900  0.00  0.00    +0.104 C 
BRANCH  15  16
ATOM     16  C   UNL     1       3.349  -3.997  -3.884  0.00  0.00    -0.014 C 
ATOM     17  C   UNL     1       1.941  -4.564  -4.076  0.00  0.00    +0.007 C 
BRANCH  16  18
ATOM     18  C   UNL     1       3.322  -2.481  -4.094  0.00  0.00    -0.074 C 
BRANCH  18  22
ATOM     19  N   UNL     1       2.130   0.035  -0.936  0.00  0.00    -0.306 NA
ATOM     20  C   UNL     1       2.311  -1.395  -0.646  0.00  0.00    +0.066 C 
ATOM     21  C   UNL     1       3.168  -2.030  -1.744  0.00  0.00    -0.063 C 
ATOM     22  N   UNL     1       2.507  -1.856  -3.044  0.00  0.00    +0.382 N 
ATOM     23  C   UNL     1       2.355  -0.423  -3.330  0.00  0.00    -0.063 C 
ATOM     24  C   UNL     1       1.491   0.225  -2.246  0.00  0.00    +0.066 C 
ATOM     25  H   UNL     1       1.598  -2.292  -3.019  0.00  0.00    -0.082 HD
BRANCH  19  27
ATOM     26  C   UNL     1       2.170   0.690   1.423  0.00  0.00    +0.020 C 
ATOM     27  C   UNL     1       1.358   0.693   0.127  0.00  0.00    +0.081 C 
ENDBRANCH  19  27
ENDBRANCH  18  22
ENDBRANCH  16  18
ENDBRANCH  15  16
ENDBRANCH   1  15
BRANCH   9  28
ATOM     28  C   UNL     1       7.428  -6.392  -8.331  0.00  0.00    -0.001 C 
BRANCH  28  29
ATOM     29  N   UNL     1       6.600  -6.420  -9.544  0.00  0.00    +0.384 N 
ATOM     30  C   UNL     1       5.392  -5.614  -9.330  0.00  0.00    -0.078 C 
ATOM     31  C   UNL     1       4.488  -5.706 -10.561  0.00  0.00    -0.016 C 
ATOM     32  C   UNL     1       5.245  -5.180 -11.784  0.00  0.00    -0.018 C 
ATOM     33  C   UNL     1       6.540  -5.979 -11.954  0.00  0.00    -0.016 C 
ATOM     34  C   UNL     1       7.368  -5.877 -10.671  0.00  0.00    -0.078 C 
ATOM     35  C   UNL     1       4.375  -5.342 -13.032  0.00  0.00    +0.007 C 
ATOM     36  H   UNL     1       6.335  -7.373  -9.747  0.00  0.00    -0.081 HD
ENDBRANCH  28  29
ENDBRANCH   9  28
TORSDOF 7
