REMARK  Name = ZINC00532478
REMARK  4 active torsions:
REMARK  status: ('A' for Active; 'I' for Inactive)
REMARK    1  A    between atoms: C_1  and  O_2
REMARK    2  A    between atoms: O_2  and  C_3
REMARK    3  A    between atoms: C_8  and  C_9
REMARK    4  A    between atoms: C_12  and  C_20
REMARK                            x       y       z     vdW  Elec       q    Type
REMARK                         _______ _______ _______ _____ _____    ______ ____
ROOT
ATOM      1  C   UNL     1       0.052  -2.828   0.005  0.00  0.00    +0.146 C 
ATOM      2  C   UNL     1      -1.028  -3.737   0.606  0.00  0.00    +0.059 C 
ATOM      3  C   UNL     1      -1.477  -4.766  -0.438  0.00  0.00    +0.107 C 
ATOM      4  N   UNL     1      -0.322  -5.614  -0.792  0.00  0.00    -0.307 N 
ATOM      5  C   UNL     1       0.884  -4.955  -0.991  0.00  0.00    +0.215 A 
ATOM      6  N   UNL     1       1.073  -3.661  -0.631  0.00  0.00    -0.226 N 
ATOM      7  N   UNL     1       2.383  -3.335  -0.984  0.00  0.00    -0.156 NA
ATOM      8  C   UNL     1       2.907  -4.407  -1.522  0.00  0.00    +0.247 A 
ATOM      9  N   UNL     1       1.995  -5.392  -1.521  0.00  0.00    -0.202 NA
ATOM     10  H   UNL     1      -0.400  -6.577  -0.879  0.00  0.00    +0.149 HD
ENDROOT
BRANCH   3  11
ATOM     11  C   UNL     1      -2.579  -5.620   0.136  0.00  0.00    -0.009 A 
ATOM     12  C   UNL     1      -2.277  -6.834   0.725  0.00  0.00    +0.007 A 
ATOM     13  C   UNL     1      -3.287  -7.617   1.251  0.00  0.00    +0.000 A 
ATOM     14  C   UNL     1      -4.599  -7.188   1.188  0.00  0.00    +0.001 A 
ATOM     15  C   UNL     1      -4.902  -5.975   0.599  0.00  0.00    +0.020 A 
ATOM     16  C   UNL     1      -3.891  -5.187   0.077  0.00  0.00    +0.046 A 
ATOM     17 CL   UNL     1      -4.270  -3.661  -0.657  0.00  0.00    -0.083 Cl
ENDBRANCH   3  11
BRANCH   1  23
ATOM     18  C   UNL     1       0.626  -0.618   1.042  0.00  0.00    +0.125 A 
ATOM     19  C   UNL     1       1.202   0.139   2.051  0.00  0.00    +0.046 A 
ATOM     20  C   UNL     1       1.835  -0.488   3.107  0.00  0.00    +0.004 A 
ATOM     21  C   UNL     1       1.895  -1.869   3.158  0.00  0.00    +0.001 A 
ATOM     22  C   UNL     1       1.321  -2.625   2.153  0.00  0.00    +0.009 A 
ATOM     23  C   UNL     1       0.682  -2.003   1.097  0.00  0.00    +0.019 A 
BRANCH  18  25
ATOM     24  C   UNL     1      -0.017   1.425   0.010  0.00  0.00    +0.277 C 
ATOM     25  O   UNL     1       0.002  -0.004   0.002  0.00  0.00    -0.495 OA
ENDBRANCH  18  25
ENDBRANCH   1  23
TORSDOF 3
