REMARK  Name = ZINC01471708
REMARK  5 active torsions:
REMARK  status: ('A' for Active; 'I' for Inactive)
REMARK    1  A    between atoms: C_4  and  C_7
REMARK    2  A    between atoms: C_7  and  N_8
REMARK    3  A    between atoms: C_15  and  N_31
REMARK    4  A    between atoms: C_16  and  C_20
REMARK    5  A    between atoms: N_22  and  C_23
REMARK                            x       y       z     vdW  Elec       q    Type
REMARK                         _______ _______ _______ _____ _____    ______ ____
ROOT
ATOM      1  N   UNL     1      -8.830  -6.061  -0.415  0.00  0.00    -0.294 NA
ATOM      2  C   UNL     1      -9.639  -5.099  -1.181  0.00  0.00    +0.091 C 
ATOM      3  C   UNL     1      -9.372  -3.697  -0.633  0.00  0.00    +0.071 C 
ATOM      4  C   UNL     1      -7.887  -3.447  -0.560  0.00  0.00    +0.048 A 
ATOM      5  C   UNL     1      -6.973  -4.486  -0.613  0.00  0.00    -0.011 A 
ATOM      6  C   UNL     1      -5.621  -4.222  -0.537  0.00  0.00    +0.019 A 
ATOM      7  C   UNL     1      -5.179  -2.884  -0.409  0.00  0.00    +0.029 A 
ATOM      8  C   UNL     1      -3.818  -2.377  -0.320  0.00  0.00    +0.053 A 
ATOM      9  C   UNL     1      -3.633  -1.018  -0.196  0.00  0.00    +0.097 A 
ATOM     10  S   UNL     1      -5.294  -0.373  -0.208  0.00  0.00    -0.062 S 
ATOM     11  C   UNL     1      -6.191  -1.897  -0.368  0.00  0.00    +0.111 A 
ATOM     12  N   UNL     1      -7.467  -2.198  -0.441  0.00  0.00    -0.244 NA
ATOM     13  C   UNL     1      -7.412  -5.920  -0.759  0.00  0.00    +0.121 C 
ENDROOT
BRANCH   9  14
ATOM     14  C   UNL     1      -2.414  -0.303  -0.091  0.00  0.00    +0.257 C 
ATOM     15  O   UNL     1      -1.354  -0.903  -0.099  0.00  0.00    -0.269 OA
ATOM     16  N   UNL     1      -2.428   1.040   0.019  0.00  0.00    -0.280 N 
ATOM     17  H   UNL     1      -3.384   1.574   0.118  0.00  0.00    +0.155 HD
BRANCH  16  18
ATOM     18  C   UNL     1      -1.225   1.755   0.006  0.00  0.00    +0.052 A 
ATOM     19  C   UNL     1      -0.102   1.218  -0.610  0.00  0.00    +0.026 A 
ATOM     20  C   UNL     1       1.082   1.929  -0.626  0.00  0.00    +0.022 A 
ATOM     21  C   UNL     1       1.153   3.173  -0.025  0.00  0.00    +0.042 A 
ATOM     22  C   UNL     1       0.038   3.709   0.596  0.00  0.00    +0.041 A 
ATOM     23  C   UNL     1      -1.150   3.002   0.616  0.00  0.00    +0.064 A 
ATOM     24 CL   UNL     1      -2.548   3.675   1.393  0.00  0.00    -0.082 Cl
ATOM     25 CL   UNL     1       2.643   4.062  -0.047  0.00  0.00    -0.083 Cl
ENDBRANCH  16  18
ENDBRANCH   9  14
BRANCH   8  26
ATOM     26  N   UNL     1      -2.733  -3.243  -0.356  0.00  0.00    -0.356 N 
ATOM     27  H   UNL     1      -1.710  -2.845  -0.287  0.00  0.00    +0.142 HD
ATOM     28  H   UNL     1      -2.897  -4.326  -0.452  0.00  0.00    +0.142 HD
ENDBRANCH   8  26
BRANCH   1  29
ATOM     29  C   UNL     1      -9.293  -7.437  -0.643  0.00  0.00    +0.120 C 
BRANCH  29  33
ATOM     30  C   UNL     1      -7.368 -10.064   2.122  0.00  0.00    +0.000 A 
ATOM     31  C   UNL     1      -8.570  -9.468   2.456  0.00  0.00    +0.000 A 
ATOM     32  C   UNL     1      -9.193  -8.618   1.562  0.00  0.00    +0.005 A 
ATOM     33  C   UNL     1      -8.614  -8.363   0.333  0.00  0.00    -0.033 A 
ATOM     34  C   UNL     1      -7.414  -8.963  -0.004  0.00  0.00    +0.005 A 
ATOM     35  C   UNL     1      -6.789  -9.809   0.893  0.00  0.00    +0.000 A 
ENDBRANCH  29  33
ENDBRANCH   1  29
TORSDOF 5
