REMARK  Name = ZINC60106697
REMARK  6 active torsions:
REMARK  status: ('A' for Active; 'I' for Inactive)
REMARK    1  A    between atoms: C_3  and  S_24
REMARK    2  A    between atoms: C_6  and  C_7
REMARK    3  A    between atoms: N_9  and  N_10
REMARK    4  A    between atoms: C_11  and  C_13
REMARK    5  A    between atoms: C_18  and  O_19
REMARK    6  A    between atoms: S_24  and  N_27
REMARK                            x       y       z     vdW  Elec       q    Type
REMARK                         _______ _______ _______ _____ _____    ______ ____
ROOT
ATOM      1  C   UNL     1      -1.266  -0.764   0.011  0.00  0.00    +0.260 C 
ATOM      2  O   UNL     1      -2.329  -0.173   0.024  0.00  0.00    -0.269 OA
ATOM      3  N   UNL     1      -1.244  -2.111   0.003  0.00  0.00    -0.230 N 
ATOM      4  H   UNL     1      -0.397  -2.583  -0.008  0.00  0.00    +0.173 HD
ENDROOT
BRANCH   1  10
ATOM      5  C   UNL     1      -0.017   1.391   0.010  0.00  0.00    +0.015 A 
ATOM      6  C   UNL     1       1.170   2.095   0.002  0.00  0.00    +0.029 A 
ATOM      7  C   UNL     1       2.378   1.419  -0.013  0.00  0.00    +0.106 A 
ATOM      8  C   UNL     1       2.403   0.036  -0.021  0.00  0.00    +0.029 A 
ATOM      9  C   UNL     1       1.224  -0.679  -0.014  0.00  0.00    +0.015 A 
ATOM     10  C   UNL     1       0.002  -0.004   0.002  0.00  0.00    +0.038 A 
BRANCH   7  11
ATOM     11  S   UNL     1       3.889   2.325  -0.023  0.00  0.00    +0.061 S 
ATOM     12  O   UNL     1       4.872   1.468  -0.587  0.00  0.00    -0.153 OA
ATOM     13  O   UNL     1       3.592   3.604  -0.564  0.00  0.00    -0.153 OA
BRANCH  11  14
ATOM     14  N   UNL     1       4.324   2.568   1.557  0.00  0.00    -0.177 NA
ATOM     15  C   UNL     1       3.930   3.715   2.387  0.00  0.00    +0.109 C 
ATOM     16  C   UNL     1       4.588   3.527   3.770  0.00  0.00    +0.018 C 
ATOM     17  C   UNL     1       5.775   2.575   3.464  0.00  0.00    +0.018 C 
ATOM     18  C   UNL     1       5.166   1.666   2.365  0.00  0.00    +0.109 C 
ENDBRANCH  11  14
ENDBRANCH   7  11
ENDBRANCH   1  10
BRANCH   3  19
ATOM     19  N   UNL     1      -2.446  -2.831   0.011  0.00  0.00    -0.230 N 
ATOM     20  C   UNL     1      -2.425  -4.179   0.004  0.00  0.00    +0.264 C 
ATOM     21  O   UNL     1      -1.362  -4.770  -0.010  0.00  0.00    -0.269 OA
ATOM     22  H   UNL     1      -3.294  -2.360   0.022  0.00  0.00    +0.173 HD
BRANCH  20  23
ATOM     23  C   UNL     1      -3.690  -4.937   0.012  0.00  0.00    +0.080 A 
ATOM     24  C   UNL     1      -4.912  -4.266   0.022  0.00  0.00    +0.020 A 
ATOM     25  C   UNL     1      -6.103  -4.974   0.028  0.00  0.00    -0.043 A 
ATOM     26  C   UNL     1      -6.084  -6.354   0.020  0.00  0.00    -0.041 A 
ATOM     27  C   UNL     1      -4.873  -7.032   0.015  0.00  0.00    +0.050 A 
ATOM     28  C   UNL     1      -3.676  -6.338   0.005  0.00  0.00    +0.129 A 
ATOM     29  C   UNL     1      -7.345  -7.180   0.010  0.00  0.00    +0.035 C 
ATOM     30  C   UNL     1      -8.542  -6.339   0.448  0.00  0.00    +0.005 C 
ATOM     31  C   UNL     1      -8.561  -5.053  -0.386  0.00  0.00    +0.005 C 
ATOM     32  C   UNL     1      -7.384  -4.181   0.046  0.00  0.00    +0.035 C 
BRANCH  28  33
ATOM     33  O   UNL     1      -2.497  -7.010  -0.007  0.00  0.00    -0.506 OA
ATOM     34  H   UNL     1      -2.149  -7.209   0.873  0.00  0.00    +0.292 HD
ENDBRANCH  28  33
ENDBRANCH  20  23
ENDBRANCH   3  19
TORSDOF 6
