REMARK  Name = ZINC12630742
REMARK  9 active torsions:
REMARK  status: ('A' for Active; 'I' for Inactive)
REMARK    1  A    between atoms: C_1  and  C_2
REMARK    2  A    between atoms: C_4  and  C_30
REMARK    3  A    between atoms: C_5  and  S_9
REMARK    4  A    between atoms: C_6  and  C_8
REMARK    5  A    between atoms: S_9  and  N_12
REMARK    6  A    between atoms: N_12  and  C_13
REMARK    7  A    between atoms: C_18  and  N_19
REMARK    8  A    between atoms: N_19  and  S_20
REMARK    9  A    between atoms: S_20  and  C_23
REMARK                            x       y       z     vdW  Elec       q    Type
REMARK                         _______ _______ _______ _____ _____    ______ ____
ROOT
ATOM      1  C   UNL     1       5.847  -1.062  -2.481  0.00  0.00    +0.070 A 
ATOM      2  C   UNL     1       5.853  -0.026  -1.559  0.00  0.00    +0.026 A 
ATOM      3  C   UNL     1       6.217   1.248  -1.953  0.00  0.00    +0.002 A 
ATOM      4  C   UNL     1       6.575   1.494  -3.266  0.00  0.00    +0.002 A 
ATOM      5  C   UNL     1       6.571   0.468  -4.192  0.00  0.00    +0.026 A 
ATOM      6  C   UNL     1       6.213  -0.815  -3.804  0.00  0.00    +0.070 A 
ENDROOT
BRANCH   1   7
ATOM      7  N   UNL     1       5.479  -2.353  -2.084  0.00  0.00    -0.214 N 
ATOM      8  H   UNL     1       4.569  -2.661  -2.218  0.00  0.00    +0.174 HD
BRANCH   7   9
ATOM      9  S   UNL     1       6.597  -3.355  -1.386  0.00  0.00    +0.073 S 
ATOM     10  O   UNL     1       7.746  -3.327  -2.222  0.00  0.00    -0.150 OA
ATOM     11  O   UNL     1       5.918  -4.561  -1.065  0.00  0.00    -0.150 OA
BRANCH   9  16
ATOM     12  C   UNL     1       8.220  -0.846   3.856  0.00  0.00    +0.044 C 
ATOM     13  C   UNL     1       7.812  -1.469   2.546  0.00  0.00    -0.050 A 
ATOM     14  C   UNL     1       6.720  -2.315   2.493  0.00  0.00    +0.008 A 
ATOM     15  C   UNL     1       6.349  -2.891   1.293  0.00  0.00    -0.023 A 
ATOM     16  C   UNL     1       7.070  -2.621   0.145  0.00  0.00    +0.114 A 
ATOM     17  C   UNL     1       8.162  -1.775   0.197  0.00  0.00    -0.023 A 
ATOM     18  C   UNL     1       8.533  -1.199   1.398  0.00  0.00    +0.008 A 
ATOM     19  C   UNL     1       8.949  -1.481  -1.054  0.00  0.00    +0.046 C 
ATOM     20  C   UNL     1       5.158  -3.813   1.236  0.00  0.00    +0.046 C 
ENDBRANCH   9  16
ENDBRANCH   7   9
ENDBRANCH   1   7
BRANCH   6  21
ATOM     21  N   UNL     1       6.214  -1.857  -4.739  0.00  0.00    -0.214 N 
ATOM     22  H   UNL     1       5.588  -2.593  -4.645  0.00  0.00    +0.174 HD
BRANCH  21  23
ATOM     23  S   UNL     1       7.282  -1.834  -6.003  0.00  0.00    +0.072 S 
ATOM     24  O   UNL     1       7.140  -3.077  -6.678  0.00  0.00    -0.150 OA
ATOM     25  O   UNL     1       7.108  -0.586  -6.660  0.00  0.00    -0.150 OA
BRANCH  23  26
ATOM     26  C   UNL     1       8.904  -1.818  -5.315  0.00  0.00    +0.109 A 
ATOM     27  C   UNL     1       9.527  -0.614  -5.042  0.00  0.00    +0.031 A 
ATOM     28  C   UNL     1      10.797  -0.601  -4.497  0.00  0.00    +0.040 A 
ATOM     29  C   UNL     1      11.450  -1.793  -4.235  0.00  0.00    +0.124 A 
ATOM     30  C   UNL     1      10.828  -2.998  -4.514  0.00  0.00    +0.040 A 
ATOM     31  C   UNL     1       9.556  -3.009  -5.054  0.00  0.00    +0.031 A 
ATOM     32  F   UNL     1      12.694  -1.781  -3.707  0.00  0.00    -0.205 F 
ENDBRANCH  23  26
ENDBRANCH  21  23
ENDBRANCH   6  21
TORSDOF 6
