REMARK  Name = ZINC38547495
REMARK  5 active torsions:
REMARK  status: ('A' for Active; 'I' for Inactive)
REMARK    1  A    between atoms: C_4  and  C_7
REMARK    2  A    between atoms: N_9  and  C_10
REMARK    3  A    between atoms: C_11  and  C_19
REMARK    4  A    between atoms: C_19  and  C_21
REMARK    5  A    between atoms: C_19  and  N_26
REMARK                            x       y       z     vdW  Elec       q    Type
REMARK                         _______ _______ _______ _____ _____    ______ ____
ROOT
ATOM      1  C   UNL     1       4.630  -2.699  -0.534  0.00  0.00    +0.078 A 
ATOM      2  C   UNL     1       5.040  -3.950  -0.194  0.00  0.00    +0.010 A 
ATOM      3  C   UNL     1       6.403  -4.246  -0.154  0.00  0.00    -0.030 A 
ATOM      4  C   UNL     1       7.256  -3.234  -0.466  0.00  0.00    -0.005 A 
ATOM      5  S   UNL     1       6.184  -1.869  -0.826  0.00  0.00    -0.078 S 
ATOM      6  C   UNL     1       8.750  -3.279  -0.499  0.00  0.00    +0.043 C 
ATOM      7  C   UNL     1       9.211  -4.549   0.231  0.00  0.00    +0.005 C 
ATOM      8  C   UNL     1       8.388  -5.735  -0.279  0.00  0.00    +0.005 C 
ATOM      9  C   UNL     1       6.946  -5.623   0.216  0.00  0.00    +0.036 C 
ENDROOT
BRANCH   1  12
ATOM     10  C   UNL     1       3.132  -0.893  -0.912  0.00  0.00    +0.249 C 
ATOM     11  O   UNL     1       4.084  -0.154  -1.075  0.00  0.00    -0.270 OA
ATOM     12  N   UNL     1       3.331  -2.196  -0.635  0.00  0.00    -0.276 N 
ATOM     13  H   UNL     1       2.571  -2.786  -0.505  0.00  0.00    +0.156 HD
BRANCH  10  17
ATOM     14  C   UNL     1      -0.819   0.636  -1.220  0.00  0.00    +0.000 A 
ATOM     15  C   UNL     1       0.263   1.479  -1.405  0.00  0.00    +0.001 A 
ATOM     16  C   UNL     1       1.548   0.989  -1.306  0.00  0.00    +0.013 A 
ATOM     17  C   UNL     1       1.757  -0.361  -1.019  0.00  0.00    +0.037 A 
ATOM     18  C   UNL     1       0.662  -1.206  -0.834  0.00  0.00    +0.013 A 
ATOM     19  C   UNL     1      -0.618  -0.703  -0.935  0.00  0.00    +0.001 A 
ENDBRANCH  10  17
ENDBRANCH   1  12
BRANCH   2  20
ATOM     20  C   UNL     1       4.026  -5.013   0.139  0.00  0.00    +0.141 C 
BRANCH  20  21
ATOM     21  N   UNL     1       3.017  -4.459   1.045  0.00  0.00    -0.319 N 
ATOM     22  C   UNL     1       2.221  -5.310   1.803  0.00  0.00    +0.097 A 
ATOM     23  C   UNL     1       2.392  -6.687   1.702  0.00  0.00    +0.041 A 
ATOM     24  C   UNL     1       1.593  -7.521   2.462  0.00  0.00    +0.005 A 
ATOM     25  C   UNL     1       0.646  -6.949   3.301  0.00  0.00    +0.018 A 
ATOM     26  C   UNL     1       0.531  -5.575   3.352  0.00  0.00    +0.084 A 
ATOM     27  N   UNL     1       1.310  -4.802   2.619  0.00  0.00    -0.350 N 
ATOM     28  H   UNL     1       2.904  -3.498   1.115  0.00  0.00    +0.148 HD
ATOM     29  H   UNL     1       1.211  -3.839   2.677  0.00  0.00    +0.166 HD
ENDBRANCH  20  21
BRANCH  20  30
ATOM     30  C   UNL     1       3.360  -5.487  -1.127  0.00  0.00    +0.014 A 
ATOM     31  C   UNL     1       3.606  -6.604  -1.855  0.00  0.00    +0.013 A 
ATOM     32  C   UNL     1       2.861  -6.837  -2.995  0.00  0.00    +0.008 A 
ATOM     33  C   UNL     1       1.907  -5.943  -3.353  0.00  0.00    +0.045 A 
ATOM     34  S   UNL     1       2.037  -4.726  -2.053  0.00  0.00    -0.099 S 
ENDBRANCH  20  30
ENDBRANCH   2  20
TORSDOF 5
