REMARK  Name = ZINC02294695
REMARK  8 active torsions:
REMARK  status: ('A' for Active; 'I' for Inactive)
REMARK    1  A    between atoms: C_4  and  C_7
REMARK    2  A    between atoms: C_7  and  N_8
REMARK    3  A    between atoms: N_8  and  C_9
REMARK    4  A    between atoms: N_8  and  C_32
REMARK    5  A    between atoms: C_9  and  C_10
REMARK    6  A    between atoms: C_10  and  N_11
REMARK    7  A    between atoms: C_15  and  C_26
REMARK    8  A    between atoms: C_32  and  C_33
REMARK                            x       y       z     vdW  Elec       q    Type
REMARK                         _______ _______ _______ _____ _____    ______ ____
ROOT
ATOM      1  N   UNL     1       1.061  -2.280   2.731  0.00  0.00    -0.339 N 
ATOM      2  C   UNL     1       0.479  -3.353   2.092  0.00  0.00    +0.050 A 
ATOM      3  C   UNL     1       0.523  -3.812   0.779  0.00  0.00    +0.027 A 
ATOM      4  C   UNL     1      -0.178  -4.942   0.425  0.00  0.00    +0.006 A 
ATOM      5  C   UNL     1      -0.933  -5.631   1.367  0.00  0.00    -0.044 A 
ATOM      6  C   UNL     1      -0.993  -5.201   2.659  0.00  0.00    +0.014 A 
ATOM      7  C   UNL     1      -0.286  -4.053   3.047  0.00  0.00    +0.004 A 
ATOM      8  C   UNL     1      -0.146  -3.370   4.274  0.00  0.00    -0.011 A 
ATOM      9  C   UNL     1       0.699  -2.309   4.056  0.00  0.00    +0.089 A 
ATOM     10  C   UNL     1       1.107  -1.425   5.143  0.00  0.00    +0.180 C 
ATOM     11  O   UNL     1       1.144  -0.222   4.991  0.00  0.00    -0.290 OA
ATOM     12  C   UNL     1       1.481  -2.055   6.459  0.00  0.00    +0.081 C 
ATOM     13  C   UNL     1       0.237  -2.196   7.329  0.00  0.00    +0.008 C 
ATOM     14  C   UNL     1      -0.978  -2.441   6.416  0.00  0.00    +0.005 C 
ATOM     15  C   UNL     1      -0.800  -3.712   5.589  0.00  0.00    +0.038 C 
ENDROOT
BRANCH   5  16
ATOM     16  C   UNL     1      -1.694  -6.865   0.955  0.00  0.00    +0.019 C 
ATOM     17  C   UNL     1      -0.716  -7.913   0.421  0.00  0.00    +0.008 C 
ATOM     18  C   UNL     1      -1.488  -9.166   0.003  0.00  0.00    +0.001 C 
ATOM     19  C   UNL     1      -2.495  -8.803  -1.091  0.00  0.00    +0.000 C 
ATOM     20  C   UNL     1      -3.473  -7.756  -0.557  0.00  0.00    +0.001 C 
ATOM     21  C   UNL     1      -2.700  -6.503  -0.139  0.00  0.00    +0.008 C 
ENDBRANCH   5  16
BRANCH   1  22
ATOM     22  C   UNL     1       1.927  -1.279   2.103  0.00  0.00    +0.104 C 
BRANCH  22  23
ATOM     23  C   UNL     1       3.364  -1.801   2.064  0.00  0.00    -0.056 C 
BRANCH  23  24
ATOM     24  N   UNL     1       4.260  -0.734   1.597  0.00  0.00    +0.386 N 
ATOM     25  H   UNL     1       4.087   0.107   2.127  0.00  0.00    -0.081 HD
BRANCH  24  26
ATOM     26  C   UNL     1       4.011  -0.474   0.173  0.00  0.00    -0.042 C 
BRANCH  26  30
ATOM     27  C   UNL     1       0.162   1.319  -0.297  0.00  0.00    +0.000 A 
ATOM     28  C   UNL     1       1.106   1.913   0.520  0.00  0.00    +0.000 A 
ATOM     29  C   UNL     1       2.351   1.332   0.672  0.00  0.00    +0.002 A 
ATOM     30  C   UNL     1       2.652   0.158   0.007  0.00  0.00    -0.064 A 
ATOM     31  C   UNL     1       1.708  -0.435  -0.809  0.00  0.00    +0.002 A 
ATOM     32  C   UNL     1       0.464   0.146  -0.963  0.00  0.00    +0.000 A 
ENDBRANCH  26  30
ENDBRANCH  24  26
BRANCH  24  33
ATOM     33  C   UNL     1       5.656  -1.151   1.781  0.00  0.00    -0.042 C 
BRANCH  33  34
ATOM     34  C   UNL     1       6.573  -0.011   1.418  0.00  0.00    -0.064 A 
ATOM     35  C   UNL     1       7.022   0.126   0.118  0.00  0.00    +0.002 A 
ATOM     36  C   UNL     1       7.864   1.171  -0.216  0.00  0.00    +0.000 A 
ATOM     37  C   UNL     1       8.254   2.079   0.751  0.00  0.00    +0.000 A 
ATOM     38  C   UNL     1       7.804   1.942   2.050  0.00  0.00    +0.000 A 
ATOM     39  C   UNL     1       6.960   0.899   2.383  0.00  0.00    +0.002 A 
ENDBRANCH  33  34
ENDBRANCH  24  33
ENDBRANCH  23  24
ENDBRANCH  22  23
ENDBRANCH   1  22
TORSDOF 8
