REMARK  Name = ZINC20145143
REMARK  9 active torsions:
REMARK  status: ('A' for Active; 'I' for Inactive)
REMARK    1  A    between atoms: C_1  and  C_2
REMARK    2  A    between atoms: C_2  and  C_3
REMARK    3  A    between atoms: C_2  and  C_4
REMARK    4  A    between atoms: C_7  and  C_10
REMARK    5  A    between atoms: C_11  and  C_12
REMARK    6  A    between atoms: N_14  and  C_15
REMARK    7  A    between atoms: C_18  and  C_21
REMARK    8  A    between atoms: C_24  and  C_26
REMARK    9  A    between atoms: C_26  and  O_27
REMARK                            x       y       z     vdW  Elec       q    Type
REMARK                         _______ _______ _______ _____ _____    ______ ____
ROOT
ATOM      1  C   UNL     1      -7.203  -3.282  -0.955  0.00  0.00    +0.241 C 
ATOM      2  O   UNL     1      -7.946  -3.006  -0.031  0.00  0.00    -0.270 OA
ATOM      3  N   UNL     1      -7.642  -4.059  -1.964  0.00  0.00    -0.282 N 
ATOM      4  H   UNL     1      -7.073  -4.224  -2.732  0.00  0.00    +0.155 HD
ENDROOT
BRANCH   3   5
ATOM      5  C   UNL     1      -8.917  -4.628  -1.904  0.00  0.00    +0.034 A 
ATOM      6  C   UNL     1      -9.963  -3.926  -1.317  0.00  0.00    +0.024 A 
ATOM      7  C   UNL     1     -11.221  -4.484  -1.257  0.00  0.00    +0.013 A 
ATOM      8  C   UNL     1     -11.445  -5.757  -1.785  0.00  0.00    +0.017 A 
ATOM      9  C   UNL     1     -10.392  -6.460  -2.374  0.00  0.00    +0.013 A 
ATOM     10  C   UNL     1      -9.137  -5.894  -2.436  0.00  0.00    +0.024 A 
BRANCH   8  11
ATOM     11  C   UNL     1     -12.793  -6.359  -1.722  0.00  0.00    +0.135 A 
ATOM     12  C   UNL     1     -13.142  -7.586  -2.191  0.00  0.00    +0.050 A 
ATOM     13  C   UNL     1     -14.516  -7.748  -1.921  0.00  0.00    +0.047 A 
ATOM     14  C   UNL     1     -14.933  -6.625  -1.307  0.00  0.00    +0.131 A 
ATOM     15  O   UNL     1     -13.888  -5.789  -1.183  0.00  0.00    -0.457 OA
BRANCH  14  16
ATOM     16  C   UNL     1     -16.337  -6.352  -0.832  0.00  0.00    +0.230 C 
BRANCH  16  17
ATOM     17  O   UNL     1     -16.482  -6.809   0.514  0.00  0.00    -0.387 OA
ATOM     18  H   UNL     1     -17.363  -6.665   0.886  0.00  0.00    +0.210 HD
ENDBRANCH  16  17
ENDBRANCH  14  16
ENDBRANCH   8  11
ENDBRANCH   3   5
BRANCH   1  20
ATOM     19  C   UNL     1      -5.393  -1.990   0.040  0.00  0.00    +0.013 C 
ATOM     20  C   UNL     1      -5.832  -2.768  -0.970  0.00  0.00    +0.068 C 
BRANCH  19  24
ATOM     21  C   UNL     1      -1.420  -0.502  -0.003  0.00  0.00    -0.045 A 
ATOM     22  C   UNL     1      -2.262  -0.186   1.049  0.00  0.00    +0.004 A 
ATOM     23  C   UNL     1      -3.555  -0.666   1.070  0.00  0.00    +0.008 A 
ATOM     24  C   UNL     1      -4.014  -1.473   0.025  0.00  0.00    -0.025 A 
ATOM     25  C   UNL     1      -3.157  -1.788  -1.034  0.00  0.00    +0.008 A 
ATOM     26  C   UNL     1      -1.869  -1.296  -1.044  0.00  0.00    +0.004 A 
BRANCH  21  28
ATOM     27  C   UNL     1      -0.037   1.556  -0.003  0.00  0.00    +0.012 C 
ATOM     28  C   UNL     1      -0.009   0.027  -0.018  0.00  0.00    +0.013 C 
ATOM     29  C   UNL     1       0.739  -0.481   1.216  0.00  0.00    +0.012 C 
ENDBRANCH  21  28
ENDBRANCH  19  24
ENDBRANCH   1  20
TORSDOF 7
