REMARK  Name = ZINC02751863
REMARK  9 active torsions:
REMARK  status: ('A' for Active; 'I' for Inactive)
REMARK    1  A    between atoms: C_1  and  C_2
REMARK    2  A    between atoms: C_2  and  C_3
REMARK    3  A    between atoms: C_3  and  C_5
REMARK    4  A    between atoms: C_3  and  O_19
REMARK    5  A    between atoms: N_7  and  N_8
REMARK    6  A    between atoms: N_8  and  C_9
REMARK    7  A    between atoms: C_9  and  N_11
REMARK    8  A    between atoms: C_12  and  C_14
REMARK    9  A    between atoms: O_19  and  C_20
REMARK                            x       y       z     vdW  Elec       q    Type
REMARK                         _______ _______ _______ _____ _____    ______ ____
ROOT
ATOM      1  C   UNL     1       1.227  -2.048   0.237  0.00  0.00    +0.270 C 
ATOM      2  O   UNL     1       0.197  -2.682   0.332  0.00  0.00    -0.270 OA
ATOM      3  N   UNL     1       1.201  -0.704   0.328  0.00  0.00    -0.232 N 
ATOM      4  H   UNL     1       2.025  -0.197   0.252  0.00  0.00    +0.173 HD
ENDROOT
BRANCH   3   5
ATOM      5  N   UNL     1      -0.015  -0.038   0.530  0.00  0.00    -0.245 N 
ATOM      6  H   UNL     1      -0.838  -0.544   0.606  0.00  0.00    +0.172 HD
BRANCH   5   7
ATOM      7  C   UNL     1      -0.040   1.307   0.621  0.00  0.00    +0.153 C 
ATOM      8  S   UNL     1      -1.527   2.121   0.862  0.00  0.00    -0.017 S 
BRANCH   7   9
ATOM      9  N   UNL     1       1.105   2.011   0.516  0.00  0.00    -0.260 N 
ATOM     10  C   UNL     1       1.079   3.355   0.606  0.00  0.00    +0.285 C 
ATOM     11  O   UNL     1       0.023   3.933   0.782  0.00  0.00    -0.266 OA
ATOM     12  H   UNL     1       1.946   1.550   0.376  0.00  0.00    +0.157 HD
BRANCH  10  13
ATOM     13  C   UNL     1       2.324   4.121   0.492  0.00  0.00    +0.189 A 
ATOM     14  C   UNL     1       2.440   5.480   0.565  0.00  0.00    +0.054 A 
ATOM     15  C   UNL     1       3.802   5.778   0.406  0.00  0.00    +0.042 A 
ATOM     16  C   UNL     1       4.450   4.603   0.245  0.00  0.00    +0.196 A 
ATOM     17  O   UNL     1       3.557   3.607   0.303  0.00  0.00    -0.458 OA
ENDBRANCH  10  13
ENDBRANCH   7   9
ENDBRANCH   5   7
ENDBRANCH   3   5
BRANCH   1  18
ATOM     18  C   UNL     1       2.534  -2.764   0.019  0.00  0.00    +0.260 C 
BRANCH  18  20
ATOM     19  C   UNL     1       4.485  -3.015  -1.522  0.00  0.00    +0.008 C 
ATOM     20  C   UNL     1       3.099  -2.388  -1.352  0.00  0.00    +0.051 C 
ENDBRANCH  18  20
BRANCH  18  21
ATOM     21  O   UNL     1       2.320  -4.176   0.075  0.00  0.00    -0.478 OA
BRANCH  21  22
ATOM     22  C   UNL     1       3.324  -4.933   0.590  0.00  0.00    +0.136 A 
ATOM     23  C   UNL     1       4.478  -4.310   1.076  0.00  0.00    +0.047 A 
ATOM     24  C   UNL     1       5.497  -5.041   1.603  0.00  0.00    +0.012 A 
ATOM     25  C   UNL     1       5.399  -6.442   1.651  0.00  0.00    -0.017 A 
ATOM     26  C   UNL     1       6.436  -7.227   2.183  0.00  0.00    +0.008 A 
ATOM     27  C   UNL     1       6.308  -8.582   2.214  0.00  0.00    +0.001 A 
ATOM     28  C   UNL     1       5.162  -9.205   1.725  0.00  0.00    +0.001 A 
ATOM     29  C   UNL     1       4.137  -8.478   1.202  0.00  0.00    +0.010 A 
ATOM     30  C   UNL     1       4.233  -7.077   1.153  0.00  0.00    -0.000 A 
ATOM     31  C   UNL     1       3.195  -6.293   0.621  0.00  0.00    +0.067 A 
ATOM     32 BR   UNL     1       1.630  -7.116  -0.049  0.00  0.00    -0.046 Br
ENDBRANCH  21  22
ENDBRANCH  18  21
ENDBRANCH   1  18
TORSDOF 8
