REMARK  Name = ZINC02108568
REMARK  8 active torsions:
REMARK  status: ('A' for Active; 'I' for Inactive)
REMARK    1  A    between atoms: C_1  and  C_2
REMARK    2  A    between atoms: C_2  and  C_4
REMARK    3  A    between atoms: C_2  and  N_21
REMARK    4  A    between atoms: N_6  and  C_7
REMARK    5  A    between atoms: C_7  and  C_8
REMARK    6  A    between atoms: C_8  and  C_9
REMARK    7  A    between atoms: C_8  and  C_15
REMARK    8  A    between atoms: C_24  and  C_40
REMARK                            x       y       z     vdW  Elec       q    Type
REMARK                         _______ _______ _______ _____ _____    ______ ____
ROOT
ATOM      1  C   UNL     1       5.935  -7.600  -2.928  0.00  0.00    +0.038 C 
ATOM      2  C   UNL     1       4.953  -6.429  -2.848  0.00  0.00    +0.168 C 
ENDROOT
BRANCH   2   3
ATOM      3  N   UNL     1       4.100  -6.587  -1.667  0.00  0.00    -0.212 N 
ATOM      4  C   UNL     1       4.031  -5.695  -0.655  0.00  0.00    +0.253 C 
ATOM      5  O   UNL     1       4.592  -4.623  -0.583  0.00  0.00    -0.272 OA
ATOM      6  C   UNL     1       3.109  -6.315   0.368  0.00  0.00    +0.153 C 
ATOM      7  C   UNL     1       1.929  -5.421   0.666  0.00  0.00    +0.053 A 
ATOM      8  C   UNL     1       0.646  -5.834   0.549  0.00  0.00    -0.015 A 
ATOM      9  C   UNL     1      -0.186  -4.715   0.954  0.00  0.00    +0.003 A 
ATOM     10  C   UNL     1      -1.572  -4.556   1.046  0.00  0.00    +0.010 A 
ATOM     11  C   UNL     1      -2.029  -3.333   1.472  0.00  0.00    +0.001 A 
ATOM     12  C   UNL     1      -1.167  -2.299   1.799  0.00  0.00    +0.002 A 
ATOM     13  C   UNL     1       0.209  -2.430   1.718  0.00  0.00    +0.026 A 
ATOM     14  C   UNL     1       0.701  -3.661   1.288  0.00  0.00    +0.047 A 
ATOM     15  N   UNL     1       1.970  -4.124   1.099  0.00  0.00    -0.356 N 
ATOM     16  H   UNL     1       2.780  -3.611   1.249  0.00  0.00    +0.166 HD
ATOM     17  C   UNL     1       0.183  -7.186   0.070  0.00  0.00    +0.056 C 
ATOM     18  C   UNL     1       1.348  -8.186   0.089  0.00  0.00    +0.115 C 
ATOM     19  N   UNL     1       2.549  -7.479  -0.360  0.00  0.00    -0.266 N 
ATOM     20  C   UNL     1       3.289  -7.637  -1.457  0.00  0.00    +0.313 C 
ATOM     21  O   UNL     1       3.237  -8.613  -2.180  0.00  0.00    -0.252 OA
ATOM     22  C   UNL     1       3.855  -6.718   1.641  0.00  0.00    +0.048 C 
ENDBRANCH   2   3
BRANCH   2  23
ATOM     23  C   UNL     1       4.096  -6.406  -4.087  0.00  0.00    +0.234 C 
ATOM     24  O   UNL     1       2.892  -6.511  -3.994  0.00  0.00    -0.274 OA
ATOM     25  N   UNL     1       4.669  -6.268  -5.300  0.00  0.00    -0.313 N 
ATOM     26  H   UNL     1       5.633  -6.184  -5.374  0.00  0.00    +0.149 HD
BRANCH  25  27
ATOM     27  C   UNL     1       3.836  -6.246  -6.505  0.00  0.00    +0.117 C 
BRANCH  27  28
ATOM     28  C   UNL     1       4.727  -6.081  -7.737  0.00  0.00    +0.066 C 
BRANCH  28  29
ATOM     29  C   UNL     1       3.885  -6.181  -8.983  0.00  0.00    -0.038 A 
ATOM     30  C   UNL     1       4.245  -7.053  -9.993  0.00  0.00    +0.004 A 
ATOM     31  C   UNL     1       3.470  -7.149 -11.133  0.00  0.00    +0.000 A 
ATOM     32  C   UNL     1       2.341  -6.363 -11.269  0.00  0.00    +0.000 A 
ATOM     33  C   UNL     1       1.983  -5.487 -10.261  0.00  0.00    +0.000 A 
ATOM     34  C   UNL     1       2.756  -5.395  -9.118  0.00  0.00    +0.004 A 
ENDBRANCH  28  29
BRANCH  28  35
ATOM     35  C   UNL     1       5.401  -4.733  -7.693  0.00  0.00    -0.038 A 
ATOM     36  C   UNL     1       4.647  -3.589  -7.515  0.00  0.00    +0.004 A 
ATOM     37  C   UNL     1       5.265  -2.353  -7.470  0.00  0.00    +0.000 A 
ATOM     38  C   UNL     1       6.637  -2.262  -7.613  0.00  0.00    +0.000 A 
ATOM     39  C   UNL     1       7.391  -3.406  -7.796  0.00  0.00    +0.000 A 
ATOM     40  C   UNL     1       6.773  -4.642  -7.837  0.00  0.00    +0.004 A 
ENDBRANCH  28  35
ENDBRANCH  27  28
ENDBRANCH  25  27
ENDBRANCH   2  23
TORSDOF 6
