REMARK  Name = ZINC09090697
REMARK  3 active torsions:
REMARK  status: ('A' for Active; 'I' for Inactive)
REMARK    1  A    between atoms: C_1  and  C_2
REMARK    2  A    between atoms: C_5  and  C_18
REMARK    3  A    between atoms: N_9  and  C_11
REMARK                            x       y       z     vdW  Elec       q    Type
REMARK                         _______ _______ _______ _____ _____    ______ ____
ROOT
ATOM      1  C   UNL     1      -0.100   0.438  -0.800  0.00  0.00    +0.211 C 
ATOM      2  N   UNL     1      -0.804  -0.590  -0.012  0.00  0.00    -0.294 N 
ATOM      3  C   UNL     1      -1.657  -0.163   0.996  0.00  0.00    +0.159 C 
ATOM      4  N   UNL     1      -1.127   0.744   1.915  0.00  0.00    -0.259 N 
ATOM      5  C   UNL     1      -0.204   1.645   1.392  0.00  0.00    +0.205 A 
ATOM      6  N   UNL     1       0.300   1.512   0.117  0.00  0.00    -0.288 N 
ATOM      7  C   UNL     1       1.184   2.534  -0.077  0.00  0.00    +0.072 A 
ATOM      8  C   UNL     1       1.986   2.899  -1.151  0.00  0.00    +0.028 A 
ATOM      9  C   UNL     1       2.778   4.025  -0.994  0.00  0.00    +0.002 A 
ATOM     10  C   UNL     1       2.778   4.764   0.177  0.00  0.00    +0.002 A 
ATOM     11  C   UNL     1       1.990   4.422   1.260  0.00  0.00    +0.030 A 
ATOM     12  C   UNL     1       1.182   3.287   1.124  0.00  0.00    +0.091 A 
ATOM     13  N   UNL     1       0.317   2.693   1.971  0.00  0.00    -0.214 NA
ATOM     14  H   UNL     1      -0.675  -1.534  -0.192  0.00  0.00    +0.151 HD
ATOM     15  H   UNL     1      -3.537  -0.328   1.759  0.00  0.00    +0.158 HD
ATOM     16  H   UNL     1      -1.383   0.746   2.850  0.00  0.00    +0.158 HD
ATOM     17  N   UNL     1      -2.895  -0.631   1.026  0.00  0.00    -0.375 N 
ATOM     18  H   UNL     1      -3.210  -1.298   0.312  0.00  0.00    +0.158 HD
ENDROOT
BRANCH   1  23
ATOM     19  C   UNL     1      -3.367   5.034  -1.907  0.00  0.00    +0.068 C 
ATOM     20  C   UNL     1      -3.262   3.887  -2.878  0.00  0.00    +0.070 A 
ATOM     21  C   UNL     1      -2.465   2.678  -2.698  0.00  0.00    +0.042 A 
ATOM     22  C   UNL     1      -1.619   2.207  -1.686  0.00  0.00    +0.023 A 
ATOM     23  C   UNL     1      -1.019   0.988  -1.860  0.00  0.00    +0.031 A 
ATOM     24  C   UNL     1      -1.257   0.265  -3.022  0.00  0.00    +0.138 A 
ATOM     25  N   UNL     1      -2.059   0.717  -3.963  0.00  0.00    -0.215 NA
ATOM     26  C   UNL     1      -2.668   1.891  -3.849  0.00  0.00    +0.165 A 
ATOM     27  N   UNL     1      -3.528   2.591  -4.654  0.00  0.00    -0.214 N 
ATOM     28  N   UNL     1      -3.864   3.796  -4.029  0.00  0.00    -0.169 NA
ATOM     29 CL   UNL     1      -0.485  -1.276  -3.235  0.00  0.00    -0.062 Cl
BRANCH  27  30
ATOM     30  C   UNL     1      -3.996   2.167  -5.904  0.00  0.00    +0.068 A 
ATOM     31  C   UNL     1      -3.166   1.440  -6.748  0.00  0.00    +0.028 A 
ATOM     32  C   UNL     1      -3.632   1.020  -7.978  0.00  0.00    +0.002 A 
ATOM     33  C   UNL     1      -4.920   1.331  -8.375  0.00  0.00    +0.000 A 
ATOM     34  C   UNL     1      -5.747   2.059  -7.539  0.00  0.00    +0.002 A 
ATOM     35  C   UNL     1      -5.289   2.478  -6.305  0.00  0.00    +0.028 A 
ENDBRANCH  27  30
ENDBRANCH   1  23
TORSDOF 2
