REMARK  Name = ZINC24890996
REMARK  11 active torsions:
REMARK  status: ('A' for Active; 'I' for Inactive)
REMARK    1  A    between atoms: C_1  and  C_2
REMARK    2  A    between atoms: C_2  and  O_3
REMARK    3  A    between atoms: O_3  and  C_4
REMARK    4  A    between atoms: C_7  and  O_10
REMARK    5  A    between atoms: O_10  and  C_11
REMARK    6  A    between atoms: C_11  and  C_12
REMARK    7  A    between atoms: C_15  and  S_24
REMARK    8  A    between atoms: N_16  and  C_17
REMARK    9  A    between atoms: S_24  and  C_25
REMARK   10  A    between atoms: C_25  and  C_26
REMARK   11  A    between atoms: C_26  and  C_27
REMARK                            x       y       z     vdW  Elec       q    Type
REMARK                         _______ _______ _______ _____ _____    ______ ____
ROOT
ATOM      1  C   UNL     1      -2.548   4.032   0.036  0.00  0.00    +0.176 A 
ATOM      2  N   UNL     1      -3.269   4.328  -1.008  0.00  0.00    -0.130 NA
ATOM      3  N   UNL     1      -4.416   4.777  -0.642  0.00  0.00    -0.122 NA
ATOM      4  C   UNL     1      -4.489   4.801   0.669  0.00  0.00    +0.196 A 
ATOM      5  N   UNL     1      -3.297   4.326   1.144  0.00  0.00    -0.271 N 
ENDROOT
BRANCH   5   6
ATOM      6  C   UNL     1      -2.921   4.172   2.487  0.00  0.00    +0.050 A 
ATOM      7  C   UNL     1      -2.691   2.904   3.003  0.00  0.00    +0.028 A 
ATOM      8  C   UNL     1      -2.317   2.755   4.325  0.00  0.00    +0.022 A 
ATOM      9  C   UNL     1      -2.181   3.868   5.136  0.00  0.00    +0.041 A 
ATOM     10  C   UNL     1      -2.415   5.132   4.625  0.00  0.00    +0.022 A 
ATOM     11  C   UNL     1      -2.785   5.286   3.303  0.00  0.00    +0.028 A 
ATOM     12 CL   UNL     1      -1.717   3.677   6.798  0.00  0.00    -0.084 Cl
ENDBRANCH   5   6
BRANCH   1  13
ATOM     13  C   UNL     1      -1.148   3.474   0.026  0.00  0.00    +0.305 C 
BRANCH  13  14
ATOM     14  O   UNL     1      -1.204   2.047   0.019  0.00  0.00    -0.484 OA
BRANCH  14  18
ATOM     15  C   UNL     1       2.399   0.031  -0.021  0.00  0.00    +0.121 A 
ATOM     16  C   UNL     1       1.208  -0.678  -0.013  0.00  0.00    +0.049 A 
ATOM     17  C   UNL     1       0.002  -0.004   0.002  0.00  0.00    +0.049 A 
ATOM     18  C   UNL     1      -0.017   1.383   0.010  0.00  0.00    +0.121 A 
ATOM     19  C   UNL     1       1.175   2.092   0.002  0.00  0.00    +0.049 A 
ATOM     20  C   UNL     1       2.380   1.418  -0.013  0.00  0.00    +0.049 A 
BRANCH  15  21
ATOM     21  O   UNL     1       3.586  -0.632  -0.036  0.00  0.00    -0.492 OA
BRANCH  21  23
ATOM     22  C   UNL     1       5.999  -0.753  -0.059  0.00  0.00    +0.048 C 
ATOM     23  C   UNL     1       4.774   0.162  -0.043  0.00  0.00    +0.225 C 
ENDBRANCH  21  23
ENDBRANCH  15  21
ENDBRANCH  14  18
ENDBRANCH  13  14
ENDBRANCH   1  13
BRANCH   4  24
ATOM     24  S   UNL     1      -5.860   5.343   1.633  0.00  0.00    -0.085 S 
BRANCH  24  25
ATOM     25  C   UNL     1      -7.009   5.805   0.312  0.00  0.00    +0.086 C 
BRANCH  25  26
ATOM     26  C   UNL     1      -8.312   6.321   0.927  0.00  0.00    +0.107 C 
BRANCH  26  27
ATOM     27  C   UNL     1      -9.268   6.706  -0.172  0.00  0.00    +0.221 C 
ATOM     28  O   UNL     1      -8.941   6.579  -1.333  0.00  0.00    -0.275 OA
ATOM     29  N   UNL     1     -10.488   7.190   0.135  0.00  0.00    -0.240 N 
ATOM     30  C   UNL     1     -11.344   7.534  -0.849  0.00  0.00    +0.303 C 
ATOM     31  O   UNL     1     -11.015   7.407  -2.012  0.00  0.00    -0.253 OA
ATOM     32  N   UNL     1     -12.563   8.018  -0.542  0.00  0.00    -0.313 N 
ATOM     33  H   UNL     1     -10.786   7.304   1.187  0.00  0.00    +0.159 HD
ATOM     34  H   UNL     1     -13.261   8.298  -1.344  0.00  0.00    +0.146 HD
ATOM     35  H   UNL     1     -12.861   8.132   0.511  0.00  0.00    +0.146 HD
ENDBRANCH  26  27
ENDBRANCH  25  26
ENDBRANCH  24  25
ENDBRANCH   4  24
TORSDOF 10
