REMARK  Name = ZINC14024109
REMARK  8 active torsions:
REMARK  status: ('A' for Active; 'I' for Inactive)
REMARK    1  A    between atoms: C_2  and  C_3
REMARK    2  A    between atoms: C_3  and  O_4
REMARK    3  A    between atoms: O_4  and  C_5
REMARK    4  A    between atoms: C_10  and  C_11
REMARK    5  A    between atoms: N_13  and  N_14
REMARK    6  A    between atoms: N_14  and  C_15
REMARK    7  A    between atoms: C_15  and  N_17
REMARK    8  A    between atoms: C_18  and  C_20
REMARK                            x       y       z     vdW  Elec       q    Type
REMARK                         _______ _______ _______ _____ _____    ______ ____
ROOT
ATOM      1  N   UNL     1       2.280   4.190   0.003  0.00  0.00    -0.245 N 
ATOM      2  H   UNL     1       2.267   5.160   0.008  0.00  0.00    +0.172 HD
ENDROOT
BRANCH   1   5
ATOM      3  C   UNL     1       4.660   4.196  -0.020  0.00  0.00    +0.264 C 
ATOM      4  O   UNL     1       4.644   5.412  -0.013  0.00  0.00    -0.269 OA
ATOM      5  N   UNL     1       3.502   3.506  -0.013  0.00  0.00    -0.231 N 
ATOM      6  H   UNL     1       3.515   2.536  -0.018  0.00  0.00    +0.173 HD
BRANCH   3  12
ATOM      7  C   UNL     1       7.154   4.189  -0.044  0.00  0.00    +0.133 A 
ATOM      8  C   UNL     1       8.359   3.501  -0.059  0.00  0.00    +0.046 A 
ATOM      9  C   UNL     1       8.368   2.121  -0.067  0.00  0.00    +0.004 A 
ATOM     10  C   UNL     1       7.177   1.412  -0.059  0.00  0.00    +0.001 A 
ATOM     11  C   UNL     1       5.971   2.079  -0.038  0.00  0.00    +0.017 A 
ATOM     12  C   UNL     1       5.948   3.476  -0.036  0.00  0.00    +0.080 A 
BRANCH   7  13
ATOM     13  O   UNL     1       7.144   5.545  -0.036  0.00  0.00    -0.487 OA
BRANCH  13  14
ATOM     14  C   UNL     1       8.412   6.204  -0.044  0.00  0.00    +0.256 C 
BRANCH  14  16
ATOM     15  C   UNL     1       8.915   8.451   0.766  0.00  0.00    +0.007 C 
ATOM     16  C   UNL     1       8.203   7.696  -0.034  0.00  0.00    +0.006 C 
ENDBRANCH  14  16
ENDBRANCH  13  14
ENDBRANCH   7  13
ENDBRANCH   3  12
ENDBRANCH   1   5
BRANCH   1  17
ATOM     17  C   UNL     1       1.122   3.500   0.010  0.00  0.00    +0.153 C 
ATOM     18  S   UNL     1      -0.372   4.336   0.029  0.00  0.00    -0.017 S 
BRANCH  17  19
ATOM     19  N   UNL     1       1.140   2.153   0.003  0.00  0.00    -0.262 N 
ATOM     20  C   UNL     1      -0.018   1.463   0.010  0.00  0.00    +0.258 C 
ATOM     21  O   UNL     1      -1.079   2.057   0.018  0.00  0.00    -0.269 OA
ATOM     22  H   UNL     1       1.987   1.679  -0.008  0.00  0.00    +0.157 HD
BRANCH  20  23
ATOM     23  C   UNL     1       0.002  -0.004   0.002  0.00  0.00    +0.094 A 
ATOM     24  C   UNL     1      -1.051  -0.867   0.013  0.00  0.00    +0.068 A 
ATOM     25  C   UNL     1      -0.820  -2.255  -0.001  0.00  0.00    +0.008 A 
ATOM     26  C   UNL     1      -1.775  -3.304   0.003  0.00  0.00    +0.010 A 
ATOM     27  C   UNL     1      -1.379  -4.603  -0.006  0.00  0.00    +0.001 A 
ATOM     28  C   UNL     1      -0.035  -4.956  -0.021  0.00  0.00    +0.001 A 
ATOM     29  C   UNL     1       0.927  -3.967  -0.026  0.00  0.00    +0.016 A 
ATOM     30  C   UNL     1       0.541  -2.643  -0.016  0.00  0.00    +0.021 A 
ATOM     31  S   UNL     1       1.413  -1.097  -0.017  0.00  0.00    -0.082 S 
ATOM     32 CL   UNL     1      -2.676  -0.256   0.040  0.00  0.00    -0.082 Cl
ENDBRANCH  20  23
ENDBRANCH  17  19
ENDBRANCH   1  17
TORSDOF 8
