REMARK  Name = ZINC51447393
REMARK  5 active torsions:
REMARK  status: ('A' for Active; 'I' for Inactive)
REMARK    1  A    between atoms: C_1  and  C_2
REMARK    2  A    between atoms: C_2  and  N_3
REMARK    3  A    between atoms: N_3  and  C_4
REMARK    4  A    between atoms: C_4  and  C_5
REMARK    5  A    between atoms: C_10  and  N_11
REMARK                            x       y       z     vdW  Elec       q    Type
REMARK                         _______ _______ _______ _____ _____    ______ ____
ROOT
ATOM      1  C   UNL     1      -3.590  -4.007  -0.797  0.00  0.00    -0.023 A 
ATOM      2  C   UNL     1      -4.043  -4.518   0.406  0.00  0.00    +0.022 A 
ATOM      3  C   UNL     1      -4.526  -3.634   1.363  0.00  0.00    +0.036 A 
ATOM      4  C   UNL     1      -4.539  -2.280   1.087  0.00  0.00    +0.128 A 
ATOM      5  N   UNL     1      -4.101  -1.822  -0.070  0.00  0.00    -0.239 NA
ATOM      6  C   UNL     1      -3.627  -2.632  -1.004  0.00  0.00    +0.123 A 
ATOM      7 BR   UNL     1      -5.158  -4.276   3.025  0.00  0.00    -0.049 Br
ENDROOT
BRANCH   6   8
ATOM      8  N   UNL     1      -3.170  -2.105  -2.207  0.00  0.00    -0.315 N 
ATOM      9  C   UNL     1      -1.794  -1.604  -2.330  0.00  0.00    +0.107 C 
ATOM     10  C   UNL     1      -1.837  -0.168  -2.860  0.00  0.00    +0.023 C 
ATOM     11  C   UNL     1      -2.634  -0.134  -4.167  0.00  0.00    -0.005 C 
ATOM     12  C   UNL     1      -2.659   1.300  -4.704  0.00  0.00    +0.004 C 
ATOM     13  C   UNL     1      -3.306   2.219  -3.666  0.00  0.00    +0.000 C 
ATOM     14  C   UNL     1      -4.737   1.754  -3.391  0.00  0.00    +0.000 C 
ATOM     15  C   UNL     1      -4.715   0.318  -2.862  0.00  0.00    +0.005 C 
ATOM     16  C   UNL     1      -4.067  -0.605  -3.904  0.00  0.00    +0.009 C 
ATOM     17  C   UNL     1      -4.050  -2.042  -3.381  0.00  0.00    +0.110 C 
ENDBRANCH   6   8
BRANCH   1  18
ATOM     18  C   UNL     1      -3.058  -4.927  -1.865  0.00  0.00    -0.043 C 
BRANCH  18  19
ATOM     19  N   UNL     1      -1.589  -4.919  -1.831  0.00  0.00    +0.382 N 
ATOM     20  H   UNL     1      -1.273  -5.197  -0.914  0.00  0.00    -0.085 HD
ATOM     21  H   UNL     1      -1.253  -3.990  -2.036  0.00  0.00    -0.085 HD
BRANCH  19  23
ATOM     22  C   UNL     1       0.459  -5.851  -2.797  0.00  0.00    -0.017 C 
ATOM     23  C   UNL     1      -1.071  -5.859  -2.833  0.00  0.00    -0.086 C 
ENDBRANCH  19  23
ENDBRANCH  18  19
ENDBRANCH   1  18
TORSDOF 4
