REMARK  Name = ZINC49078328
REMARK  5 active torsions:
REMARK  status: ('A' for Active; 'I' for Inactive)
REMARK    1  A    between atoms: C_1  and  C_2
REMARK    2  A    between atoms: C_2  and  C_3
REMARK    3  A    between atoms: C_2  and  C_4
REMARK    4  A    between atoms: N_9  and  S_10
REMARK    5  A    between atoms: S_10  and  C_13
REMARK                            x       y       z     vdW  Elec       q    Type
REMARK                         _______ _______ _______ _____ _____    ______ ____
ROOT
ATOM      1  S   UNL     1      -0.857  -2.807   1.446  0.00  0.00    +0.061 S 
ATOM      2  O   UNL     1      -0.827  -4.135   0.943  0.00  0.00    -0.153 OA
ATOM      3  O   UNL     1       0.325  -2.097   1.793  0.00  0.00    -0.153 OA
ENDROOT
BRANCH   1   4
ATOM      4  C   UNL     1      -1.869  -2.836   2.888  0.00  0.00    +0.106 A 
ATOM      5  C   UNL     1      -1.716  -1.865   3.860  0.00  0.00    +0.029 A 
ATOM      6  C   UNL     1      -2.510  -1.888   4.991  0.00  0.00    +0.016 A 
ATOM      7  C   UNL     1      -3.457  -2.883   5.150  0.00  0.00    +0.013 A 
ATOM      8  C   UNL     1      -3.610  -3.854   4.178  0.00  0.00    +0.016 A 
ATOM      9  C   UNL     1      -2.820  -3.828   3.044  0.00  0.00    +0.029 A 
ATOM     10  I   UNL     1      -4.660  -2.919   6.865  0.00  0.00    -0.044 I 
ENDBRANCH   1   4
BRANCH   1  15
ATOM     11  C   UNL     1      -1.411  -0.460   0.056  0.00  0.00    +0.082 C 
ATOM     12  C   UNL     1      -2.385  -0.027  -1.059  0.00  0.00    +0.022 C 
ATOM     13  C   UNL     1      -3.505  -1.099  -0.977  0.00  0.00    +0.019 C 
ATOM     14  C   UNL     1      -2.695  -2.367  -0.608  0.00  0.00    +0.110 C 
ATOM     15  N   UNL     1      -1.643  -1.889   0.314  0.00  0.00    -0.173 NA
BRANCH  11  17
ATOM     16  C   UNL     1       0.297  -1.065  -1.664  0.00  0.00    +0.009 C 
ATOM     17  C   UNL     1       0.033  -0.243  -0.401  0.00  0.00    +0.002 C 
ATOM     18  C   UNL     1       0.254   1.241  -0.703  0.00  0.00    +0.009 C 
ENDBRANCH  11  17
ENDBRANCH   1  15
TORSDOF 3
