REMARK  Name = ZINC09307579
REMARK  7 active torsions:
REMARK  status: ('A' for Active; 'I' for Inactive)
REMARK    1  A    between atoms: C_1  and  N_60
REMARK    2  A    between atoms: C_2  and  C_3
REMARK    3  A    between atoms: C_2  and  N_60
REMARK    4  A    between atoms: C_4  and  C_14
REMARK    5  A    between atoms: N_16  and  N_17
REMARK    6  A    between atoms: C_18  and  C_19
REMARK    7  A    between atoms: C_26  and  N_60
REMARK                            x       y       z     vdW  Elec       q    Type
REMARK                         _______ _______ _______ _____ _____    ______ ____
ROOT
ATOM      1  C   UNL     1       2.039   1.654   1.290  0.00  0.00    +0.063 A 
ATOM      2  C   UNL     1       2.046   2.389   2.441  0.00  0.00    +0.170 A 
ATOM      3  N   UNL     1       2.774   1.733   3.362  0.00  0.00    -0.124 NA
ATOM      4  N   UNL     1       3.220   0.636   2.857  0.00  0.00    -0.058 NA
ATOM      5  N   UNL     1       2.769   0.542   1.533  0.00  0.00    -0.194 N 
ATOM      6  C   UNL     1       3.027  -0.500   0.635  0.00  0.00    +0.240 A 
ATOM      7  C   UNL     1       3.826  -1.696   0.915  0.00  0.00    +0.206 A 
ATOM      8  N   UNL     1       3.841  -2.440  -0.157  0.00  0.00    -0.032 NA
ATOM      9  O   UNL     1       3.084  -1.778  -1.155  0.00  0.00    -0.239 OA
ATOM     10  N   UNL     1       2.602  -0.569  -0.595  0.00  0.00    -0.027 NA
ATOM     11  N   UNL     1       4.458  -1.989   2.118  0.00  0.00    -0.337 N 
ATOM     12  H   UNL     1       4.389  -1.373   2.865  0.00  0.00    +0.144 HD
ATOM     13  H   UNL     1       4.968  -2.809   2.211  0.00  0.00    +0.144 HD
ENDROOT
BRANCH   2  14
ATOM     14  C   UNL     1       1.369   3.684   2.641  0.00  0.00    +0.285 C 
ATOM     15  O   UNL     1       0.735   4.185   1.732  0.00  0.00    -0.267 OA
ATOM     16  N   UNL     1       1.452   4.312   3.830  0.00  0.00    -0.202 N 
ATOM     17  H   UNL     1       1.958   3.912   4.555  0.00  0.00    +0.178 HD
BRANCH  16  18
ATOM     18  N   UNL     1       0.809   5.542   4.020  0.00  0.00    -0.192 NA
ATOM     19  C   UNL     1       0.889   6.138   5.150  0.00  0.00    +0.107 C 
BRANCH  19  20
ATOM     20  C   UNL     1       0.197   7.462   5.354  0.00  0.00    +0.036 C 
ATOM     21  C   UNL     1       1.231   8.532   5.726  0.00  0.00    +0.013 C 
ATOM     22  C   UNL     1       0.531   9.893   5.751  0.00  0.00    +0.027 C 
ATOM     23  C   UNL     1      -0.726   9.812   6.566  0.00  0.00    -0.031 C 
ATOM     24  C   UNL     1      -1.312   8.704   6.888  0.00  0.00    -0.030 C 
ATOM     25  C   UNL     1      -0.815   7.343   6.495  0.00  0.00    +0.036 C 
ENDBRANCH  19  20
ENDBRANCH  16  18
ENDBRANCH   2  14
BRANCH   1  26
ATOM     26  C   UNL     1       1.346   2.010   0.000  0.00  0.00    -0.020 C 
BRANCH  26  28
ATOM     27  C   UNL     1       0.002  -0.004   0.002  0.00  0.00    -0.095 C 
ATOM     28  N   UNL     1      -0.030   1.473   0.034  0.00  0.00    +0.383 N 
ATOM     29  H   UNL     1      -0.486   1.778   0.903  0.00  0.00    -0.081 HD
BRANCH  28  30
ATOM     30  C   UNL     1      -0.802   1.987  -1.117  0.00  0.00    -0.068 C 
ATOM     31  C   UNL     1      -0.882   3.512  -1.020  0.00  0.00    -0.015 C 
ATOM     32  C   UNL     1      -1.698   4.055  -2.194  0.00  0.00    -0.002 C 
ATOM     33  C   UNL     1      -3.110   3.466  -2.150  0.00  0.00    -0.000 C 
ATOM     34  C   UNL     1      -3.030   1.942  -2.247  0.00  0.00    -0.002 C 
ATOM     35  C   UNL     1      -2.213   1.398  -1.073  0.00  0.00    -0.015 C 
ENDBRANCH  28  30
ENDBRANCH  26  28
ENDBRANCH   1  26
TORSDOF 6
