REMARK  Name = ZINC20203718
REMARK  7 active torsions:
REMARK  status: ('A' for Active; 'I' for Inactive)
REMARK    1  A    between atoms: C_1  and  C_2
REMARK    2  A    between atoms: C_4  and  C_16
REMARK    3  A    between atoms: C_7  and  N_8
REMARK    4  A    between atoms: C_9  and  C_11
REMARK    5  A    between atoms: C_11  and  C_13
REMARK    6  A    between atoms: C_16  and  C_18
REMARK    7  A    between atoms: C_16  and  C_20
REMARK                            x       y       z     vdW  Elec       q    Type
REMARK                         _______ _______ _______ _____ _____    ______ ____
ROOT
ATOM      1  C   UNL     1       0.188   0.964   0.177  0.00  0.00    +0.045 C 
ATOM      2  C   UNL     1       0.188  -0.542   0.142  0.00  0.00    -0.029 A 
ATOM      3  C   UNL     1       0.039  -1.206  -1.060  0.00  0.00    +0.011 A 
ATOM      4  C   UNL     1       0.039  -2.588  -1.094  0.00  0.00    -0.008 A 
ATOM      5  C   UNL     1       0.189  -3.311   0.077  0.00  0.00    +0.047 A 
ATOM      6  C   UNL     1       0.338  -2.653   1.283  0.00  0.00    +0.044 A 
ATOM      7  C   UNL     1       0.344  -1.264   1.318  0.00  0.00    +0.038 A 
ATOM      8 CL   UNL     1       0.189  -5.046   0.030  0.00  0.00    -0.083 Cl
ENDROOT
BRANCH   7   9
ATOM      9  N   UNL     1       0.500  -0.595   2.537  0.00  0.00    -0.284 N 
ATOM     10  C   UNL     1       0.125  -1.190   3.686  0.00  0.00    +0.235 C 
ATOM     11  O   UNL     1      -0.272  -2.336   3.674  0.00  0.00    -0.274 OA
ATOM     12  H   UNL     1       0.879   0.298   2.554  0.00  0.00    +0.155 HD
BRANCH  10  13
ATOM     13  C   UNL     1       0.199  -0.433   4.986  0.00  0.00    +0.163 C 
ATOM     14  C   UNL     1      -1.087  -0.661   5.783  0.00  0.00    +0.034 C 
ATOM     15 CL   UNL     1       1.611  -1.017   5.943  0.00  0.00    -0.112 Cl
ENDBRANCH  10  13
ENDBRANCH   7   9
BRANCH   4  16
ATOM     16  C   UNL     1      -0.124  -3.308  -2.408  0.00  0.00    +0.153 C 
BRANCH  16  17
ATOM     17  C   UNL     1       0.989  -2.908  -3.341  0.00  0.00    -0.026 A 
ATOM     18  C   UNL     1       0.998  -1.646  -3.905  0.00  0.00    +0.006 A 
ATOM     19  C   UNL     1       2.019  -1.279  -4.762  0.00  0.00    +0.020 A 
ATOM     20  C   UNL     1       3.031  -2.175  -5.055  0.00  0.00    +0.041 A 
ATOM     21  C   UNL     1       3.022  -3.438  -4.491  0.00  0.00    +0.020 A 
ATOM     22  C   UNL     1       2.003  -3.802  -3.630  0.00  0.00    +0.006 A 
ATOM     23 CL   UNL     1       4.313  -1.715  -6.132  0.00  0.00    -0.084 Cl
ENDBRANCH  16  17
BRANCH  16  24
ATOM     24  C   UNL     1      -1.420  -2.948  -3.006  0.00  0.00    +0.075 C 
ATOM     25  N   UNL     1      -2.420  -2.671  -3.468  0.00  0.00    -0.196 NA
ENDBRANCH  16  24
ENDBRANCH   4  16
TORSDOF 5
