REMARK  Name = ZINC04977578
REMARK  9 active torsions:
REMARK  status: ('A' for Active; 'I' for Inactive)
REMARK    1  A    between atoms: C_1  and  C_2
REMARK    2  A    between atoms: C_2  and  C_3
REMARK    3  A    between atoms: C_3  and  N_4
REMARK    4  A    between atoms: N_4  and  C_5
REMARK    5  A    between atoms: C_5  and  C_6
REMARK    6  A    between atoms: C_16  and  C_18
REMARK    7  A    between atoms: C_23  and  C_24
REMARK    8  A    between atoms: C_25  and  C_27
REMARK    9  A    between atoms: C_27  and  C_28
REMARK                            x       y       z     vdW  Elec       q    Type
REMARK                         _______ _______ _______ _____ _____    ______ ____
ROOT
ATOM      1  C   UNL     1       2.974   1.424  -1.129  0.00  0.00    +0.234 C 
ATOM      2  O   UNL     1       2.229   1.623  -2.066  0.00  0.00    -0.274 OA
ATOM      3  N   UNL     1       4.120   0.739  -1.313  0.00  0.00    -0.289 N 
ATOM      4  C   UNL     1       5.033   0.497  -0.186  0.00  0.00    +0.114 C 
ATOM      5  C   UNL     1       5.084  -1.022   0.069  0.00  0.00    +0.062 C 
ATOM      6  C   UNL     1       5.182  -1.725  -1.246  0.00  0.00    -0.003 A 
ATOM      7  C   UNL     1       4.922  -1.223  -2.483  0.00  0.00    -0.012 A 
ATOM      8  C   UNL     1       5.085  -2.096  -3.559  0.00  0.00    +0.013 A 
ATOM      9  C   UNL     1       5.485  -3.369  -3.342  0.00  0.00    +0.046 A 
ATOM     10  S   UNL     1       5.656  -3.404  -1.564  0.00  0.00    -0.101 S 
ATOM     11  C   UNL     1       4.478   0.229  -2.644  0.00  0.00    +0.138 C 
ENDROOT
BRANCH  11  12
ATOM     12  C   UNL     1       5.605   1.048  -3.218  0.00  0.00    -0.020 A 
ATOM     13  C   UNL     1       6.898   0.557  -3.194  0.00  0.00    +0.006 A 
ATOM     14  C   UNL     1       7.932   1.307  -3.720  0.00  0.00    +0.000 A 
ATOM     15  C   UNL     1       7.674   2.549  -4.272  0.00  0.00    +0.000 A 
ATOM     16  C   UNL     1       6.382   3.039  -4.296  0.00  0.00    +0.004 A 
ATOM     17  C   UNL     1       5.347   2.287  -3.774  0.00  0.00    -0.045 A 
ATOM     18  C   UNL     1       3.938   2.819  -3.805  0.00  0.00    +0.044 C 
ENDBRANCH  11  12
BRANCH   1  19
ATOM     19  C   UNL     1       2.617   1.942   0.240  0.00  0.00    +0.203 C 
BRANCH  19  20
ATOM     20  N   UNL     1       1.334   2.646   0.177  0.00  0.00    -0.293 N 
ATOM     21  C   UNL     1       0.185   1.971   0.380  0.00  0.00    +0.216 C 
ATOM     22  O   UNL     1       0.213   0.782   0.616  0.00  0.00    -0.276 OA
BRANCH  21  23
ATOM     23  C   UNL     1      -1.136   2.694   0.309  0.00  0.00    +0.092 C 
ATOM     24  C   UNL     1      -2.273   1.704   0.569  0.00  0.00    +0.013 C 
ENDBRANCH  21  23
BRANCH  20  25
ATOM     25  C   UNL     1       1.299   4.082  -0.107  0.00  0.00    +0.108 C 
BRANCH  25  27
ATOM     26  C   UNL     1       1.336   6.364   0.910  0.00  0.00    +0.005 C 
ATOM     27  C   UNL     1       1.372   4.864   1.206  0.00  0.00    +0.016 C 
ENDBRANCH  25  27
ENDBRANCH  20  25
ENDBRANCH  19  20
ENDBRANCH   1  19
TORSDOF 6
