REMARK  Name = ZINC20873286
REMARK  15 active torsions:
REMARK  status: ('A' for Active; 'I' for Inactive)
REMARK    1  A    between atoms: C_1  and  C_2
REMARK    2  A    between atoms: C_2  and  C_3
REMARK    3  A    between atoms: C_2  and  C_4
REMARK    4  A    between atoms: C_2  and  N_5
REMARK    5  A    between atoms: C_6  and  C_8
REMARK    6  A    between atoms: C_8  and  O_9
REMARK    7  A    between atoms: O_9  and  C_10
REMARK    8  A    between atoms: C_15  and  C_16
REMARK    9  A    between atoms: C_16  and  N_17
REMARK   10  A    between atoms: N_17  and  C_18
REMARK   11  A    between atoms: C_18  and  C_19
REMARK   12  A    between atoms: C_19  and  C_20
REMARK   13  A    between atoms: C_20  and  S_21
REMARK   14  A    between atoms: S_21  and  C_22
REMARK   15  A    between atoms: N_26  and  C_27
REMARK                            x       y       z     vdW  Elec       q    Type
REMARK                         _______ _______ _______ _____ _____    ______ ____
ROOT
ATOM      1  C   UNL     1       1.179   1.786   0.000  0.00  0.00    +0.123 A 
ATOM      2  C   UNL     1      -0.013   1.076   0.008  0.00  0.00    +0.047 A 
ATOM      3  C   UNL     1      -1.218   1.751   0.017  0.00  0.00    +0.019 A 
ATOM      4  C   UNL     1      -1.237   3.134   0.030  0.00  0.00    +0.018 A 
ATOM      5  C   UNL     1      -0.050   3.844   0.023  0.00  0.00    +0.020 A 
ATOM      6  C   UNL     1       1.158   3.173   0.008  0.00  0.00    -0.022 A 
ATOM      7 BR   UNL     1      -2.888   4.055   0.050  0.00  0.00    -0.050 Br
ENDROOT
BRANCH   1   8
ATOM      8  O   UNL     1       2.366   1.124  -0.015  0.00  0.00    -0.483 OA
BRANCH   8   9
ATOM      9  C   UNL     1       2.312  -0.304  -0.023  0.00  0.00    +0.324 C 
BRANCH   9  11
ATOM     10  N   UNL     1       3.909  -2.192  -0.049  0.00  0.00    -0.308 N 
ATOM     11  C   UNL     1       3.713  -0.859  -0.040  0.00  0.00    +0.251 C 
ATOM     12  O   UNL     1       4.664  -0.106  -0.044  0.00  0.00    -0.272 OA
ATOM     13  H   UNL     1       3.047  -2.875  -0.045  0.00  0.00    +0.149 HD
BRANCH  10  15
ATOM     14  C   UNL     1       6.023  -2.257   1.179  0.00  0.00    +0.031 C 
ATOM     15  C   UNL     1       5.271  -2.732  -0.066  0.00  0.00    +0.026 C 
ATOM     16  C   UNL     1       5.214  -4.261  -0.074  0.00  0.00    +0.031 C 
ATOM     17  C   UNL     1       5.999  -2.243  -1.319  0.00  0.00    +0.031 C 
ENDBRANCH  10  15
ENDBRANCH   9  11
ENDBRANCH   8   9
ENDBRANCH   1   8
BRANCH   6  18
ATOM     18  C   UNL     1       2.450   3.947   0.000  0.00  0.00    -0.043 C 
BRANCH  18  19
ATOM     19  N   UNL     1       2.982   4.000  -1.368  0.00  0.00    +0.382 N 
ATOM     20  H   UNL     1       3.164   2.978  -1.730  0.00  0.00    -0.085 HD
ATOM     21  H   UNL     1       2.253   4.497  -2.026  0.00  0.00    -0.085 HD
BRANCH  19  22
ATOM     22  C   UNL     1       4.245   4.749  -1.414  0.00  0.00    -0.081 C 
BRANCH  22  23
ATOM     23  C   UNL     1       4.766   4.782  -2.853  0.00  0.00    -0.008 C 
BRANCH  23  24
ATOM     24  C   UNL     1       6.081   5.562  -2.901  0.00  0.00    +0.075 C 
BRANCH  24  25
ATOM     25  S   UNL     1       6.697   5.601  -4.602  0.00  0.00    -0.085 S 
BRANCH  25  26
ATOM     26  C   UNL     1       8.175   6.533  -4.371  0.00  0.00    +0.209 A 
ATOM     27  N   UNL     1       8.621   7.021  -3.234  0.00  0.00    -0.102 NA
ATOM     28  N   UNL     1       9.726   7.649  -3.417  0.00  0.00    -0.022 NA
ATOM     29  N   UNL     1      10.063   7.610  -4.660  0.00  0.00    -0.043 NA
ATOM     30  N   UNL     1       9.068   6.876  -5.329  0.00  0.00    -0.223 N 
ATOM     31  C   UNL     1       9.008   6.554  -6.757  0.00  0.00    +0.177 C 
ENDBRANCH  25  26
ENDBRANCH  24  25
ENDBRANCH  23  24
ENDBRANCH  22  23
ENDBRANCH  19  22
ENDBRANCH  18  19
ENDBRANCH   6  18
TORSDOF 11
