REMARK  Name = ZINC12897390
REMARK  16 active torsions:
REMARK  status: ('A' for Active; 'I' for Inactive)
REMARK    1  A    between atoms: C_1  and  C_2
REMARK    2  A    between atoms: C_2  and  O_3
REMARK    3  A    between atoms: O_3  and  C_4
REMARK    4  A    between atoms: C_7  and  O_10
REMARK    5  A    between atoms: O_10  and  C_11
REMARK    6  A    between atoms: C_11  and  C_12
REMARK    7  A    between atoms: C_12  and  C_13
REMARK    8  A    between atoms: N_15  and  C_16
REMARK    9  A    between atoms: N_15  and  C_21
REMARK   10  A    between atoms: C_16  and  C_17
REMARK   11  A    between atoms: C_17  and  C_18
REMARK   12  A    between atoms: C_18  and  C_19
REMARK   13  A    between atoms: C_18  and  C_20
REMARK   14  A    between atoms: C_22  and  N_37
REMARK   15  A    between atoms: N_23  and  C_30
REMARK   16  A    between atoms: C_30  and  C_31
REMARK                            x       y       z     vdW  Elec       q    Type
REMARK                         _______ _______ _______ _____ _____    ______ ____
ROOT
ATOM      1  C   UNL     1       2.424  -8.680  -4.065  0.00  0.00    +0.223 C 
ATOM      2  O   UNL     1       3.102  -7.828  -4.599  0.00  0.00    -0.275 OA
ATOM      3  N   UNL     1       2.475  -9.956  -4.503  0.00  0.00    -0.264 N 
ENDROOT
BRANCH   3   4
ATOM      4  C   UNL     1       3.242 -10.280  -5.642  0.00  0.00    +0.140 A 
ATOM      5  C   UNL     1       2.913  -9.766  -6.880  0.00  0.00    +0.128 A 
ATOM      6  N   UNL     1       3.681 -10.100  -7.971  0.00  0.00    -0.276 N 
ATOM      7  C   UNL     1       4.740 -10.918  -7.834  0.00  0.00    +0.331 A 
ATOM      8  O   UNL     1       5.405 -11.202  -8.811  0.00  0.00    -0.246 OA
ATOM      9  N   UNL     1       5.076 -11.428  -6.636  0.00  0.00    -0.273 N 
ATOM     10  H   UNL     1       5.844 -12.016  -6.563  0.00  0.00    +0.173 HD
ATOM     11  C   UNL     1       4.360 -11.129  -5.534  0.00  0.00    +0.277 A 
ATOM     12  O   UNL     1       4.676 -11.593  -4.452  0.00  0.00    -0.266 OA
BRANCH   5  13
ATOM     13  N   UNL     1       1.831  -8.930  -7.020  0.00  0.00    -0.343 N 
ATOM     14  H   UNL     1       1.314  -8.671  -6.241  0.00  0.00    +0.144 HD
ATOM     15  H   UNL     1       1.585  -8.599  -7.898  0.00  0.00    +0.144 HD
ENDBRANCH   5  13
BRANCH   6  16
ATOM     16  C   UNL     1       3.342  -9.562  -9.291  0.00  0.00    +0.163 C 
BRANCH  16  17
ATOM     17  C   UNL     1       4.062  -8.254  -9.500  0.00  0.00    -0.028 A 
ATOM     18  C   UNL     1       3.467  -7.068  -9.114  0.00  0.00    +0.005 A 
ATOM     19  C   UNL     1       4.127  -5.869  -9.305  0.00  0.00    +0.000 A 
ATOM     20  C   UNL     1       5.383  -5.856  -9.883  0.00  0.00    +0.000 A 
ATOM     21  C   UNL     1       5.979  -7.042 -10.268  0.00  0.00    +0.000 A 
ATOM     22  C   UNL     1       5.320  -8.242 -10.073  0.00  0.00    +0.005 A 
ENDBRANCH  16  17
ENDBRANCH   6  16
ENDBRANCH   3   4
BRANCH   1  23
ATOM     23  C   UNL     1       1.524  -8.315  -2.913  0.00  0.00    +0.137 C 
BRANCH  23  24
ATOM     24  C   UNL     1       1.653  -6.819  -2.619  0.00  0.00    +0.238 C 
BRANCH  24  25
ATOM     25  O   UNL     1       0.800  -6.473  -1.526  0.00  0.00    -0.491 OA
BRANCH  25  29
ATOM     26  C   UNL     1       0.789  -2.520  -0.336  0.00  0.00    +0.121 A 
ATOM     27  C   UNL     1      -0.013  -3.443   0.318  0.00  0.00    +0.049 A 
ATOM     28  C   UNL     1      -0.010  -4.766  -0.080  0.00  0.00    +0.049 A 
ATOM     29  C   UNL     1       0.796  -5.171  -1.135  0.00  0.00    +0.121 A 
ATOM     30  C   UNL     1       1.597  -4.247  -1.789  0.00  0.00    +0.049 A 
ATOM     31  C   UNL     1       1.590  -2.924  -1.394  0.00  0.00    +0.049 A 
BRANCH  26  32
ATOM     32  O   UNL     1       0.785  -1.218   0.056  0.00  0.00    -0.492 OA
BRANCH  32  34
ATOM     33  C   UNL     1       0.065   0.623   1.446  0.00  0.00    +0.048 C 
ATOM     34  C   UNL     1      -0.064  -0.873   1.152  0.00  0.00    +0.225 C 
ENDBRANCH  32  34
ENDBRANCH  26  32
ENDBRANCH  25  29
ENDBRANCH  24  25
ENDBRANCH  23  24
ENDBRANCH   1  23
BRANCH   3  35
ATOM     35  C   UNL     1       1.734 -11.003  -3.796  0.00  0.00    +0.114 C 
BRANCH  35  36
ATOM     36  C   UNL     1       0.326 -11.116  -4.383  0.00  0.00    +0.022 C 
BRANCH  36  37
ATOM     37  C   UNL     1      -0.448 -12.210  -3.644  0.00  0.00    -0.016 C 
ATOM     38  C   UNL     1      -0.649 -11.797  -2.185  0.00  0.00    +0.007 C 
ATOM     39  C   UNL     1      -1.811 -12.409  -4.310  0.00  0.00    +0.007 C 
ENDBRANCH  36  37
ENDBRANCH  35  36
ENDBRANCH   3  35
TORSDOF 13
