REMARK  Name = ZINC36483210
REMARK  8 active torsions:
REMARK  status: ('A' for Active; 'I' for Inactive)
REMARK    1  A    between atoms: C_4  and  O_35
REMARK    2  A    between atoms: C_5  and  C_7
REMARK    3  A    between atoms: C_7  and  C_9
REMARK    4  A    between atoms: C_7  and  N_18
REMARK    5  A    between atoms: N_11  and  C_12
REMARK    6  A    between atoms: N_18  and  C_19
REMARK    7  A    between atoms: C_26  and  C_28
REMARK    8  A    between atoms: C_33  and  O_34
REMARK                            x       y       z     vdW  Elec       q    Type
REMARK                         _______ _______ _______ _____ _____    ______ ____
ROOT
ATOM      1  C   UNL     1       1.249  -2.614   0.205  0.00  0.00    +0.201 C 
ENDROOT
BRANCH   1   6
ATOM      2  C   UNL     1      -1.245  -0.533   2.130  0.00  0.00    +0.001 A 
ATOM      3  C   UNL     1      -1.441   0.533   1.272  0.00  0.00    +0.004 A 
ATOM      4  C   UNL     1      -0.768   0.584   0.067  0.00  0.00    +0.046 A 
ATOM      5  C   UNL     1       0.106  -0.436  -0.282  0.00  0.00    +0.122 A 
ATOM      6  C   UNL     1       0.301  -1.504   0.581  0.00  0.00    +0.024 A 
ATOM      7  C   UNL     1      -0.375  -1.551   1.785  0.00  0.00    +0.009 A 
BRANCH   5   8
ATOM      8  O   UNL     1       0.769  -0.389  -1.468  0.00  0.00    -0.506 OA
ATOM      9  H   UNL     1       1.586   0.126  -1.441  0.00  0.00    +0.292 HD
ENDBRANCH   5   8
ENDBRANCH   1   6
BRANCH   1  10
ATOM     10  C   UNL     1       1.569  -3.437   1.427  0.00  0.00    +0.239 C 
ATOM     11  O   UNL     1       0.958  -4.462   1.644  0.00  0.00    -0.273 OA
ATOM     12  N   UNL     1       2.533  -3.033   2.277  0.00  0.00    -0.311 N 
ATOM     13  H   UNL     1       2.969  -2.177   2.145  0.00  0.00    +0.149 HD
BRANCH  12  14
ATOM     14  C   UNL     1       2.924  -3.889   3.400  0.00  0.00    +0.073 C 
ATOM     15  C   UNL     1       1.983  -3.641   4.581  0.00  0.00    +0.022 C 
ATOM     16  C   UNL     1       2.392  -4.535   5.754  0.00  0.00    +0.002 C 
ATOM     17  C   UNL     1       3.828  -4.207   6.169  0.00  0.00    +0.000 C 
ATOM     18  C   UNL     1       4.768  -4.455   4.988  0.00  0.00    +0.002 C 
ATOM     19  C   UNL     1       4.360  -3.562   3.815  0.00  0.00    +0.022 C 
ENDBRANCH  12  14
ENDBRANCH   1  10
BRANCH   1  20
ATOM     20  N   UNL     1       0.624  -3.468  -0.809  0.00  0.00    -0.251 N 
ATOM     21  C   UNL     1       1.206  -3.618  -2.015  0.00  0.00    +0.255 C 
ATOM     22  O   UNL     1       2.250  -3.045  -2.262  0.00  0.00    -0.269 OA
BRANCH  20  23
ATOM     23  C   UNL     1      -0.577  -4.126  -0.525  0.00  0.00    +0.039 A 
ATOM     24  C   UNL     1      -0.635  -5.513  -0.560  0.00  0.00    +0.023 A 
ATOM     25  C   UNL     1      -1.822  -6.161  -0.279  0.00  0.00    +0.003 A 
ATOM     26  C   UNL     1      -2.953  -5.430   0.036  0.00  0.00    +0.020 A 
ATOM     27  C   UNL     1      -2.899  -4.048   0.072  0.00  0.00    +0.043 A 
ATOM     28  C   UNL     1      -1.712  -3.394  -0.202  0.00  0.00    +0.043 A 
ATOM     29 CL   UNL     1      -4.321  -3.135   0.469  0.00  0.00    -0.083 Cl
ENDBRANCH  20  23
BRANCH  21  30
ATOM     30  C   UNL     1       0.578  -4.479  -3.035  0.00  0.00    +0.079 A 
ATOM     31  C   UNL     1      -0.808  -4.655  -3.048  0.00  0.00    +0.017 A 
ATOM     32  C   UNL     1      -1.389  -5.460  -4.004  0.00  0.00    +0.001 A 
ATOM     33  C   UNL     1      -0.605  -6.096  -4.953  0.00  0.00    +0.004 A 
ATOM     34  C   UNL     1       0.766  -5.931  -4.950  0.00  0.00    +0.046 A 
ATOM     35  C   UNL     1       1.367  -5.119  -4.000  0.00  0.00    +0.129 A 
BRANCH  35  36
ATOM     36  O   UNL     1       2.713  -4.951  -4.000  0.00  0.00    -0.506 OA
ATOM     37  H   UNL     1       3.191  -5.601  -3.466  0.00  0.00    +0.292 HD
ENDBRANCH  35  36
ENDBRANCH  21  30
ENDBRANCH   1  20
TORSDOF 8
