REMARK  Name = ZINC11363973
REMARK  5 active torsions:
REMARK  status: ('A' for Active; 'I' for Inactive)
REMARK    1  A    between atoms: C_1  and  C_2
REMARK    2  A    between atoms: C_5  and  N_8
REMARK    3  A    between atoms: C_11  and  S_18
REMARK    4  A    between atoms: S_18  and  C_19
REMARK    5  A    between atoms: C_19  and  C_20
REMARK                            x       y       z     vdW  Elec       q    Type
REMARK                         _______ _______ _______ _____ _____    ______ ____
ROOT
ATOM      1  N   UNL     1       0.057  -4.171  -0.021  0.00  0.00    -0.214 N 
ATOM      2  C   UNL     1       0.703  -4.969   0.881  0.00  0.00    +0.171 A 
ATOM      3  N   UNL     1       1.453  -4.744   1.957  0.00  0.00    -0.202 NA
ATOM      4  C   UNL     1       1.955  -5.753   2.650  0.00  0.00    +0.194 A 
ATOM      5  N   UNL     1       1.742  -7.021   2.317  0.00  0.00    -0.183 NA
ATOM      6  C   UNL     1       1.007  -7.339   1.261  0.00  0.00    +0.285 A 
ATOM      7  O   UNL     1       0.795  -8.634   0.929  0.00  0.00    -0.265 OA
ATOM      8  C   UNL     1       0.451  -6.299   0.492  0.00  0.00    +0.105 A 
ATOM      9  C   UNL     1      -0.360  -6.245  -0.664  0.00  0.00    +0.150 A 
ATOM     10  N   UNL     1      -0.588  -4.995  -0.951  0.00  0.00    -0.172 NA
ENDROOT
BRANCH   1  15
ATOM     11  C   UNL     1      -0.018   1.503   0.010  0.00  0.00    +0.044 C 
ATOM     12  C   UNL     1       0.002  -0.004   0.002  0.00  0.00    -0.050 A 
ATOM     13  C   UNL     1       0.006  -0.687  -1.200  0.00  0.00    +0.005 A 
ATOM     14  C   UNL     1       0.024  -2.068  -1.211  0.00  0.00    +0.028 A 
ATOM     15  C   UNL     1       0.039  -2.771  -0.013  0.00  0.00    +0.068 A 
ATOM     16  C   UNL     1       0.036  -2.081   1.192  0.00  0.00    +0.028 A 
ATOM     17  C   UNL     1       0.023  -0.700   1.197  0.00  0.00    +0.005 A 
ENDBRANCH   1  15
BRANCH   4  18
ATOM     18  S   UNL     1       2.943  -5.402   4.066  0.00  0.00    -0.081 S 
BRANCH  18  19
ATOM     19  C   UNL     1       3.409  -7.039   4.693  0.00  0.00    +0.112 C 
BRANCH  19  20
ATOM     20  C   UNL     1       4.268  -6.880   5.921  0.00  0.00    -0.037 A 
ATOM     21  C   UNL     1       5.641  -6.787   5.796  0.00  0.00    +0.005 A 
ATOM     22  C   UNL     1       6.429  -6.641   6.922  0.00  0.00    +0.015 A 
ATOM     23  C   UNL     1       5.844  -6.589   8.174  0.00  0.00    +0.018 A 
ATOM     24  C   UNL     1       4.469  -6.683   8.299  0.00  0.00    +0.015 A 
ATOM     25  C   UNL     1       3.681  -6.824   7.172  0.00  0.00    +0.005 A 
ATOM     26 BR   UNL     1       6.921  -6.391   9.715  0.00  0.00    -0.050 Br
ENDBRANCH  19  20
ENDBRANCH  18  19
ENDBRANCH   4  18
TORSDOF 4
