REMARK  Name = ZINC04452601
REMARK  4 active torsions:
REMARK  status: ('A' for Active; 'I' for Inactive)
REMARK    1  A    between atoms: C_4  and  C_7
REMARK    2  A    between atoms: C_7  and  N_8
REMARK    3  A    between atoms: C_11  and  C_15
REMARK    4  A    between atoms: C_11  and  N_19
REMARK                            x       y       z     vdW  Elec       q    Type
REMARK                         _______ _______ _______ _____ _____    ______ ____
ROOT
ATOM      1  N   UNL     1       5.865   5.844   1.858  0.00  0.00    -0.218 N 
ATOM      2  C   UNL     1       4.907   5.108   1.260  0.00  0.00    +0.274 C 
ATOM      3  O   UNL     1       4.427   4.068   1.658  0.00  0.00    -0.271 OA
ATOM      4  C   UNL     1       4.554   5.851  -0.013  0.00  0.00    +0.277 C 
ATOM      5  N   UNL     1       5.437   7.030   0.019  0.00  0.00    -0.263 N 
ATOM      6  C   UNL     1       6.163   6.937   1.147  0.00  0.00    +0.311 C 
ATOM      7  O   UNL     1       6.997   7.755   1.484  0.00  0.00    -0.252 OA
ATOM      8  H   UNL     1       5.485   7.736  -0.645  0.00  0.00    +0.153 HD
ENDROOT
BRANCH   4   9
ATOM      9  N   UNL     1       3.147   6.260   0.003  0.00  0.00    -0.288 N 
ATOM     10  C   UNL     1       2.151   5.305   0.008  0.00  0.00    +0.161 A 
ATOM     11  N   UNL     1       2.264   3.997   0.001  0.00  0.00    -0.225 NA
ATOM     12  C   UNL     1       1.191   3.175   0.007  0.00  0.00    +0.080 A 
ATOM     13  C   UNL     1       1.174   1.762   0.000  0.00  0.00    +0.029 A 
ATOM     14  C   UNL     1      -0.013   1.076   0.008  0.00  0.00    +0.002 A 
ATOM     15  C   UNL     1      -1.232   1.737   0.017  0.00  0.00    +0.001 A 
ATOM     16  C   UNL     1      -1.252   3.120   0.030  0.00  0.00    +0.017 A 
ATOM     17  C   UNL     1      -0.069   3.815   0.022  0.00  0.00    +0.041 A 
ATOM     18  S   UNL     1       0.379   5.534   0.026  0.00  0.00    -0.052 S 
ATOM     19  H   UNL     1       2.916   7.202   0.009  0.00  0.00    +0.151 HD
ENDBRANCH   4   9
BRANCH   4  20
ATOM     20  C   UNL     1       4.849   4.990  -1.242  0.00  0.00    +0.436 C 
ATOM     21  F   UNL     1       4.562   5.719  -2.402  0.00  0.00    -0.166 F 
ATOM     22  F   UNL     1       6.200   4.626  -1.243  0.00  0.00    -0.166 F 
ATOM     23  F   UNL     1       4.056   3.839  -1.207  0.00  0.00    -0.166 F 
ENDBRANCH   4  20
BRANCH   1  24
ATOM     24  C   UNL     1       6.501   5.490   3.130  0.00  0.00    +0.153 C 
BRANCH  24  28
ATOM     25  C   UNL     1       4.290   7.212   6.355  0.00  0.00    +0.000 A 
ATOM     26  C   UNL     1       3.972   5.947   5.896  0.00  0.00    +0.000 A 
ATOM     27  C   UNL     1       4.688   5.390   4.853  0.00  0.00    +0.005 A 
ATOM     28  C   UNL     1       5.721   6.098   4.267  0.00  0.00    -0.030 A 
ATOM     29  C   UNL     1       6.042   7.360   4.729  0.00  0.00    +0.005 A 
ATOM     30  C   UNL     1       5.324   7.919   5.770  0.00  0.00    +0.000 A 
ENDBRANCH  24  28
ENDBRANCH   1  24
TORSDOF 4
