REMARK  Name = ZINC06662387
REMARK  6 active torsions:
REMARK  status: ('A' for Active; 'I' for Inactive)
REMARK    1  A    between atoms: C_2  and  N_9
REMARK    2  A    between atoms: C_10  and  C_12
REMARK    3  A    between atoms: C_12  and  C_13
REMARK    4  A    between atoms: N_17  and  C_20
REMARK    5  A    between atoms: C_20  and  C_21
REMARK    6  A    between atoms: C_21  and  O_22
REMARK                            x       y       z     vdW  Elec       q    Type
REMARK                         _______ _______ _______ _____ _____    ______ ____
ROOT
ATOM      1  C   UNL     1       3.478   3.914   2.237  0.00  0.00    +0.089 C 
ENDROOT
BRANCH   1   2
ATOM      2  C   UNL     1       3.377   2.999   1.016  0.00  0.00    +0.025 C 
ATOM      3  C   UNL     1       1.967   2.493   0.894  0.00  0.00    +0.202 C 
ATOM      4  O   UNL     1       1.389   2.135   1.899  0.00  0.00    -0.277 OA
ATOM      5  N   UNL     1       1.325   2.417  -0.276  0.00  0.00    -0.302 N 
ATOM      6  C   UNL     1       1.915   2.861  -1.536  0.00  0.00    +0.089 C 
ATOM      7  C   UNL     1       3.434   2.965  -1.395  0.00  0.00    -0.062 C 
ATOM      8  N   UNL     1       3.746   3.757  -0.190  0.00  0.00    +0.388 N 
ATOM      9  H   UNL     1       4.752   3.962  -0.169  0.00  0.00    -0.085 HD
ATOM     10  H   UNL     1       3.218   4.637  -0.215  0.00  0.00    -0.085 HD
BRANCH   5  11
ATOM     11  C   UNL     1      -0.034   1.870  -0.294  0.00  0.00    +0.135 C 
BRANCH  11  12
ATOM     12  C   UNL     1       0.028   0.357  -0.515  0.00  0.00    +0.174 C 
BRANCH  12  13
ATOM     13  O   UNL     1       0.670  -0.261   0.602  0.00  0.00    -0.393 OA
ATOM     14  H   UNL     1       0.744  -1.223   0.530  0.00  0.00    +0.209 HD
ENDBRANCH  12  13
ENDBRANCH  11  12
ENDBRANCH   5  11
ENDBRANCH   1   2
BRANCH   1  16
ATOM     15  N   UNL     1       5.246   5.132   3.466  0.00  0.00    -0.285 N 
ATOM     16  C   UNL     1       4.915   4.321   2.442  0.00  0.00    +0.216 C 
ATOM     17  O   UNL     1       5.773   3.918   1.686  0.00  0.00    -0.276 OA
ATOM     18  H   UNL     1       4.552   5.516   4.025  0.00  0.00    +0.155 HD
BRANCH  15  20
ATOM     19  C   UNL     1       6.952   6.665   4.226  0.00  0.00    +0.043 A 
ATOM     20  C   UNL     1       6.591   5.421   3.723  0.00  0.00    +0.036 A 
ATOM     21  C   UNL     1       7.566   4.463   3.482  0.00  0.00    +0.043 A 
ATOM     22  C   UNL     1       8.895   4.753   3.732  0.00  0.00    +0.044 A 
ATOM     23  C   UNL     1       9.252   5.992   4.232  0.00  0.00    +0.040 A 
ATOM     24  C   UNL     1       8.281   6.947   4.479  0.00  0.00    +0.044 A 
ATOM     25 CL   UNL     1       8.732   8.501   5.107  0.00  0.00    -0.083 Cl
ATOM     26 CL   UNL     1      10.116   3.558   3.424  0.00  0.00    -0.083 Cl
ENDBRANCH  15  20
ENDBRANCH   1  16
TORSDOF 6
