REMARK  Name = ZINC24951619
REMARK  6 active torsions:
REMARK  status: ('A' for Active; 'I' for Inactive)
REMARK    1  A    between atoms: C_1  and  C_2
REMARK    2  A    between atoms: N_5  and  C_11
REMARK    3  A    between atoms: C_7  and  C_10
REMARK    4  A    between atoms: C_11  and  C_12
REMARK    5  A    between atoms: C_12  and  N_14
REMARK    6  A    between atoms: C_17  and  C_20
REMARK                            x       y       z     vdW  Elec       q    Type
REMARK                         _______ _______ _______ _____ _____    ______ ____
ROOT
ATOM      1  N   UNL     1       0.002   1.598   4.840  0.00  0.00    -0.155 NA
ATOM      2  C   UNL     1      -0.442   2.317   5.944  0.00  0.00    +0.163 A 
ATOM      3  N   UNL     1      -0.054   2.239   7.203  0.00  0.00    -0.335 N 
ATOM      4  C   UNL     1      -0.589   3.012   8.136  0.00  0.00    +0.058 A 
ATOM      5  C   UNL     1      -1.570   3.899   7.791  0.00  0.00    +0.074 A 
ATOM      6  S   UNL     1      -1.698   3.586   6.035  0.00  0.00    -0.060 S 
ATOM      7  H   UNL     1       0.728   1.523   7.494  0.00  0.00    +0.168 HD
ENDROOT
BRANCH   4   8
ATOM      8  C   UNL     1      -0.132   2.911   9.543  0.00  0.00    +0.037 A 
ATOM      9  C   UNL     1      -0.697   3.726  10.522  0.00  0.00    +0.051 A 
ATOM     10  C   UNL     1      -0.272   3.624  11.833  0.00  0.00    +0.124 A 
ATOM     11  C   UNL     1       0.724   2.721  12.173  0.00  0.00    +0.041 A 
ATOM     12  C   UNL     1       1.292   1.915  11.205  0.00  0.00    +0.042 A 
ATOM     13  C   UNL     1       0.870   2.004   9.891  0.00  0.00    +0.133 A 
ATOM     14  F   UNL     1       1.427   1.216   8.946  0.00  0.00    -0.205 F 
ATOM     15  F   UNL     1      -0.823   4.409  12.784  0.00  0.00    -0.205 F 
ENDBRANCH   4   8
BRANCH   1  16
ATOM     16  C   UNL     1      -0.535   1.827   3.626  0.00  0.00    +0.252 C 
ATOM     17  O   UNL     1      -1.407   2.660   3.496  0.00  0.00    -0.272 OA
BRANCH  16  18
ATOM     18  C   UNL     1      -0.053   1.047   2.430  0.00  0.00    +0.182 C 
BRANCH  18  22
ATOM     19  C   UNL     1      -4.527   0.734   0.403  0.00  0.00    +0.039 C 
ATOM     20  C   UNL     1      -3.114   1.299   0.248  0.00  0.00    +0.130 C 
ATOM     21  C   UNL     1      -2.265   0.891   1.455  0.00  0.00    +0.116 C 
ATOM     22  N   UNL     1      -0.888   1.371   1.265  0.00  0.00    -0.289 NA
ATOM     23  C   UNL     1      -0.310   0.819   0.031  0.00  0.00    +0.116 C 
ATOM     24  C   UNL     1      -1.178   1.228  -1.161  0.00  0.00    +0.130 C 
ATOM     25  O   UNL     1      -2.519   0.780  -0.944  0.00  0.00    -0.371 OA
ATOM     26  C   UNL     1      -1.166   2.751  -1.305  0.00  0.00    +0.039 C 
ENDBRANCH  18  22
ENDBRANCH  16  18
ENDBRANCH   1  16
TORSDOF 4
