REMARK  Name = ZINC00239322
REMARK  11 active torsions:
REMARK  status: ('A' for Active; 'I' for Inactive)
REMARK    1  A    between atoms: C_1  and  C_2
REMARK    2  A    between atoms: C_6  and  C_25
REMARK    3  A    between atoms: C_7  and  O_8
REMARK    4  A    between atoms: O_8  and  C_9
REMARK    5  A    between atoms: C_9  and  C_10
REMARK    6  A    between atoms: N_12  and  N_13
REMARK    7  A    between atoms: C_14  and  C_15
REMARK    8  A    between atoms: C_18  and  C_21
REMARK    9  A    between atoms: C_21  and  C_22
REMARK   10  A    between atoms: C_21  and  C_23
REMARK   11  A    between atoms: C_21  and  C_24
REMARK                            x       y       z     vdW  Elec       q    Type
REMARK                         _______ _______ _______ _____ _____    ______ ____
ROOT
ATOM      1  C   UNL     1       0.002  -0.004   0.002  0.00  0.00    +0.270 C 
ATOM      2  O   UNL     1       1.061  -0.596  -0.011  0.00  0.00    -0.270 OA
ATOM      3  N   UNL     1      -0.016   1.344   0.009  0.00  0.00    -0.204 N 
ATOM      4  H   UNL     1      -0.863   1.817   0.016  0.00  0.00    +0.177 HD
ENDROOT
BRANCH   3   5
ATOM      5  N   UNL     1       1.187   2.061   0.002  0.00  0.00    -0.188 NA
ATOM      6  C   UNL     1       1.170   3.358   0.009  0.00  0.00    +0.138 C 
BRANCH   6   7
ATOM      7  C   UNL     1       2.437   4.113   0.001  0.00  0.00    -0.005 A 
ATOM      8  C   UNL     1       3.658   3.434  -0.009  0.00  0.00    +0.010 A 
ATOM      9  C   UNL     1       4.839   4.146  -0.021  0.00  0.00    +0.005 A 
ATOM     10  C   UNL     1       4.816   5.530  -0.014  0.00  0.00    -0.042 A 
ATOM     11  C   UNL     1       3.611   6.209   0.001  0.00  0.00    +0.005 A 
ATOM     12  C   UNL     1       2.422   5.509   0.009  0.00  0.00    +0.010 A 
BRANCH  10  13
ATOM     13  C   UNL     1       6.111   6.301  -0.022  0.00  0.00    -0.013 C 
ATOM     14  C   UNL     1       6.192   7.175   1.232  0.00  0.00    +0.015 C 
ATOM     15  C   UNL     1       7.287   5.323  -0.038  0.00  0.00    +0.015 C 
ATOM     16  C   UNL     1       6.169   7.188  -1.267  0.00  0.00    +0.015 C 
ENDBRANCH  10  13
ENDBRANCH   6   7
ENDBRANCH   3   5
BRANCH   1  17
ATOM     17  C   UNL     1      -1.293  -0.775   0.010  0.00  0.00    +0.326 C 
BRANCH  17  18
ATOM     18  O   UNL     1      -1.012  -2.176   0.000  0.00  0.00    -0.482 OA
BRANCH  18  25
ATOM     19  C   UNL     1      -2.003  -3.007   2.512  0.00  0.00    +0.047 C 
ATOM     20  C   UNL     1      -2.609  -3.461   1.209  0.00  0.00    -0.009 A 
ATOM     21  C   UNL     1      -3.696  -4.313   1.212  0.00  0.00    +0.007 A 
ATOM     22  C   UNL     1      -4.250  -4.734   0.017  0.00  0.00    +0.001 A 
ATOM     23  C   UNL     1      -3.720  -4.300  -1.184  0.00  0.00    +0.007 A 
ATOM     24  C   UNL     1      -2.636  -3.443  -1.192  0.00  0.00    -0.009 A 
ATOM     25  C   UNL     1      -2.079  -3.019   0.006  0.00  0.00    +0.127 A 
ATOM     26  C   UNL     1      -2.058  -2.970  -2.501  0.00  0.00    +0.047 C 
ENDBRANCH  18  25
ENDBRANCH  17  18
ENDBRANCH   1  17
TORSDOF 6
