REMARK  Name = ZINC36571347
REMARK  14 active torsions:
REMARK  status: ('A' for Active; 'I' for Inactive)
REMARK    1  A    between atoms: C_1  and  C_2
REMARK    2  A    between atoms: C_2  and  C_3
REMARK    3  A    between atoms: C_3  and  C_4
REMARK    4  A    between atoms: C_4  and  N_5
REMARK    5  A    between atoms: C_6  and  C_8
REMARK    6  A    between atoms: C_8  and  C_10
REMARK    7  A    between atoms: C_8  and  N_20
REMARK    8  A    between atoms: C_12  and  N_17
REMARK    9  A    between atoms: N_20  and  C_21
REMARK   10  A    between atoms: C_21  and  C_22
REMARK   11  A    between atoms: C_22  and  C_23
REMARK   12  A    between atoms: C_24  and  C_26
REMARK   13  A    between atoms: C_30  and  O_33
REMARK   14  A    between atoms: C_31  and  O_32
REMARK                            x       y       z     vdW  Elec       q    Type
REMARK                         _______ _______ _______ _____ _____    ______ ____
ROOT
ATOM      1  C   UNL     1       3.234  -4.819  -3.321  0.00  0.00    +0.194 C 
ENDROOT
BRANCH   1   2
ATOM      2  C   UNL     1       2.640  -3.527  -3.823  0.00  0.00    +0.002 A 
ATOM      3  C   UNL     1       1.365  -3.515  -4.357  0.00  0.00    +0.040 A 
ATOM      4  C   UNL     1       0.820  -2.331  -4.817  0.00  0.00    +0.127 A 
ATOM      5  C   UNL     1       1.550  -1.159  -4.745  0.00  0.00    +0.034 A 
ATOM      6  C   UNL     1       2.824  -1.170  -4.211  0.00  0.00    +0.022 A 
ATOM      7  C   UNL     1       3.368  -2.354  -3.744  0.00  0.00    +0.047 A 
ATOM      8 CL   UNL     1       4.966  -2.368  -3.067  0.00  0.00    -0.083 Cl
BRANCH   4   9
ATOM      9  N   UNL     1      -0.545  -2.318  -5.389  0.00  0.00    +0.056 N 
ATOM     10  O   UNL     1      -1.148  -3.355  -5.539  0.00  0.00    -0.126 OA
ATOM     11  O   UNL     1      -1.058  -1.270  -5.706  0.00  0.00    -0.126 OA
ENDBRANCH   4   9
ENDBRANCH   1   2
BRANCH   1  13
ATOM     12  N   UNL     1       4.199  -3.921  -1.228  0.00  0.00    -0.313 N 
ATOM     13  C   UNL     1       3.338  -4.773  -1.819  0.00  0.00    +0.238 C 
ATOM     14  O   UNL     1       2.647  -5.503  -1.141  0.00  0.00    -0.273 OA
ATOM     15  H   UNL     1       4.752  -3.337  -1.771  0.00  0.00    +0.149 HD
BRANCH  12  16
ATOM     16  C   UNL     1       4.300  -3.877   0.232  0.00  0.00    +0.104 C 
BRANCH  16  17
ATOM     17  C   UNL     1       5.342  -2.833   0.640  0.00  0.00    +0.018 C 
BRANCH  17  19
ATOM     18  C   UNL     1       6.490  -1.743   2.573  0.00  0.00    +0.004 C 
ATOM     19  C   UNL     1       5.448  -2.787   2.166  0.00  0.00    -0.002 C 
ENDBRANCH  17  19
ENDBRANCH  16  17
ENDBRANCH  12  16
ENDBRANCH   1  13
BRANCH   1  20
ATOM     20  N   UNL     1       2.375  -5.938  -3.718  0.00  0.00    -0.282 N 
ATOM     21  C   UNL     1       2.449  -6.433  -4.969  0.00  0.00    +0.251 C 
ATOM     22  O   UNL     1       1.612  -7.224  -5.360  0.00  0.00    -0.270 OA
BRANCH  21  23
ATOM     23  C   UNL     1       3.544  -6.014  -5.865  0.00  0.00    +0.082 A 
ATOM     24  C   UNL     1       4.128  -4.753  -5.719  0.00  0.00    +0.017 A 
ATOM     25  C   UNL     1       5.150  -4.366  -6.557  0.00  0.00    +0.005 A 
ATOM     26  C   UNL     1       5.605  -5.221  -7.547  0.00  0.00    +0.049 A 
ATOM     27  C   UNL     1       5.037  -6.473  -7.705  0.00  0.00    +0.159 A 
ATOM     28  C   UNL     1       4.007  -6.881  -6.862  0.00  0.00    +0.171 A 
BRANCH  28  29
ATOM     29  O   UNL     1       3.451  -8.110  -7.010  0.00  0.00    -0.503 OA
ATOM     30  H   UNL     1       2.699  -8.132  -7.618  0.00  0.00    +0.292 HD
ENDBRANCH  28  29
BRANCH  27  31
ATOM     31  O   UNL     1       5.488  -7.308  -8.680  0.00  0.00    -0.503 OA
ATOM     32  H   UNL     1       6.209  -7.888  -8.398  0.00  0.00    +0.292 HD
ENDBRANCH  27  31
ENDBRANCH  21  23
BRANCH  20  33
ATOM     33  C   UNL     1       1.437  -6.519  -2.754  0.00  0.00    +0.109 C 
BRANCH  33  34
ATOM     34  C   UNL     1       2.117  -7.670  -2.011  0.00  0.00    +0.016 C 
ATOM     35  C   UNL     1       1.131  -8.292  -1.021  0.00  0.00    +0.005 C 
ENDBRANCH  33  34
ENDBRANCH  20  33
ENDBRANCH   1  20
TORSDOF 12
