REMARK  Name = ZINC66976130
REMARK  11 active torsions:
REMARK  status: ('A' for Active; 'I' for Inactive)
REMARK    1  A    between atoms: C_1  and  N_2
REMARK    2  A    between atoms: N_2  and  C_3
REMARK    3  A    between atoms: N_2  and  C_4
REMARK    4  A    between atoms: C_4  and  C_6
REMARK    5  A    between atoms: C_4  and  C_23
REMARK    6  A    between atoms: C_6  and  N_7
REMARK    7  A    between atoms: N_10  and  C_11
REMARK    8  A    between atoms: C_11  and  C_12
REMARK    9  A    between atoms: C_12  and  O_22
REMARK   10  A    between atoms: C_28  and  O_29
REMARK   11  A    between atoms: O_29  and  C_30
REMARK                            x       y       z     vdW  Elec       q    Type
REMARK                         _______ _______ _______ _____ _____    ______ ____
ROOT
ATOM      1  N   UNL     1      -1.258  -2.699   1.185  0.00  0.00    -0.301 N 
ATOM      2  C   UNL     1      -1.171  -4.041   1.273  0.00  0.00    +0.300 C 
ATOM      3  O   UNL     1      -1.668  -4.741   0.412  0.00  0.00    -0.253 OA
ATOM      4  N   UNL     1      -0.533  -4.608   2.317  0.00  0.00    -0.296 N 
ATOM      5  H   UNL     1      -0.861  -2.141   1.872  0.00  0.00    +0.150 HD
ATOM      6  H   UNL     1      -0.137  -4.050   3.004  0.00  0.00    +0.150 HD
ENDROOT
BRANCH   1   7
ATOM      7  C   UNL     1      -1.951  -2.083   0.050  0.00  0.00    +0.095 C 
BRANCH   7   8
ATOM      8  C   UNL     1      -2.016  -0.568   0.254  0.00  0.00    -0.017 C 
BRANCH   8   9
ATOM      9  C   UNL     1      -0.625   0.007   0.188  0.00  0.00    -0.018 A 
ATOM     10  C   UNL     1       0.096   0.209   1.350  0.00  0.00    +0.005 A 
ATOM     11  C   UNL     1       1.372   0.737   1.290  0.00  0.00    +0.000 A 
ATOM     12  C   UNL     1       1.931   1.065   0.069  0.00  0.00    +0.004 A 
ATOM     13  C   UNL     1       1.215   0.865  -1.095  0.00  0.00    +0.046 A 
ATOM     14  C   UNL     1      -0.064   0.330  -1.039  0.00  0.00    +0.122 A 
BRANCH  14  15
ATOM     15  O   UNL     1      -0.768   0.127  -2.183  0.00  0.00    -0.495 OA
ATOM     16  C   UNL     1      -0.128   0.483  -3.410  0.00  0.00    +0.277 C 
ENDBRANCH  14  15
ENDBRANCH   8   9
BRANCH   8  18
ATOM     17  C   UNL     1      -2.746   1.178   1.728  0.00  0.00    -0.096 C 
ATOM     18  N   UNL     1      -2.605  -0.276   1.567  0.00  0.00    +0.382 N 
ATOM     19  C   UNL     1      -3.927  -0.909   1.663  0.00  0.00    -0.096 C 
ATOM     20  H   UNL     1      -2.006  -0.637   2.293  0.00  0.00    -0.082 HD
ENDBRANCH   8  18
ENDBRANCH   7   8
ENDBRANCH   1   7
BRANCH   4  21
ATOM     21  C   UNL     1      -0.439  -6.067   2.413  0.00  0.00    +0.145 C 
BRANCH  21  22
ATOM     22  C   UNL     1       0.229  -6.449   3.735  0.00  0.00    +0.107 C 
ATOM     23  C   UNL     1       1.603  -5.787   3.815  0.00  0.00    +0.041 C 
ATOM     24  C   UNL     1       2.342  -6.351   5.034  0.00  0.00    +0.008 C 
ATOM     25  C   UNL     1       2.704  -7.806   4.747  0.00  0.00    +0.035 C 
ATOM     26  C   UNL     1       1.492  -8.571   4.281  0.00  0.00    -0.041 A 
ATOM     27  C   UNL     1       0.357  -7.947   3.812  0.00  0.00    -0.011 A 
ATOM     28  C   UNL     1      -0.723  -8.712   3.391  0.00  0.00    +0.007 A 
ATOM     29  C   UNL     1      -0.669 -10.089   3.441  0.00  0.00    +0.000 A 
ATOM     30  C   UNL     1       0.469 -10.715   3.915  0.00  0.00    +0.000 A 
ATOM     31  C   UNL     1       1.544  -9.958   4.332  0.00  0.00    +0.004 A 
BRANCH  22  32
ATOM     32  O   UNL     1      -0.578  -5.988   4.821  0.00  0.00    -0.382 OA
ATOM     33  H   UNL     1      -1.471  -6.360   4.833  0.00  0.00    +0.211 HD
ENDBRANCH  22  32
ENDBRANCH  21  22
ENDBRANCH   4  21
TORSDOF 8
