REMARK  Name = ZINC38596853
REMARK  8 active torsions:
REMARK  status: ('A' for Active; 'I' for Inactive)
REMARK    1  A    between atoms: C_1  and  C_2
REMARK    2  A    between atoms: C_2  and  C_3
REMARK    3  A    between atoms: N_9  and  C_10
REMARK    4  A    between atoms: C_10  and  C_11
REMARK    5  A    between atoms: N_13  and  C_14
REMARK    6  A    between atoms: C_22  and  C_24
REMARK    7  A    between atoms: C_24  and  O_26
REMARK    8  A    between atoms: O_26  and  C_27
REMARK                            x       y       z     vdW  Elec       q    Type
REMARK                         _______ _______ _______ _____ _____    ______ ____
ROOT
ATOM      1  C   UNL     1       6.035   3.381  -0.765  0.00  0.00    +0.053 C 
ATOM      2  C   UNL     1       6.963   4.324  -0.358  0.00  0.00    +0.019 A 
ATOM      3  C   UNL     1       6.925   5.738  -0.299  0.00  0.00    +0.031 A 
ATOM      4  C   UNL     1       8.006   6.421   0.154  0.00  0.00    +0.042 A 
ATOM      5  C   UNL     1       9.168   5.762   0.568  0.00  0.00    +0.022 A 
ATOM      6  C   UNL     1       9.275   4.412   0.539  0.00  0.00    +0.027 A 
ATOM      7  C   UNL     1       8.185   3.627   0.079  0.00  0.00    +0.045 A 
ATOM      8  N   UNL     1       8.040   2.323  -0.045  0.00  0.00    -0.367 N 
ATOM      9  C   UNL     1       6.702   2.038  -0.571  0.00  0.00    +0.234 C 
ATOM     10 CL   UNL     1       7.946   8.155   0.220  0.00  0.00    -0.084 Cl
ATOM     11  H   UNL     1       8.711   1.659   0.180  0.00  0.00    +0.161 HD
ENDROOT
BRANCH   1  14
ATOM     12  C   UNL     1       3.923   2.588  -1.415  0.00  0.00    +0.200 C 
ATOM     13  O   UNL     1       4.265   1.460  -1.135  0.00  0.00    -0.278 OA
ATOM     14  N   UNL     1       4.779   3.615  -1.238  0.00  0.00    -0.288 N 
ATOM     15  H   UNL     1       4.500   4.520  -1.447  0.00  0.00    +0.155 HD
BRANCH  12  16
ATOM     16  C   UNL     1       2.542   2.844  -1.961  0.00  0.00    +0.019 C 
BRANCH  16  22
ATOM     17  C   UNL     1       0.411   1.842  -2.408  0.00  0.00    -0.068 C 
ATOM     18  C   UNL     1      -0.373   0.528  -2.431  0.00  0.00    -0.015 C 
ATOM     19  C   UNL     1       0.244  -0.410  -3.473  0.00  0.00    -0.003 C 
ATOM     20  C   UNL     1       1.724  -0.623  -3.141  0.00  0.00    -0.019 C 
ATOM     21  C   UNL     1       2.430   0.734  -3.092  0.00  0.00    -0.078 C 
ATOM     22  N   UNL     1       1.811   1.573  -2.059  0.00  0.00    +0.387 N 
ATOM     23  H   UNL     1       1.850   1.096  -1.171  0.00  0.00    -0.081 HD
BRANCH  17  25
ATOM     24  C   UNL     1      -1.590   3.223  -1.836  0.00  0.00    +0.002 C 
ATOM     25  C   UNL     1      -0.202   2.782  -1.369  0.00  0.00    -0.019 C 
ENDBRANCH  17  25
ENDBRANCH  16  22
ENDBRANCH  12  16
ENDBRANCH   1  14
BRANCH   9  26
ATOM     26  C   UNL     1       6.808   1.315  -1.889  0.00  0.00    +0.335 C 
ATOM     27  O   UNL     1       7.689   1.601  -2.665  0.00  0.00    -0.248 OA
BRANCH  26  28
ATOM     28  O   UNL     1       5.924   0.355  -2.201  0.00  0.00    -0.466 OA
ATOM     29  C   UNL     1       6.085  -0.288  -3.467  0.00  0.00    +0.280 C 
ENDBRANCH  26  28
ENDBRANCH   9  26
TORSDOF 6
