REMARK  Name = ZINC38001645
REMARK  4 active torsions:
REMARK  status: ('A' for Active; 'I' for Inactive)
REMARK    1  A    between atoms: C_1  and  C_2
REMARK    2  A    between atoms: C_2  and  C_4
REMARK    3  A    between atoms: C_2  and  N_10
REMARK    4  A    between atoms: N_10  and  C_11
REMARK                            x       y       z     vdW  Elec       q    Type
REMARK                         _______ _______ _______ _____ _____    ______ ____
ROOT
ATOM      1  N   UNL     1       0.688  -0.476  -1.203  0.00  0.00    -0.335 N 
ATOM      2  H   UNL     1       0.175  -0.710  -1.993  0.00  0.00    +0.147 HD
ENDROOT
BRANCH   1   3
ATOM      3  C   UNL     1       2.077  -0.591  -1.215  0.00  0.00    +0.054 A 
ATOM      4  C   UNL     1       2.810  -0.266  -0.095  0.00  0.00    +0.025 A 
ATOM      5  C   UNL     1       4.198  -0.376  -0.093  0.00  0.00    +0.003 A 
ATOM      6  C   UNL     1       4.868  -0.807  -1.198  0.00  0.00    +0.010 A 
ATOM      7  C   UNL     1       4.156  -1.147  -2.360  0.00  0.00    +0.002 A 
ATOM      8  C   UNL     1       2.744  -1.046  -2.374  0.00  0.00    +0.092 A 
ATOM      9  N   UNL     1       2.064  -1.374  -3.476  0.00  0.00    -0.253 NA
ATOM     10  C   UNL     1       2.677  -1.796  -4.555  0.00  0.00    +0.111 A 
ATOM     11  C   UNL     1       4.063  -1.925  -4.607  0.00  0.00    +0.020 A 
ATOM     12  C   UNL     1       4.819  -1.596  -3.518  0.00  0.00    +0.011 A 
ENDBRANCH   1   3
BRANCH   1  14
ATOM     13  C   UNL     1      -0.019   1.526   0.010  0.00  0.00    +0.033 C 
ATOM     14  C   UNL     1       0.002  -0.004   0.002  0.00  0.00    +0.104 C 
BRANCH  14  15
ATOM     15  C   UNL     1      -1.412  -0.526   0.013  0.00  0.00    +0.011 A 
ATOM     16  C   UNL     1      -2.141  -0.993   1.055  0.00  0.00    +0.014 A 
ATOM     17  C   UNL     1      -3.434  -1.425   0.828  0.00  0.00    +0.023 A 
ATOM     18  C   UNL     1      -3.935  -1.368  -0.431  0.00  0.00    +0.055 A 
ATOM     19  S   UNL     1      -2.563  -0.681  -1.343  0.00  0.00    -0.085 S 
ATOM     20 BR   UNL     1      -5.645  -1.878  -1.057  0.00  0.00    -0.043 Br
ENDBRANCH  14  15
ENDBRANCH   1  14
TORSDOF 3
