REMARK  Name = ZINC04476853
REMARK  6 active torsions:
REMARK  status: ('A' for Active; 'I' for Inactive)
REMARK    1  A    between atoms: C_1  and  C_2
REMARK    2  A    between atoms: C_5  and  C_8
REMARK    3  A    between atoms: C_8  and  C_28
REMARK    4  A    between atoms: N_11  and  C_15
REMARK    5  A    between atoms: C_15  and  C_16
REMARK    6  A    between atoms: N_18  and  C_19
REMARK                            x       y       z     vdW  Elec       q    Type
REMARK                         _______ _______ _______ _____ _____    ______ ____
ROOT
ATOM      1  C   UNL     1       0.063  -4.272  -0.021  0.00  0.00    +0.135 C 
ATOM      2  C   UNL     1       0.881  -4.800   1.141  0.00  0.00    +0.251 C 
ATOM      3  O   UNL     1       0.669  -4.631   2.323  0.00  0.00    -0.272 OA
ATOM      4  N   UNL     1       1.892  -5.498   0.587  0.00  0.00    -0.215 N 
ATOM      5  C   UNL     1       1.828  -5.484  -0.749  0.00  0.00    +0.310 C 
ATOM      6  O   UNL     1       2.630  -6.044  -1.470  0.00  0.00    -0.252 OA
ATOM      7  N   UNL     1       0.775  -4.781  -1.205  0.00  0.00    -0.281 N 
ATOM      8  C   UNL     1      -1.364  -4.822   0.027  0.00  0.00    +0.047 C 
ATOM      9  H   UNL     1       0.532  -4.638  -2.133  0.00  0.00    +0.152 HD
ENDROOT
BRANCH   1  14
ATOM     10  C   UNL     1       0.005   1.506  -0.008  0.00  0.00    +0.044 C 
ATOM     11  C   UNL     1       0.020  -0.001  -0.011  0.00  0.00    -0.050 A 
ATOM     12  C   UNL     1       0.016  -0.689  -1.210  0.00  0.00    +0.004 A 
ATOM     13  C   UNL     1       0.030  -2.072  -1.213  0.00  0.00    +0.006 A 
ATOM     14  C   UNL     1       0.049  -2.765  -0.017  0.00  0.00    -0.015 A 
ATOM     15  C   UNL     1       0.054  -2.076   1.181  0.00  0.00    +0.006 A 
ATOM     16  C   UNL     1       0.044  -0.694   1.184  0.00  0.00    +0.004 A 
ENDBRANCH   1  14
BRANCH   4  17
ATOM     17  C   UNL     1       2.934  -6.186   1.354  0.00  0.00    +0.214 C 
BRANCH  17  18
ATOM     18  C   UNL     1       2.495  -7.598   1.644  0.00  0.00    +0.235 C 
ATOM     19  O   UNL     1       1.418  -7.991   1.249  0.00  0.00    -0.274 OA
ATOM     20  N   UNL     1       3.299  -8.424   2.342  0.00  0.00    -0.284 N 
ATOM     21  H   UNL     1       4.188  -8.132   2.599  0.00  0.00    +0.155 HD
BRANCH  20  22
ATOM     22  C   UNL     1       2.853  -9.702   2.695  0.00  0.00    +0.034 A 
ATOM     23  C   UNL     1       2.030 -10.415   1.833  0.00  0.00    +0.023 A 
ATOM     24  C   UNL     1       1.593 -11.675   2.186  0.00  0.00    +0.006 A 
ATOM     25  C   UNL     1       1.971 -12.233   3.397  0.00  0.00    -0.044 A 
ATOM     26  C   UNL     1       2.790 -11.525   4.257  0.00  0.00    -0.042 A 
ATOM     27  C   UNL     1       3.235 -10.263   3.905  0.00  0.00    +0.027 A 
ATOM     28  C   UNL     1       3.055 -12.345   5.502  0.00  0.00    +0.036 C 
ATOM     29  C   UNL     1       1.965 -13.438   5.505  0.00  0.00    +0.009 C 
ATOM     30  C   UNL     1       1.630 -13.577   4.005  0.00  0.00    +0.036 C 
ENDBRANCH  20  22
ENDBRANCH  17  18
ENDBRANCH   4  17
TORSDOF 4
