REMARK  Name = ZINC42928565
REMARK  9 active torsions:
REMARK  status: ('A' for Active; 'I' for Inactive)
REMARK    1  A    between atoms: C_1  and  C_2
REMARK    2  A    between atoms: C_2  and  C_4
REMARK    3  A    between atoms: C_2  and  N_12
REMARK    4  A    between atoms: C_4  and  C_5
REMARK    5  A    between atoms: C_5  and  C_6
REMARK    6  A    between atoms: N_15  and  C_16
REMARK    7  A    between atoms: N_15  and  C_24
REMARK    8  A    between atoms: C_16  and  C_17
REMARK    9  A    between atoms: C_21  and  O_23
REMARK                            x       y       z     vdW  Elec       q    Type
REMARK                         _______ _______ _______ _____ _____    ______ ____
ROOT
ATOM      1  N   UNL     1      -1.371  -0.688   0.064  0.00  0.00    -0.297 N 
ATOM      2  C   UNL     1      -2.023  -0.861  -1.103  0.00  0.00    +0.303 C 
ATOM      3  O   UNL     1      -1.426  -0.744  -2.156  0.00  0.00    -0.253 OA
ATOM      4  N   UNL     1      -3.337  -1.164  -1.103  0.00  0.00    -0.278 N 
ATOM      5  H   UNL     1      -1.861  -0.709   0.900  0.00  0.00    +0.151 HD
ENDROOT
BRANCH   4   6
ATOM      6  C   UNL     1      -4.080  -1.197   0.158  0.00  0.00    +0.078 C 
ATOM      7  C   UNL     1      -5.540  -1.652   0.106  0.00  0.00    +0.024 C 
ATOM      8  C   UNL     1      -5.207  -0.178   0.341  0.00  0.00    +0.024 C 
ENDBRANCH   4   6
BRANCH   1  10
ATOM      9  C   UNL     1       0.369   1.018  -0.146  0.00  0.00    +0.028 C 
ATOM     10  C   UNL     1       0.077  -0.469   0.068  0.00  0.00    +0.072 C 
BRANCH  10  11
ATOM     11  C   UNL     1       0.656  -0.914   1.413  0.00  0.00    +0.026 C 
BRANCH  11  12
ATOM     12  C   UNL     1       0.475  -2.425   1.571  0.00  0.00    +0.037 C 
BRANCH  12  13
ATOM     13  C   UNL     1       1.045  -2.863   2.896  0.00  0.00    -0.047 A 
ATOM     14  C   UNL     1       2.372  -3.240   2.986  0.00  0.00    +0.003 A 
ATOM     15  C   UNL     1       2.895  -3.642   4.201  0.00  0.00    +0.000 A 
ATOM     16  C   UNL     1       2.092  -3.666   5.325  0.00  0.00    +0.000 A 
ATOM     17  C   UNL     1       0.765  -3.288   5.235  0.00  0.00    +0.000 A 
ATOM     18  C   UNL     1       0.243  -2.882   4.021  0.00  0.00    +0.003 A 
ENDBRANCH  12  13
ENDBRANCH  11  12
ENDBRANCH  10  11
ENDBRANCH   1  10
BRANCH   4  19
ATOM     19  C   UNL     1      -4.020  -1.460  -2.365  0.00  0.00    +0.144 C 
BRANCH  19  20
ATOM     20  C   UNL     1      -3.826  -2.913  -2.712  0.00  0.00    -0.027 A 
ATOM     21  C   UNL     1      -2.713  -3.310  -3.429  0.00  0.00    +0.005 A 
ATOM     22  C   UNL     1      -2.532  -4.643  -3.750  0.00  0.00    +0.004 A 
ATOM     23  C   UNL     1      -3.465  -5.582  -3.353  0.00  0.00    +0.045 A 
ATOM     24  C   UNL     1      -4.583  -5.187  -2.634  0.00  0.00    +0.117 A 
ATOM     25  C   UNL     1      -4.759  -3.849  -2.308  0.00  0.00    +0.050 A 
BRANCH  24  26
ATOM     26  O   UNL     1      -5.502  -6.109  -2.243  0.00  0.00    -0.507 OA
ATOM     27  H   UNL     1      -5.325  -6.497  -1.375  0.00  0.00    +0.292 HD
ENDBRANCH  24  26
ENDBRANCH  19  20
ENDBRANCH   4  19
TORSDOF 8
