REMARK  Name = ZINC44137760
REMARK  5 active torsions:
REMARK  status: ('A' for Active; 'I' for Inactive)
REMARK    1  A    between atoms: C_1  and  C_2
REMARK    2  A    between atoms: C_2  and  C_3
REMARK    3  A    between atoms: C_2  and  C_4
REMARK    4  A    between atoms: C_2  and  O_5
REMARK    5  A    between atoms: O_5  and  C_6
REMARK                            x       y       z     vdW  Elec       q    Type
REMARK                         _______ _______ _______ _____ _____    ______ ____
ROOT
ATOM      1  C   UNL     1       1.952  -0.085  -1.337  0.00  0.00    +0.403 C 
ATOM      2  O   UNL     1       2.488   0.619  -0.503  0.00  0.00    -0.226 OA
ATOM      3  N   UNL     1       2.641  -0.485  -2.424  0.00  0.00    -0.267 N 
ATOM      4  C   UNL     1       2.004  -1.331  -3.443  0.00  0.00    +0.115 C 
ATOM      5  C   UNL     1       2.873  -2.574  -3.664  0.00  0.00    +0.067 C 
ATOM      6  C   UNL     1       4.299  -2.139  -4.007  0.00  0.00    +0.114 C 
ATOM      7  C   UNL     1       5.164  -3.377  -4.266  0.00  0.00    +0.053 C 
ATOM      8  C   UNL     1       4.493  -4.213  -5.360  0.00  0.00    +0.043 C 
ATOM      9  C   UNL     1       4.105  -3.323  -6.514  0.00  0.00    -0.005 A 
ATOM     10  C   UNL     1       3.835  -3.905  -7.741  0.00  0.00    +0.021 A 
ATOM     11  C   UNL     1       3.472  -3.122  -8.819  0.00  0.00    +0.014 A 
ATOM     12  C   UNL     1       3.377  -1.749  -8.676  0.00  0.00    +0.018 A 
ATOM     13  C   UNL     1       3.647  -1.164  -7.456  0.00  0.00    +0.047 A 
ATOM     14  C   UNL     1       4.016  -1.950  -6.368  0.00  0.00    +0.125 A 
ATOM     15  O   UNL     1       4.287  -1.336  -5.187  0.00  0.00    -0.485 OA
ATOM     16  I   UNL     1       3.067  -4.011 -10.672  0.00  0.00    -0.044 I 
ATOM     17  C   UNL     1       4.888  -1.339  -2.844  0.00  0.00    +0.067 C 
ATOM     18  C   UNL     1       4.040  -0.078  -2.615  0.00  0.00    +0.115 C 
ENDROOT
BRANCH   1  19
ATOM     19  O   UNL     1       0.671  -0.465  -1.174  0.00  0.00    -0.445 OA
BRANCH  19  21
ATOM     20  C   UNL     1      -0.019   1.526   0.010  0.00  0.00    +0.055 C 
ATOM     21  C   UNL     1       0.002  -0.004   0.002  0.00  0.00    +0.107 C 
ATOM     22  C   UNL     1       0.742  -0.511   1.242  0.00  0.00    +0.055 C 
ATOM     23  C   UNL     1      -1.433  -0.534   0.013  0.00  0.00    +0.055 C 
ENDBRANCH  19  21
ENDBRANCH   1  19
TORSDOF 2
