REMARK  Name = ZINC12104336
REMARK  5 active torsions:
REMARK  status: ('A' for Active; 'I' for Inactive)
REMARK    1  A    between atoms: C_1  and  C_2
REMARK    2  A    between atoms: C_13  and  C_15
REMARK    3  A    between atoms: C_15  and  S_16
REMARK    4  A    between atoms: S_16  and  C_17
REMARK    5  A    between atoms: C_21  and  C_23
REMARK                            x       y       z     vdW  Elec       q    Type
REMARK                         _______ _______ _______ _____ _____    ______ ____
ROOT
ATOM      1  C   UNL     1       1.929  -2.289   2.249  0.00  0.00    +0.028 C 
ATOM      2  C   UNL     1       0.662  -1.923   1.474  0.00  0.00    +0.079 C 
ATOM      3  C   UNL     1       0.719  -2.533   0.067  0.00  0.00    +0.027 C 
ATOM      4  C   UNL     1      -0.585  -2.213  -0.663  0.00  0.00    +0.039 C 
ATOM      5  C   UNL     1      -0.881  -0.739  -0.593  0.00  0.00    -0.026 A 
ATOM      6  C   UNL     1      -1.744  -0.183  -1.524  0.00  0.00    +0.005 A 
ATOM      7  C   UNL     1      -2.037   1.166  -1.484  0.00  0.00    +0.000 A 
ATOM      8  C   UNL     1      -1.471   1.972  -0.513  0.00  0.00    +0.002 A 
ATOM      9  C   UNL     1      -0.609   1.426   0.418  0.00  0.00    +0.024 A 
ATOM     10  C   UNL     1      -0.311   0.069   0.378  0.00  0.00    +0.040 A 
ATOM     11  N   UNL     1       0.572  -0.464   1.328  0.00  0.00    -0.268 N 
ATOM     12  C   UNL     1       1.327   0.349   2.094  0.00  0.00    +0.230 C 
ATOM     13  O   UNL     1       1.363   1.539   1.863  0.00  0.00    -0.274 OA
ENDROOT
BRANCH  12  14
ATOM     14  C   UNL     1       2.127  -0.221   3.236  0.00  0.00    +0.173 C 
BRANCH  14  15
ATOM     15  S   UNL     1       2.839   1.133   4.211  0.00  0.00    -0.077 S 
BRANCH  15  16
ATOM     16  C   UNL     1       3.732   0.314   5.490  0.00  0.00    +0.185 A 
ATOM     17  N   UNL     1       4.434   0.910   6.478  0.00  0.00    -0.254 N 
ATOM     18  H   UNL     1       4.544   1.864   6.619  0.00  0.00    +0.191 HD
ATOM     19  N   UNL     1       4.974  -0.124   7.259  0.00  0.00    -0.157 NA
ATOM     20  C   UNL     1       4.585  -1.250   6.723  0.00  0.00    +0.155 A 
ATOM     21  N   UNL     1       3.829  -0.988   5.657  0.00  0.00    -0.205 NA
BRANCH  20  22
ATOM     22  C   UNL     1       4.930  -2.625   7.234  0.00  0.00    +0.059 C 
ATOM     23  C   UNL     1       4.470  -2.776   8.698  0.00  0.00    +0.011 C 
ATOM     24  C   UNL     1       5.583  -3.627   9.360  0.00  0.00    +0.001 C 
ATOM     25  C   UNL     1       6.871  -3.084   8.692  0.00  0.00    +0.001 C 
ATOM     26  C   UNL     1       6.456  -2.821   7.230  0.00  0.00    +0.011 C 
ENDBRANCH  20  22
ENDBRANCH  15  16
ENDBRANCH  14  15
ENDBRANCH  12  14
TORSDOF 4
