REMARK  Name = ZINC01642460
REMARK  3 active torsions:
REMARK  status: ('A' for Active; 'I' for Inactive)
REMARK    1  A    between atoms: C_3  and  C_9
REMARK    2  A    between atoms: C_6  and  C_7
REMARK    3  A    between atoms: C_11  and  N_21
REMARK                            x       y       z     vdW  Elec       q    Type
REMARK                         _______ _______ _______ _____ _____    ______ ____
ROOT
ATOM      1  C   UNL     1       3.437   1.792  -0.727  0.00  0.00    +0.257 C 
ATOM      2  C   UNL     1       3.531   3.245  -0.346  0.00  0.00    +0.149 C 
ATOM      3  C   UNL     1       2.434   3.916   0.000  0.00  0.00    +0.044 C 
ATOM      4  C   UNL     1       1.147   3.187   0.008  0.00  0.00    +0.020 A 
ATOM      5  C   UNL     1      -0.069   3.860   0.023  0.00  0.00    +0.031 A 
ATOM      6  C   UNL     1      -1.248   3.138   0.029  0.00  0.00    +0.042 A 
ATOM      7  C   UNL     1      -1.219   1.753   0.017  0.00  0.00    +0.023 A 
ATOM      8  C   UNL     1      -0.013   1.076   0.008  0.00  0.00    +0.048 A 
ATOM      9  C   UNL     1       1.174   1.785   0.000  0.00  0.00    +0.129 A 
ATOM     10  O   UNL     1       2.376   1.153  -0.015  0.00  0.00    -0.477 OA
ATOM     11 CL   UNL     1      -2.772   3.970   0.047  0.00  0.00    -0.084 Cl
ENDROOT
BRANCH   1  14
ATOM     12  C   UNL     1       3.991   1.299  -4.427  0.00  0.00    +0.019 A 
ATOM     13  C   UNL     1       4.222   1.402  -3.071  0.00  0.00    +0.009 A 
ATOM     14  C   UNL     1       3.177   1.682  -2.208  0.00  0.00    -0.001 A 
ATOM     15  C   UNL     1       1.895   1.856  -2.697  0.00  0.00    +0.009 A 
ATOM     16  C   UNL     1       1.651   1.762  -4.051  0.00  0.00    +0.019 A 
ATOM     17  C   UNL     1       2.700   1.479  -4.928  0.00  0.00    +0.052 A 
BRANCH  17  18
ATOM     18  C   UNL     1       2.454   1.373  -6.335  0.00  0.00    +0.099 C 
ATOM     19  N   UNL     1       2.258   1.290  -7.451  0.00  0.00    -0.191 NA
ENDBRANCH  17  18
ENDBRANCH   1  14
BRANCH   2  20
ATOM     20  N   UNL     1       4.843   3.930  -0.356  0.00  0.00    +0.056 N 
ATOM     21  O   UNL     1       4.920   5.106  -0.048  0.00  0.00    -0.126 OA
ATOM     22  O   UNL     1       5.847   3.317  -0.672  0.00  0.00    -0.126 OA
ENDBRANCH   2  20
TORSDOF 3
