REMARK  Name = ZINC12898692
REMARK  9 active torsions:
REMARK  status: ('A' for Active; 'I' for Inactive)
REMARK    1  A    between atoms: C_1  and  C_2
REMARK    2  A    between atoms: N_5  and  S_11
REMARK    3  A    between atoms: C_7  and  C_10
REMARK    4  A    between atoms: S_11  and  C_14
REMARK    5  A    between atoms: C_17  and  N_20
REMARK    6  A    between atoms: C_21  and  C_23
REMARK    7  A    between atoms: C_23  and  C_24
REMARK    8  A    between atoms: C_24  and  C_25
REMARK    9  A    between atoms: C_25  and  N_26
REMARK                            x       y       z     vdW  Elec       q    Type
REMARK                         _______ _______ _______ _____ _____    ______ ____
ROOT
ATOM      1  N   UNL     1       1.385  -4.358  -5.319  0.00  0.00    -0.285 N 
ATOM      2  C   UNL     1       2.260  -5.376  -5.199  0.00  0.00    +0.217 C 
ATOM      3  O   UNL     1       2.248  -6.073  -4.206  0.00  0.00    -0.275 OA
ATOM      4  H   UNL     1       1.343  -3.849  -6.144  0.00  0.00    +0.155 HD
ENDROOT
BRANCH   1   8
ATOM      5  C   UNL     1      -1.139  -3.395  -2.147  0.00  0.00    +0.106 A 
ATOM      6  C   UNL     1       0.132  -3.879  -1.895  0.00  0.00    +0.030 A 
ATOM      7  C   UNL     1       0.971  -4.199  -2.945  0.00  0.00    +0.025 A 
ATOM      8  C   UNL     1       0.537  -4.035  -4.253  0.00  0.00    +0.033 A 
ATOM      9  C   UNL     1      -0.740  -3.549  -4.503  0.00  0.00    +0.025 A 
ATOM     10  C   UNL     1      -1.575  -3.235  -3.449  0.00  0.00    +0.030 A 
BRANCH   5  11
ATOM     11  S   UNL     1      -2.206  -2.988  -0.805  0.00  0.00    +0.061 S 
ATOM     12  O   UNL     1      -3.146  -2.047  -1.305  0.00  0.00    -0.153 OA
ATOM     13  O   UNL     1      -1.369  -2.711   0.309  0.00  0.00    -0.153 OA
BRANCH  11  17
ATOM     14  C   UNL     1      -2.261  -7.760   1.015  0.00  0.00    +0.039 C 
ATOM     15  C   UNL     1      -2.600  -6.719  -0.053  0.00  0.00    +0.131 C 
ATOM     16  C   UNL     1      -2.551  -5.317   0.564  0.00  0.00    +0.140 C 
ATOM     17  N   UNL     1      -3.060  -4.355  -0.427  0.00  0.00    -0.172 NA
ATOM     18  C   UNL     1      -4.351  -4.644  -1.071  0.00  0.00    +0.140 C 
ATOM     19  C   UNL     1      -4.312  -6.079  -1.609  0.00  0.00    +0.131 C 
ATOM     20  O   UNL     1      -3.914  -6.965  -0.560  0.00  0.00    -0.371 OA
ATOM     21  C   UNL     1      -5.702  -6.474  -2.112  0.00  0.00    +0.039 C 
ENDBRANCH  11  17
ENDBRANCH   5  11
ENDBRANCH   1   8
BRANCH   2  22
ATOM     22  C   UNL     1       3.254  -5.649  -6.299  0.00  0.00    +0.097 C 
BRANCH  22  23
ATOM     23  C   UNL     1       4.122  -6.849  -5.915  0.00  0.00    +0.029 C 
BRANCH  23  24
ATOM     24  C   UNL     1       5.131  -7.126  -7.032  0.00  0.00    +0.118 C 
BRANCH  24  25
ATOM     25  N   UNL     1       5.963  -8.274  -6.664  0.00  0.00    -0.224 N 
ATOM     26  C   UNL     1       7.122  -8.184  -5.979  0.00  0.00    +0.246 C 
ATOM     27  O   UNL     1       7.655  -7.177  -5.565  0.00  0.00    -0.273 OA
ATOM     28  C   UNL     1       7.613  -9.602  -5.837  0.00  0.00    +0.113 C 
ATOM     29  C   UNL     1       7.742  -9.996  -4.360  0.00  0.00    +0.035 C 
ATOM     30  C   UNL     1       8.979 -10.932  -4.329  0.00  0.00    +0.003 C 
ATOM     31  C   UNL     1       9.930 -10.280  -5.364  0.00  0.00    +0.003 C 
ATOM     32  C   UNL     1       8.989  -9.782  -6.483  0.00  0.00    +0.035 C 
ATOM     33  N   UNL     1       6.596 -10.411  -6.513  0.00  0.00    -0.285 N 
ATOM     34  C   UNL     1       5.664  -9.546  -6.962  0.00  0.00    +0.309 C 
ATOM     35  O   UNL     1       4.668  -9.882  -7.571  0.00  0.00    -0.252 OA
ATOM     36  H   UNL     1       6.592 -11.375  -6.614  0.00  0.00    +0.151 HD
ENDBRANCH  24  25
ENDBRANCH  23  24
ENDBRANCH  22  23
ENDBRANCH   2  22
TORSDOF 7
