REMARK  Name = ZINC01825543
REMARK  9 active torsions:
REMARK  status: ('A' for Active; 'I' for Inactive)
REMARK    1  A    between atoms: C_1  and  C_2
REMARK    2  A    between atoms: C_5  and  C_8
REMARK    3  A    between atoms: C_11  and  S_19
REMARK    4  A    between atoms: N_12  and  C_13
REMARK    5  A    between atoms: S_19  and  C_20
REMARK    6  A    between atoms: C_20  and  C_21
REMARK    7  A    between atoms: N_23  and  N_24
REMARK    8  A    between atoms: N_24  and  C_25
REMARK    9  A    between atoms: C_25  and  C_27
REMARK                            x       y       z     vdW  Elec       q    Type
REMARK                         _______ _______ _______ _____ _____    ______ ____
ROOT
ATOM      1  C   UNL     1      -0.150  -4.257  -0.048  0.00  0.00    +0.169 A 
ATOM      2  N   UNL     1      -0.343  -5.042  -1.082  0.00  0.00    -0.128 NA
ATOM      3  N   UNL     1      -0.223  -6.272  -0.730  0.00  0.00    -0.122 NA
ATOM      4  C   UNL     1       0.055  -6.351   0.552  0.00  0.00    +0.197 A 
ATOM      5  N   UNL     1       0.116  -5.071   1.032  0.00  0.00    -0.270 N 
ENDROOT
BRANCH   1  10
ATOM      6  C   UNL     1      -0.357   1.493  -0.030  0.00  0.00    +0.044 C 
ATOM      7  C   UNL     1      -0.303  -0.013  -0.035  0.00  0.00    -0.050 A 
ATOM      8  C   UNL     1      -0.223  -0.695  -1.236  0.00  0.00    +0.004 A 
ATOM      9  C   UNL     1      -0.173  -2.074  -1.247  0.00  0.00    +0.012 A 
ATOM     10  C   UNL     1      -0.203  -2.780  -0.043  0.00  0.00    +0.020 A 
ATOM     11  C   UNL     1      -0.283  -2.085   1.165  0.00  0.00    +0.012 A 
ATOM     12  C   UNL     1      -0.328  -0.706   1.162  0.00  0.00    +0.004 A 
ENDBRANCH   1  10
BRANCH   5  13
ATOM     13  C   UNL     1       0.390  -4.671   2.347  0.00  0.00    +0.051 A 
ATOM     14  C   UNL     1       1.538  -3.942   2.628  0.00  0.00    +0.026 A 
ATOM     15  C   UNL     1       1.805  -3.550   3.925  0.00  0.00    +0.002 A 
ATOM     16  C   UNL     1       0.930  -3.882   4.944  0.00  0.00    +0.000 A 
ATOM     17  C   UNL     1      -0.214  -4.608   4.667  0.00  0.00    +0.002 A 
ATOM     18  C   UNL     1      -0.489  -4.998   3.371  0.00  0.00    +0.026 A 
ENDBRANCH   5  13
BRANCH   4  19
ATOM     19  S   UNL     1       0.307  -7.828   1.479  0.00  0.00    -0.076 S 
BRANCH  19  20
ATOM     20  C   UNL     1       0.094  -9.153   0.258  0.00  0.00    +0.174 C 
BRANCH  20  21
ATOM     21  C   UNL     1       0.286 -10.489   0.929  0.00  0.00    +0.239 C 
ATOM     22  O   UNL     1       0.542 -10.542   2.113  0.00  0.00    -0.273 OA
ATOM     23  N   UNL     1       0.174 -11.625   0.212  0.00  0.00    -0.236 N 
ATOM     24  H   UNL     1      -0.030 -11.582  -0.735  0.00  0.00    +0.173 HD
BRANCH  23  25
ATOM     25  N   UNL     1       0.353 -12.867   0.836  0.00  0.00    -0.264 N 
ATOM     26  H   UNL     1       0.557 -12.909   1.783  0.00  0.00    +0.170 HD
BRANCH  25  27
ATOM     27  C   UNL     1       0.237 -14.043   0.094  0.00  0.00    +0.046 C 
ATOM     28  C   UNL     1      -0.044 -13.985  -1.209  0.00  0.00    +0.035 C 
BRANCH  27  29
ATOM     29  C   UNL     1       0.426 -15.355   0.752  0.00  0.00    +0.015 A 
ATOM     30  C   UNL     1       1.388 -16.246   0.276  0.00  0.00    +0.012 A 
ATOM     31  C   UNL     1       1.560 -17.467   0.894  0.00  0.00    +0.021 A 
ATOM     32  C   UNL     1       0.780 -17.811   1.985  0.00  0.00    +0.042 A 
ATOM     33  C   UNL     1      -0.177 -16.932   2.463  0.00  0.00    +0.040 A 
ATOM     34  C   UNL     1      -0.354 -15.704   1.856  0.00  0.00    +0.051 A 
ATOM     35 CL   UNL     1      -1.550 -14.599   2.460  0.00  0.00    -0.083 Cl
ATOM     36 CL   UNL     1       1.002 -19.350   2.757  0.00  0.00    -0.083 Cl
ENDBRANCH  27  29
ENDBRANCH  25  27
ENDBRANCH  23  25
ENDBRANCH  20  21
ENDBRANCH  19  20
ENDBRANCH   4  19
TORSDOF 8
