REMARK  Name = ZINC22110011
REMARK  9 active torsions:
REMARK  status: ('A' for Active; 'I' for Inactive)
REMARK    1  A    between atoms: C_1  and  O_2
REMARK    2  A    between atoms: O_2  and  C_3
REMARK    3  A    between atoms: C_5  and  C_18
REMARK    4  A    between atoms: C_8  and  O_9
REMARK    5  A    between atoms: O_9  and  C_10
REMARK    6  A    between atoms: C_10  and  C_11
REMARK    7  A    between atoms: C_18  and  N_19
REMARK    8  A    between atoms: N_19  and  N_20
REMARK    9  A    between atoms: C_21  and  C_26
REMARK                            x       y       z     vdW  Elec       q    Type
REMARK                         _______ _______ _______ _____ _____    ______ ____
ROOT
ATOM      1  C   UNL     1       1.088  -0.767  -1.199  0.00  0.00    +0.163 A 
ATOM      2  C   UNL     1       2.309  -0.127  -1.056  0.00  0.00    +0.054 A 
ATOM      3  C   UNL     1       2.357   1.174  -0.590  0.00  0.00    -0.024 A 
ATOM      4  C   UNL     1       1.189   1.838  -0.264  0.00  0.00    +0.024 A 
ATOM      5  C   UNL     1      -0.032   1.204  -0.403  0.00  0.00    +0.063 A 
ATOM      6  C   UNL     1      -0.087  -0.100  -0.871  0.00  0.00    +0.176 A 
ATOM      7 BR   UNL     1      -1.628   2.119   0.036  0.00  0.00    -0.046 Br
ENDROOT
BRANCH   1   9
ATOM      8  C   UNL     1       2.286  -2.670  -1.975  0.00  0.00    +0.277 C 
ATOM      9  O   UNL     1       1.040  -2.046  -1.659  0.00  0.00    -0.491 OA
ENDBRANCH   1   9
BRANCH   6  10
ATOM     10  O   UNL     1      -1.287  -0.724  -1.010  0.00  0.00    -0.483 OA
BRANCH  10  11
ATOM     11  C   UNL     1      -1.947  -0.590  -2.270  0.00  0.00    +0.264 C 
BRANCH  11  12
ATOM     12  C   UNL     1      -3.252  -1.343  -2.237  0.00  0.00    -0.010 A 
ATOM     13  C   UNL     1      -3.294  -2.670  -2.624  0.00  0.00    +0.007 A 
ATOM     14  C   UNL     1      -4.490  -3.362  -2.589  0.00  0.00    +0.000 A 
ATOM     15  C   UNL     1      -5.646  -2.724  -2.178  0.00  0.00    +0.000 A 
ATOM     16  C   UNL     1      -5.604  -1.396  -1.796  0.00  0.00    +0.000 A 
ATOM     17  C   UNL     1      -4.407  -0.706  -1.826  0.00  0.00    +0.007 A 
ENDBRANCH  11  12
ENDBRANCH  10  11
ENDBRANCH   6  10
BRANCH   3  18
ATOM     18  C   UNL     1       3.685   1.869  -0.436  0.00  0.00    +0.156 C 
BRANCH  18  19
ATOM     19  N   UNL     1       4.021   2.564  -1.685  0.00  0.00    -0.277 N 
ATOM     20  H   UNL     1       3.334   2.518  -2.543  0.00  0.00    +0.167 HD
BRANCH  19  21
ATOM     21  N   UNL     1       5.223   3.206  -1.580  0.00  0.00    -0.222 N 
ATOM     22  C   UNL     1       6.457   2.727  -1.954  0.00  0.00    +0.180 A 
ATOM     23  N   UNL     1       7.334   3.664  -1.679  0.00  0.00    -0.152 NA
ATOM     24  N   UNL     1       6.741   4.683  -1.167  0.00  0.00    -0.253 N 
ATOM     25  C   UNL     1       5.448   4.460  -1.088  0.00  0.00    +0.193 A 
ATOM     26  S   UNL     1       4.232   5.571  -0.462  0.00  0.00    -0.010 S 
ATOM     27  H   UNL     1       7.324   5.567  -0.869  0.00  0.00    +0.191 HD
BRANCH  22  28
ATOM     28  C   UNL     1       6.742   1.405  -2.551  0.00  0.00    +0.021 A 
ATOM     29  C   UNL     1       7.952   1.180  -3.209  0.00  0.00    +0.011 A 
ATOM     30  C   UNL     1       8.214  -0.058  -3.760  0.00  0.00    +0.001 A 
ATOM     31  C   UNL     1       7.276  -1.071  -3.671  0.00  0.00    +0.000 A 
ATOM     32  C   UNL     1       6.073  -0.853  -3.023  0.00  0.00    +0.001 A 
ATOM     33  C   UNL     1       5.801   0.378  -2.463  0.00  0.00    +0.011 A 
ENDBRANCH  22  28
ENDBRANCH  19  21
ENDBRANCH  18  19
ENDBRANCH   3  18
TORSDOF 8
