REMARK  Name = ZINC12812741
REMARK  11 active torsions:
REMARK  status: ('A' for Active; 'I' for Inactive)
REMARK    1  A    between atoms: C_1  and  C_2
REMARK    2  A    between atoms: C_3  and  C_31
REMARK    3  A    between atoms: C_4  and  C_30
REMARK    4  A    between atoms: C_7  and  C_8
REMARK    5  A    between atoms: C_8  and  C_10
REMARK    6  A    between atoms: C_10  and  C_12
REMARK    7  A    between atoms: C_10  and  N_13
REMARK    8  A    between atoms: N_13  and  C_14
REMARK    9  A    between atoms: C_17  and  C_20
REMARK   10  A    between atoms: C_20  and  C_21
REMARK   11  A    between atoms: C_31  and  C_33
REMARK                            x       y       z     vdW  Elec       q    Type
REMARK                         _______ _______ _______ _____ _____    ______ ____
ROOT
ATOM      1  N   UNL     1       1.784   8.530   5.324  0.00  0.00    -0.334 N 
ATOM      2  H   UNL     1       2.661   8.554   5.737  0.00  0.00    +0.147 HD
ENDROOT
BRANCH   1   3
ATOM      3  C   UNL     1       1.611   7.899   4.089  0.00  0.00    +0.028 A 
ATOM      4  C   UNL     1       2.694   7.306   3.453  0.00  0.00    +0.023 A 
ATOM      5  C   UNL     1       2.520   6.683   2.233  0.00  0.00    +0.006 A 
ATOM      6  C   UNL     1       1.270   6.650   1.644  0.00  0.00    -0.041 A 
ATOM      7  C   UNL     1       0.190   7.244   2.272  0.00  0.00    +0.006 A 
ATOM      8  C   UNL     1       0.356   7.864   3.495  0.00  0.00    +0.023 A 
BRANCH   6   9
ATOM      9  C   UNL     1       1.083   5.970   0.312  0.00  0.00    +0.098 C 
BRANCH   9  10
ATOM     10  C   UNL     1       0.741   4.519   0.532  0.00  0.00    +0.084 A 
ATOM     11  N   UNL     1      -0.437   3.978   0.668  0.00  0.00    -0.244 NA
ATOM     12  C   UNL     1      -0.608   2.653   0.862  0.00  0.00    +0.078 A 
ATOM     13  C   UNL     1      -1.807   1.925   1.025  0.00  0.00    +0.029 A 
ATOM     14  C   UNL     1      -1.781   0.577   1.207  0.00  0.00    +0.002 A 
ATOM     15  C   UNL     1      -0.587  -0.130   1.250  0.00  0.00    +0.001 A 
ATOM     16  C   UNL     1       0.608   0.547   1.093  0.00  0.00    +0.017 A 
ATOM     17  C   UNL     1       0.592   1.907   0.904  0.00  0.00    +0.039 A 
ATOM     18  S   UNL     1       1.821   3.166   0.666  0.00  0.00    -0.072 S 
ENDBRANCH   9  10
ENDBRANCH   6   9
ENDBRANCH   1   3
BRANCH   1  19
ATOM     19  C   UNL     1       0.640   9.154   5.993  0.00  0.00    +0.140 C 
ATOM     20  C   UNL     1       0.451  10.575   5.459  0.00  0.00    +0.036 C 
BRANCH  19  21
ATOM     21  C   UNL     1       0.894   9.206   7.478  0.00  0.00    +0.199 C 
ATOM     22  O   UNL     1       2.027   9.114   7.904  0.00  0.00    -0.289 OA
BRANCH  21  29
ATOM     23  C   UNL     1       1.162   9.339  10.571  0.00  0.00    +0.047 C 
ATOM     24  C   UNL     1      -0.098   9.423   9.749  0.00  0.00    -0.012 A 
ATOM     25  C   UNL     1      -1.415   9.580  10.239  0.00  0.00    +0.041 A 
ATOM     26  C   UNL     1      -2.259   9.608   9.138  0.00  0.00    +0.024 A 
ATOM     27  N   UNL     1      -1.520   9.483   8.028  0.00  0.00    -0.355 N 
ATOM     28  H   UNL     1      -1.865   9.476   7.122  0.00  0.00    +0.166 HD
ATOM     29  C   UNL     1      -0.189   9.361   8.376  0.00  0.00    +0.088 A 
ATOM     30  C   UNL     1      -3.758   9.762   9.184  0.00  0.00    +0.064 C 
BRANCH  25  31
ATOM     31  C   UNL     1      -1.813   9.694  11.646  0.00  0.00    +0.162 C 
ATOM     32  O   UNL     1      -2.076   8.696  12.284  0.00  0.00    -0.292 OA
ATOM     33  C   UNL     1      -1.897  11.049  12.299  0.00  0.00    +0.091 C 
ENDBRANCH  25  31
ENDBRANCH  21  29
ENDBRANCH  19  21
ENDBRANCH   1  19
TORSDOF 7
