REMARK  Name = ZINC56219951
REMARK  10 active torsions:
REMARK  status: ('A' for Active; 'I' for Inactive)
REMARK    1  A    between atoms: C_1  and  C_2
REMARK    2  A    between atoms: C_2  and  C_3
REMARK    3  A    between atoms: C_3  and  C_4
REMARK    4  A    between atoms: C_6  and  C_9
REMARK    5  A    between atoms: C_9  and  S_10
REMARK    6  A    between atoms: S_10  and  C_11
REMARK    7  A    between atoms: C_11  and  C_12
REMARK    8  A    between atoms: N_18  and  C_19
REMARK    9  A    between atoms: C_24  and  C_25
REMARK   10  A    between atoms: C_25  and  C_26
REMARK                            x       y       z     vdW  Elec       q    Type
REMARK                         _______ _______ _______ _____ _____    ______ ____
ROOT
ATOM      1  C   UNL     1       2.503  -7.612   3.001  0.00  0.00    +0.146 A 
ATOM      2  N   UNL     1       3.114  -7.097   4.053  0.00  0.00    -0.199 NA
ATOM      3  C   UNL     1       2.816  -7.531   5.276  0.00  0.00    +0.217 A 
ATOM      4  N   UNL     1       1.903  -8.483   5.437  0.00  0.00    -0.181 NA
ATOM      5  C   UNL     1       1.292  -8.998   4.376  0.00  0.00    +0.224 A 
ATOM      6  N   UNL     1       1.591  -8.556   3.157  0.00  0.00    -0.198 NA
ATOM      7  N   UNL     1       0.342  -9.988   4.538  0.00  0.00    -0.283 N 
ATOM      8  N   UNL     1       3.454  -6.993   6.375  0.00  0.00    -0.327 N 
ATOM      9  H   UNL     1      -0.165 -10.304   3.774  0.00  0.00    +0.155 HD
ATOM     10  H   UNL     1       4.120  -6.298   6.256  0.00  0.00    +0.145 HD
ATOM     11  H   UNL     1       3.236  -7.309   7.266  0.00  0.00    +0.145 HD
ENDROOT
BRANCH   7  12
ATOM     12  C   UNL     1       0.112 -10.536   5.804  0.00  0.00    +0.037 A 
ATOM     13  C   UNL     1       1.111 -10.503   6.769  0.00  0.00    +0.023 A 
ATOM     14  C   UNL     1       0.880 -11.044   8.018  0.00  0.00    +0.002 A 
ATOM     15  C   UNL     1      -0.344 -11.618   8.310  0.00  0.00    +0.000 A 
ATOM     16  C   UNL     1      -1.340 -11.652   7.352  0.00  0.00    +0.005 A 
ATOM     17  C   UNL     1      -1.118 -11.108   6.102  0.00  0.00    -0.026 A 
BRANCH  17  18
ATOM     18  C   UNL     1      -2.207 -11.140   5.061  0.00  0.00    +0.033 C 
ATOM     19  C   UNL     1      -2.019 -12.366   4.164  0.00  0.00    +0.009 C 
ENDBRANCH  17  18
ENDBRANCH   7  12
BRANCH   1  20
ATOM     20  C   UNL     1       2.844  -7.118   1.618  0.00  0.00    +0.145 C 
BRANCH  20  21
ATOM     21  S   UNL     1       1.765  -5.723   1.192  0.00  0.00    -0.143 S 
BRANCH  21  22
ATOM     22  C   UNL     1       2.296  -5.252  -0.477  0.00  0.00    +0.168 C 
BRANCH  22  25
ATOM     23  C   UNL     1       0.803  -2.063  -1.341  0.00  0.00    +0.172 A 
ATOM     24  N   UNL     1       1.752  -2.826  -0.788  0.00  0.00    -0.195 NA
ATOM     25  C   UNL     1       1.468  -4.088  -0.958  0.00  0.00    +0.237 A 
ATOM     26  O   UNL     1       0.314  -4.171  -1.632  0.00  0.00    -0.337 OA
ATOM     27  N   UNL     1      -0.105  -2.834  -1.867  0.00  0.00    -0.061 NA
BRANCH  23  28
ATOM     28  C   UNL     1       0.784  -0.556  -1.348  0.00  0.00    +0.079 C 
BRANCH  28  30
ATOM     29  C   UNL     1       0.036   1.480  -0.108  0.00  0.00    +0.004 C 
ATOM     30  C   UNL     1       0.056  -0.050  -0.101  0.00  0.00    +0.004 C 
ENDBRANCH  28  30
ENDBRANCH  23  28
ENDBRANCH  22  25
ENDBRANCH  21  22
ENDBRANCH  20  21
ENDBRANCH   1  20
TORSDOF 8
