REMARK  Name = ZINC12581565
REMARK  9 active torsions:
REMARK  status: ('A' for Active; 'I' for Inactive)
REMARK    1  A    between atoms: C_1  and  C_2
REMARK    2  A    between atoms: C_5  and  O_26
REMARK    3  A    between atoms: C_6  and  S_8
REMARK    4  A    between atoms: S_8  and  N_11
REMARK    5  A    between atoms: C_15  and  C_17
REMARK    6  A    between atoms: C_15  and  C_24
REMARK    7  A    between atoms: C_17  and  C_18
REMARK    8  A    between atoms: C_24  and  O_25
REMARK    9  A    between atoms: O_26  and  C_27
REMARK                            x       y       z     vdW  Elec       q    Type
REMARK                         _______ _______ _______ _____ _____    ______ ____
ROOT
ATOM      1  N   UNL     1       0.793   7.963  -0.830  0.00  0.00    -0.176 NA
ATOM      2  C   UNL     1       2.046   7.499  -1.441  0.00  0.00    +0.109 C 
ATOM      3  C   UNL     1       2.049   5.968  -1.458  0.00  0.00    +0.018 C 
ATOM      4  C   UNL     1       0.784   5.467  -2.159  0.00  0.00    +0.012 C 
ATOM      5  C   UNL     1      -0.451   5.939  -1.388  0.00  0.00    +0.012 C 
ATOM      6  C   UNL     1      -0.482   7.471  -1.370  0.00  0.00    +0.119 C 
ENDROOT
BRANCH   1   7
ATOM      7  S   UNL     1       0.817   9.021   0.444  0.00  0.00    +0.064 S 
ATOM      8  O   UNL     1      -0.323   8.726   1.239  0.00  0.00    -0.153 OA
ATOM      9  O   UNL     1       2.138   8.997   0.967  0.00  0.00    -0.153 OA
BRANCH   7  15
ATOM     10  C   UNL     1      -2.025  13.377  -0.066  0.00  0.00    +0.044 C 
ATOM     11  C   UNL     1      -0.776  12.609  -0.415  0.00  0.00    -0.048 A 
ATOM     12  C   UNL     1       0.170  13.172  -1.251  0.00  0.00    +0.007 A 
ATOM     13  C   UNL     1       1.315  12.470  -1.573  0.00  0.00    +0.048 A 
ATOM     14  C   UNL     1       1.516  11.199  -1.055  0.00  0.00    +0.146 A 
ATOM     15  C   UNL     1       0.566  10.636  -0.216  0.00  0.00    +0.147 A 
ATOM     16  C   UNL     1      -0.581  11.341   0.098  0.00  0.00    +0.035 A 
BRANCH  14  17
ATOM     17  O   UNL     1       2.642  10.506  -1.369  0.00  0.00    -0.493 OA
ATOM     18  C   UNL     1       3.515  11.092  -2.337  0.00  0.00    +0.277 C 
ENDBRANCH  14  17
ENDBRANCH   7  15
ENDBRANCH   1   7
BRANCH   5  19
ATOM     19  C   UNL     1      -0.388   5.413   0.048  0.00  0.00    +0.045 C 
BRANCH  19  20
ATOM     20  C   UNL     1      -0.253   3.913   0.028  0.00  0.00    -0.047 A 
ATOM     21  C   UNL     1       1.001   3.331   0.005  0.00  0.00    +0.003 A 
ATOM     22  C   UNL     1       1.125   1.955  -0.013  0.00  0.00    +0.000 A 
ATOM     23  C   UNL     1      -0.006   1.159  -0.009  0.00  0.00    +0.000 A 
ATOM     24  C   UNL     1      -1.260   1.741   0.008  0.00  0.00    +0.000 A 
ATOM     25  C   UNL     1      -1.384   3.117   0.031  0.00  0.00    +0.003 A 
ENDBRANCH  19  20
ENDBRANCH   5  19
BRANCH   5  26
ATOM     26  C   UNL     1      -1.714   5.410  -2.070  0.00  0.00    +0.164 C 
BRANCH  26  27
ATOM     27  O   UNL     1      -1.683   3.982  -2.087  0.00  0.00    -0.394 OA
ATOM     28  H   UNL     1      -2.455   3.577  -2.506  0.00  0.00    +0.209 HD
ENDBRANCH  26  27
ENDBRANCH   5  26
TORSDOF 7
