REMARK  Name = ZINC08921710
REMARK  10 active torsions:
REMARK  status: ('A' for Active; 'I' for Inactive)
REMARK    1  A    between atoms: C_1  and  C_2
REMARK    2  A    between atoms: C_2  and  O_3
REMARK    3  A    between atoms: O_3  and  C_4
REMARK    4  A    between atoms: C_4  and  C_6
REMARK    5  A    between atoms: C_9  and  C_12
REMARK    6  A    between atoms: C_15  and  C_17
REMARK    7  A    between atoms: C_29  and  O_31
REMARK    8  A    between atoms: O_31  and  C_32
REMARK    9  A    between atoms: C_32  and  C_33
REMARK   10  A    between atoms: C_34  and  O_36
REMARK                            x       y       z     vdW  Elec       q    Type
REMARK                         _______ _______ _______ _____ _____    ______ ____
ROOT
ATOM      1  C   UNL     1     -10.394  -3.883   0.068  0.00  0.00    +0.260 C 
ATOM      2  N   UNL     1     -10.548  -2.579   0.740  0.00  0.00    -0.311 N 
ATOM      3  C   UNL     1     -10.614  -2.606   2.115  0.00  0.00    +0.080 A 
ATOM      4  C   UNL     1     -11.043  -3.740   2.813  0.00  0.00    +0.068 A 
ATOM      5  C   UNL     1     -11.047  -3.624   4.261  0.00  0.00    -0.020 A 
ATOM      6  C   UNL     1     -10.637  -2.422   4.726  0.00  0.00    +0.013 A 
ATOM      7  S   UNL     1     -10.260  -1.477   3.276  0.00  0.00    -0.076 S 
ATOM      8  C   UNL     1     -10.528  -2.005   6.161  0.00  0.00    +0.153 C 
ATOM      9  N   UNL     1     -11.175  -3.058   6.969  0.00  0.00    -0.262 N 
ATOM     10  C   UNL     1     -10.911  -4.457   6.601  0.00  0.00    +0.116 C 
ATOM     11  C   UNL     1     -11.476  -4.737   5.207  0.00  0.00    +0.056 C 
ATOM     12  C   UNL     1     -11.977  -2.749   8.007  0.00  0.00    +0.403 C 
ATOM     13  O   UNL     1     -12.498  -3.633   8.657  0.00  0.00    -0.226 OA
ATOM     14  C   UNL     1     -11.450  -4.924   2.014  0.00  0.00    +0.220 C 
ATOM     15  N   UNL     1     -11.153  -4.927   0.744  0.00  0.00    -0.220 NA
ATOM     16  H   UNL     1     -10.601  -1.749   0.240  0.00  0.00    +0.149 HD
ENDROOT
BRANCH   1  20
ATOM     17  C   UNL     1      -6.747  -4.093   0.044  0.00  0.00    +0.135 A 
ATOM     18  C   UNL     1      -7.046  -5.421   0.051  0.00  0.00    +0.050 A 
ATOM     19  C   UNL     1      -8.450  -5.520   0.061  0.00  0.00    +0.049 A 
ATOM     20  C   UNL     1      -8.935  -4.261   0.060  0.00  0.00    +0.148 A 
ATOM     21  O   UNL     1      -7.904  -3.403   0.055  0.00  0.00    -0.456 OA
BRANCH  17  25
ATOM     22  C   UNL     1      -2.852  -2.419   0.016  0.00  0.00    +0.059 A 
ATOM     23  C   UNL     1      -3.973  -1.582   0.026  0.00  0.00    +0.015 A 
ATOM     24  C   UNL     1      -5.227  -2.121   0.034  0.00  0.00    +0.012 A 
ATOM     25  C   UNL     1      -5.391  -3.510   0.034  0.00  0.00    +0.017 A 
ATOM     26  C   UNL     1      -4.271  -4.347   0.025  0.00  0.00    +0.012 A 
ATOM     27  C   UNL     1      -3.016  -3.808   0.010  0.00  0.00    +0.015 A 
BRANCH  22  28
ATOM     28  C   UNL     1      -1.497  -1.837   0.006  0.00  0.00    +0.339 C 
ATOM     29  O   UNL     1      -0.523  -2.564  -0.007  0.00  0.00    -0.245 OA
BRANCH  28  30
ATOM     30  O   UNL     1      -1.339  -0.499   0.012  0.00  0.00    -0.461 OA
BRANCH  30  32
ATOM     31  C   UNL     1      -0.019   1.526   0.010  0.00  0.00    +0.048 C 
ATOM     32  C   UNL     1       0.002  -0.004   0.002  0.00  0.00    +0.229 C 
ENDBRANCH  30  32
ENDBRANCH  28  30
ENDBRANCH  22  28
ENDBRANCH  17  25
ENDBRANCH   1  20
BRANCH  14  33
ATOM     33  O   UNL     1     -12.107  -5.961   2.582  0.00  0.00    -0.492 OA
ATOM     34  H   UNL     1     -12.322  -6.676   1.967  0.00  0.00    +0.294 HD
ENDBRANCH  14  33
BRANCH  12  35
ATOM     35  O   UNL     1     -12.202  -1.459   8.323  0.00  0.00    -0.451 OA
BRANCH  35  36
ATOM     36  C   UNL     1     -13.063  -1.204   9.435  0.00  0.00    +0.230 C 
ATOM     37  C   UNL     1     -13.197   0.306   9.640  0.00  0.00    +0.048 C 
ENDBRANCH  35  36
ENDBRANCH  12  35
TORSDOF 8
