REMARK  Name = ZINC13033557
REMARK  14 active torsions:
REMARK  status: ('A' for Active; 'I' for Inactive)
REMARK    1  A    between atoms: C_1  and  O_2
REMARK    2  A    between atoms: O_2  and  C_3
REMARK    3  A    between atoms: C_8  and  C_9
REMARK    4  A    between atoms: C_9  and  N_70
REMARK    5  A    between atoms: C_10  and  C_11
REMARK    6  A    between atoms: C_10  and  N_70
REMARK    7  A    between atoms: C_15  and  O_25
REMARK    8  A    between atoms: C_16  and  O_23
REMARK    9  A    between atoms: O_23  and  C_24
REMARK   10  A    between atoms: O_25  and  C_26
REMARK   11  A    between atoms: C_27  and  C_28
REMARK   12  A    between atoms: C_27  and  N_70
REMARK   13  A    between atoms: N_32  and  C_33
REMARK   14  A    between atoms: C_33  and  C_34
REMARK                            x       y       z     vdW  Elec       q    Type
REMARK                         _______ _______ _______ _____ _____    ______ ____
ROOT
ATOM      1  N   UNL     1      -3.421  -3.065  -1.216  0.00  0.00    +0.390 N 
ATOM      2  H   UNL     1      -2.740  -2.403  -1.606  0.00  0.00    -0.080 HD
ENDROOT
BRANCH   1   3
ATOM      3  C   UNL     1      -2.899  -4.439  -1.370  0.00  0.00    -0.038 C 
BRANCH   3   9
ATOM      4  C   UNL     1      -1.385  -3.979  -3.314  0.00  0.00    +0.121 A 
ATOM      5  C   UNL     1      -1.010  -4.171  -4.636  0.00  0.00    +0.046 A 
ATOM      6  C   UNL     1      -1.738  -5.026  -5.442  0.00  0.00    +0.004 A 
ATOM      7  C   UNL     1      -2.839  -5.688  -4.932  0.00  0.00    +0.000 A 
ATOM      8  C   UNL     1      -3.211  -5.502  -3.614  0.00  0.00    +0.005 A 
ATOM      9  C   UNL     1      -2.490  -4.645  -2.805  0.00  0.00    -0.022 A 
BRANCH   4  11
ATOM     10  C   UNL     1       0.456  -2.488  -3.111  0.00  0.00    +0.277 C 
ATOM     11  O   UNL     1      -0.670  -3.140  -2.520  0.00  0.00    -0.495 OA
ENDBRANCH   4  11
ENDBRANCH   3   9
ENDBRANCH   1   3
BRANCH   1  12
ATOM     12  C   UNL     1      -3.622  -2.758   0.216  0.00  0.00    -0.036 C 
BRANCH  12  13
ATOM     13  C   UNL     1      -2.276  -2.537   0.857  0.00  0.00    +0.001 A 
ATOM     14  C   UNL     1      -1.767  -1.282   0.946  0.00  0.00    +0.017 A 
ATOM     15  C   UNL     1      -0.459  -1.101   1.574  0.00  0.00    +0.002 A 
ATOM     16  C   UNL     1       0.114   0.172   1.693  0.00  0.00    +0.059 A 
ATOM     17  C   UNL     1       1.348   0.310   2.289  0.00  0.00    +0.162 A 
ATOM     18  C   UNL     1       2.027  -0.813   2.774  0.00  0.00    +0.163 A 
ATOM     19  C   UNL     1       1.471  -2.073   2.660  0.00  0.00    +0.075 A 
ATOM     20  C   UNL     1       0.227  -2.230   2.062  0.00  0.00    +0.053 A 
ATOM     21  N   UNL     1      -0.346  -3.480   1.939  0.00  0.00    -0.322 N 
ATOM     22  H   UNL     1       0.126  -4.257   2.276  0.00  0.00    +0.169 HD
ATOM     23  C   UNL     1      -1.550  -3.635   1.361  0.00  0.00    +0.251 A 
ATOM     24  O   UNL     1      -2.026  -4.754   1.271  0.00  0.00    -0.268 OA
BRANCH  18  25
ATOM     25  O   UNL     1       3.243  -0.664   3.360  0.00  0.00    -0.491 OA
ATOM     26  C   UNL     1       3.885  -1.849   3.834  0.00  0.00    +0.277 C 
ENDBRANCH  18  25
BRANCH  17  27
ATOM     27  O   UNL     1       1.909   1.544   2.408  0.00  0.00    -0.491 OA
ATOM     28  C   UNL     1       1.162   2.648   1.892  0.00  0.00    +0.277 C 
ENDBRANCH  17  27
ENDBRANCH  12  13
ENDBRANCH   1  12
BRANCH   1  29
ATOM     29  C   UNL     1      -4.699  -2.925  -1.946  0.00  0.00    +0.001 C 
BRANCH  29  30
ATOM     30  C   UNL     1      -4.397  -2.652  -3.397  0.00  0.00    +0.135 A 
ATOM     31  N   UNL     1      -4.298  -3.539  -4.356  0.00  0.00    -0.115 NA
ATOM     32  N   UNL     1      -4.031  -2.914  -5.450  0.00  0.00    -0.023 NA
ATOM     33  N   UNL     1      -3.956  -1.651  -5.214  0.00  0.00    -0.044 NA
ATOM     34  N   UNL     1      -4.181  -1.448  -3.960  0.00  0.00    -0.229 N 
BRANCH  34  35
ATOM     35  C   UNL     1      -4.195  -0.153  -3.276  0.00  0.00    +0.178 C 
BRANCH  35  36
ATOM     36  C   UNL     1      -2.786   0.444  -3.284  0.00  0.00    +0.140 C 
ATOM     37  C   UNL     1      -2.780   1.817  -2.566  0.00  0.00    +0.035 C 
ATOM     38  C   UNL     1      -1.293   1.908  -2.121  0.00  0.00    +0.031 C 
ATOM     39  C   UNL     1      -0.948   0.433  -1.820  0.00  0.00    +0.160 C 
ATOM     40  O   UNL     1      -1.891  -0.384  -2.525  0.00  0.00    -0.375 OA
ENDBRANCH  35  36
ENDBRANCH  34  35
ENDBRANCH  29  30
ENDBRANCH   1  29
TORSDOF 11
