REMARK  Name = ZINC59311106
REMARK  9 active torsions:
REMARK  status: ('A' for Active; 'I' for Inactive)
REMARK    1  A    between atoms: C_1  and  C_2
REMARK    2  A    between atoms: C_2  and  S_3
REMARK    3  A    between atoms: S_3  and  C_4
REMARK    4  A    between atoms: C_9  and  N_10
REMARK    5  A    between atoms: C_11  and  C_13
REMARK    6  A    between atoms: C_13  and  S_14
REMARK    7  A    between atoms: S_14  and  C_15
REMARK    8  A    between atoms: N_20  and  N_21
REMARK    9  A    between atoms: C_22  and  C_23
REMARK                            x       y       z     vdW  Elec       q    Type
REMARK                         _______ _______ _______ _____ _____    ______ ____
ROOT
ATOM      1  C   UNL     1       4.965  -3.067  -7.789  0.00  0.00    +0.211 A 
ATOM      2  N   UNL     1       5.660  -3.606  -8.796  0.00  0.00    -0.186 NA
ATOM      3  C   UNL     1       6.160  -2.650  -9.550  0.00  0.00    +0.232 A 
ATOM      4  N   UNL     1       5.785  -1.465  -9.025  0.00  0.00    -0.245 N 
ATOM      5  N   UNL     1       5.009  -1.760  -7.892  0.00  0.00    -0.144 NA
ATOM      6  N   UNL     1       6.936  -2.829 -10.682  0.00  0.00    -0.205 N 
ATOM      7  H   UNL     1       7.261  -2.059 -11.174  0.00  0.00    +0.177 HD
ATOM      8  H   UNL     1       6.004  -0.583  -9.365  0.00  0.00    +0.192 HD
ENDROOT
BRANCH   6   9
ATOM      9  N   UNL     1       7.251  -4.123 -11.117  0.00  0.00    -0.188 NA
ATOM     10  C   UNL     1       7.979  -4.291 -12.180  0.00  0.00    +0.138 C 
BRANCH  10  11
ATOM     11  C   UNL     1       8.311  -5.652 -12.638  0.00  0.00    -0.003 A 
ATOM     12  C   UNL     1       7.848  -6.778 -11.945  0.00  0.00    +0.029 A 
ATOM     13  C   UNL     1       8.182  -8.032 -12.410  0.00  0.00    +0.111 A 
ATOM     14  N   UNL     1       8.928  -8.179 -13.489  0.00  0.00    -0.263 NA
ATOM     15  C   UNL     1       9.386  -7.146 -14.171  0.00  0.00    +0.111 A 
ATOM     16  C   UNL     1       9.095  -5.856 -13.782  0.00  0.00    +0.029 A 
ENDBRANCH  10  11
ENDBRANCH   6   9
BRANCH   1  17
ATOM     17  S   UNL     1       4.120  -3.967  -6.531  0.00  0.00    -0.075 S 
BRANCH  17  18
ATOM     18  C   UNL     1       3.381  -2.678  -5.491  0.00  0.00    +0.173 C 
BRANCH  18  20
ATOM     19  N   UNL     1       1.982  -2.551  -3.455  0.00  0.00    -0.284 N 
ATOM     20  C   UNL     1       2.618  -3.320  -4.361  0.00  0.00    +0.228 C 
ATOM     21  O   UNL     1       2.577  -4.529  -4.266  0.00  0.00    -0.275 OA
ATOM     22  H   UNL     1       1.946  -1.589  -3.574  0.00  0.00    +0.155 HD
BRANCH  19  28
ATOM     23  C   UNL     1       0.317  -2.495  -1.695  0.00  0.00    +0.029 A 
ATOM     24  C   UNL     1      -0.287  -3.088  -0.595  0.00  0.00    +0.016 A 
ATOM     25  C   UNL     1       0.160  -4.314  -0.140  0.00  0.00    +0.001 A 
ATOM     26  C   UNL     1       1.208  -4.953  -0.776  0.00  0.00    +0.002 A 
ATOM     27  C   UNL     1       1.816  -4.369  -1.873  0.00  0.00    +0.024 A 
ATOM     28  C   UNL     1       1.371  -3.142  -2.341  0.00  0.00    +0.047 A 
BRANCH  23  29
ATOM     29  S   UNL     1      -0.251  -0.932  -2.279  0.00  0.00    -0.124 S 
BRANCH  29  31
ATOM     30  C   UNL     1      -2.191   0.850  -1.544  0.00  0.00    +0.015 C 
ATOM     31  C   UNL     1      -1.600  -0.504  -1.145  0.00  0.00    +0.071 C 
ENDBRANCH  29  31
ENDBRANCH  23  29
ENDBRANCH  19  28
ENDBRANCH  18  20
ENDBRANCH  17  18
ENDBRANCH   1  17
TORSDOF 8
