REMARK  Name = ZINC62666312
REMARK  3 active torsions:
REMARK  status: ('A' for Active; 'I' for Inactive)
REMARK    1  A    between atoms: C_1  and  C_2
REMARK    2  A    between atoms: C_7  and  C_8
REMARK    3  A    between atoms: C_8  and  C_10
REMARK                            x       y       z     vdW  Elec       q    Type
REMARK                         _______ _______ _______ _____ _____    ______ ____
ROOT
ATOM      1  C   UNL     1       1.439   0.422   2.866  0.00  0.00    -0.022 A 
ATOM      2  C   UNL     1       2.367  -0.568   3.137  0.00  0.00    +0.007 A 
ATOM      3  C   UNL     1       3.665  -0.232   3.469  0.00  0.00    +0.030 A 
ATOM      4  C   UNL     1       4.037   1.102   3.530  0.00  0.00    +0.087 A 
ATOM      5  C   UNL     1       3.103   2.101   3.255  0.00  0.00    +0.157 A 
ATOM      6  C   UNL     1       1.804   1.753   2.918  0.00  0.00    +0.054 A 
ATOM      7  O   UNL     1       3.736   3.292   3.389  0.00  0.00    -0.408 OA
ATOM      8  C   UNL     1       5.016   3.075   3.732  0.00  0.00    +0.419 A 
ATOM      9  O   UNL     1       5.847   3.941   3.927  0.00  0.00    -0.223 OA
ATOM     10  N   UNL     1       5.236   1.749   3.827  0.00  0.00    -0.288 N 
ATOM     11  H   UNL     1       6.076   1.322   4.060  0.00  0.00    +0.172 HD
ENDROOT
BRANCH   1  12
ATOM     12  C   UNL     1       0.025   0.046   2.504  0.00  0.00    +0.141 C 
ATOM     13 CL   UNL     1      -0.667  -1.003   3.797  0.00  0.00    -0.112 Cl
BRANCH  12  20
ATOM     14  C   UNL     1      -0.018   1.503   0.010  0.00  0.00    +0.044 C 
ATOM     15  C   UNL     1       0.002  -0.004   0.002  0.00  0.00    -0.045 A 
ATOM     16  C   UNL     1       0.006  -0.688  -1.200  0.00  0.00    +0.006 A 
ATOM     17  C   UNL     1       0.025  -2.070  -1.208  0.00  0.00    +0.038 A 
ATOM     18  C   UNL     1       0.041  -2.769  -0.013  0.00  0.00    +0.124 A 
ATOM     19  C   UNL     1       0.037  -2.083   1.189  0.00  0.00    +0.044 A 
ATOM     20  C   UNL     1       0.023  -0.701   1.196  0.00  0.00    -0.020 A 
ATOM     21  F   UNL     1       0.059  -4.120  -0.021  0.00  0.00    -0.205 F 
ENDBRANCH  12  20
ENDBRANCH   1  12
TORSDOF 2
