REMARK  Name = ZINC19083343
REMARK  8 active torsions:
REMARK  status: ('A' for Active; 'I' for Inactive)
REMARK    1  A    between atoms: C_1  and  C_2
REMARK    2  A    between atoms: C_2  and  C_3
REMARK    3  A    between atoms: C_2  and  C_4
REMARK    4  A    between atoms: C_2  and  C_5
REMARK    5  A    between atoms: C_8  and  C_27
REMARK    6  A    between atoms: C_13  and  C_15
REMARK    7  A    between atoms: N_21  and  S_22
REMARK    8  A    between atoms: S_22  and  C_25
REMARK                            x       y       z     vdW  Elec       q    Type
REMARK                         _______ _______ _______ _____ _____    ______ ____
ROOT
ATOM      1  C   UNL     1      -2.284   1.054   1.460  0.00  0.00    +0.079 C 
ATOM      2  C   UNL     1      -2.037  -0.415   1.097  0.00  0.00    +0.058 C 
ATOM      3  C   UNL     1      -3.372  -1.167   1.030  0.00  0.00    +0.214 C 
ATOM      4  N   UNL     1      -4.303  -0.406   0.192  0.00  0.00    -0.239 N 
ATOM      5  C   UNL     1      -4.154   0.913  -0.098  0.00  0.00    +0.118 A 
ATOM      6  C   UNL     1      -5.183   1.284  -0.890  0.00  0.00    +0.069 A 
ATOM      7  C   UNL     1      -5.991   0.157  -1.091  0.00  0.00    +0.084 A 
ATOM      8  N   UNL     1      -5.462  -0.853  -0.442  0.00  0.00    -0.172 NA
ATOM      9  N   UNL     1      -3.087   1.673   0.387  0.00  0.00    -0.326 N 
ATOM     10  H   UNL     1      -2.885   2.555   0.039  0.00  0.00    +0.148 HD
ENDROOT
BRANCH   7  11
ATOM     11  C   UNL     1      -7.253   0.111  -1.914  0.00  0.00    +0.130 C 
ATOM     12  C   UNL     1      -6.932  -0.412  -3.317  0.00  0.00    +0.027 C 
ATOM     13  C   UNL     1      -8.234  -0.587  -4.102  0.00  0.00    +0.003 C 
ATOM     14  C   UNL     1      -9.123  -1.613  -3.395  0.00  0.00    +0.017 C 
ATOM     15  C   UNL     1      -9.469  -1.104  -1.993  0.00  0.00    +0.110 C 
ATOM     16  N   UNL     1      -8.221  -0.795  -1.281  0.00  0.00    -0.172 NA
BRANCH  16  17
ATOM     17  S   UNL     1      -7.912  -1.456   0.205  0.00  0.00    +0.030 S 
ATOM     18  O   UNL     1      -7.125  -0.482   0.878  0.00  0.00    -0.158 OA
ATOM     19  O   UNL     1      -9.187  -1.830   0.708  0.00  0.00    -0.158 OA
ATOM     20  C   UNL     1      -6.918  -2.933  -0.139  0.00  0.00    +0.215 C 
ENDBRANCH  16  17
ENDBRANCH   7  11
BRANCH   1  22
ATOM     21  C   UNL     1      -0.195   1.708   0.254  0.00  0.00    +0.012 C 
ATOM     22  C   UNL     1      -0.945   1.783   1.586  0.00  0.00    -0.019 C 
ATOM     23  C   UNL     1      -0.106   1.123   2.682  0.00  0.00    +0.012 C 
ATOM     24  C   UNL     1      -1.195   3.249   1.948  0.00  0.00    +0.012 C 
ENDBRANCH   1  22
BRANCH   3  25
ATOM     25  C   UNL     1      -3.150  -2.553   0.422  0.00  0.00    +0.412 C 
ATOM     26  F   UNL     1      -2.250  -3.272   1.216  0.00  0.00    -0.168 F 
ATOM     27  F   UNL     1      -4.369  -3.236   0.361  0.00  0.00    -0.168 F 
ATOM     28  F   UNL     1      -2.627  -2.417  -0.869  0.00  0.00    -0.168 F 
ENDBRANCH   3  25
TORSDOF 4
