REMARK  Name = ZINC08674177
REMARK  12 active torsions:
REMARK  status: ('A' for Active; 'I' for Inactive)
REMARK    1  A    between atoms: C_1  and  C_2
REMARK    2  A    between atoms: C_9  and  O_34
REMARK    3  A    between atoms: C_10  and  C_12
REMARK    4  A    between atoms: C_12  and  N_66
REMARK    5  A    between atoms: C_13  and  C_14
REMARK    6  A    between atoms: C_13  and  N_66
REMARK    7  A    between atoms: C_19  and  C_21
REMARK    8  A    between atoms: C_19  and  C_31
REMARK    9  A    between atoms: C_19  and  N_66
REMARK   10  A    between atoms: N_25  and  C_26
REMARK   11  A    between atoms: C_31  and  C_32
REMARK   12  A    between atoms: C_31  and  C_33
REMARK                            x       y       z     vdW  Elec       q    Type
REMARK                         _______ _______ _______ _____ _____    ______ ____
ROOT
ATOM      1  N   UNL     1       3.128  -1.740   0.525  0.00  0.00    +0.392 N 
ATOM      2  H   UNL     1       2.926  -1.506   1.504  0.00  0.00    -0.080 HD
ENDROOT
BRANCH   1   3
ATOM      3  C   UNL     1       3.997  -2.936   0.486  0.00  0.00    -0.036 C 
BRANCH   3  13
ATOM      4  C   UNL     1       8.327  -2.037   5.304  0.00  0.00    +0.046 C 
ATOM      5  C   UNL     1       8.478  -1.997   3.805  0.00  0.00    -0.024 A 
ATOM      6  C   UNL     1       9.692  -1.735   3.248  0.00  0.00    +0.005 A 
ATOM      7  C   UNL     1       9.853  -1.692   1.865  0.00  0.00    +0.001 A 
ATOM      8  C   UNL     1       8.798  -1.912   1.032  0.00  0.00    +0.010 A 
ATOM      9  C   UNL     1       7.532  -2.185   1.573  0.00  0.00    +0.001 A 
ATOM     10  C   UNL     1       7.366  -2.229   2.979  0.00  0.00    +0.078 A 
ATOM     11  N   UNL     1       6.162  -2.489   3.500  0.00  0.00    -0.213 NA
ATOM     12  C   UNL     1       5.117  -2.708   2.731  0.00  0.00    +0.214 A 
ATOM     13  C   UNL     1       5.216  -2.679   1.334  0.00  0.00    -0.002 A 
ATOM     14  C   UNL     1       6.418  -2.424   0.743  0.00  0.00    +0.017 A 
BRANCH  12  15
ATOM     15  O   UNL     1       3.917  -2.967   3.304  0.00  0.00    -0.492 OA
ATOM     16  H   UNL     1       3.785  -3.896   3.538  0.00  0.00    +0.294 HD
ENDBRANCH  12  15
ENDBRANCH   3  13
ENDBRANCH   1   3
BRANCH   1  17
ATOM     17  C   UNL     1       3.815  -0.596  -0.111  0.00  0.00    -0.034 C 
BRANCH  17  18
ATOM     18  C   UNL     1       3.138   0.677   0.328  0.00  0.00    -0.027 A 
ATOM     19  C   UNL     1       3.440   1.489   1.370  0.00  0.00    +0.009 A 
ATOM     20  C   UNL     1       2.673   2.619   1.585  0.00  0.00    +0.008 A 
ATOM     21  C   UNL     1       1.641   2.881   0.745  0.00  0.00    +0.045 A 
ATOM     22  S   UNL     1       1.736   1.512  -0.396  0.00  0.00    -0.103 S 
ENDBRANCH  17  18
ENDBRANCH   1  17
BRANCH   1  23
ATOM     23  C   UNL     1       1.856  -2.018  -0.175  0.00  0.00    +0.006 C 
BRANCH  23  24
ATOM     24  C   UNL     1       2.079  -2.989  -1.305  0.00  0.00    +0.139 A 
ATOM     25  N   UNL     1       2.629  -4.176  -1.220  0.00  0.00    -0.115 NA
ATOM     26  N   UNL     1       2.640  -4.695  -2.400  0.00  0.00    -0.023 NA
ATOM     27  N   UNL     1       2.111  -3.870  -3.235  0.00  0.00    -0.044 NA
ATOM     28  N   UNL     1       1.753  -2.807  -2.598  0.00  0.00    -0.228 N 
BRANCH  28  29
ATOM     29  C   UNL     1       1.111  -1.622  -3.175  0.00  0.00    +0.111 C 
ATOM     30  C   UNL     1      -0.207  -2.021  -3.870  0.00  0.00    +0.027 C 
ATOM     31  C   UNL     1      -0.266  -1.109  -5.122  0.00  0.00    +0.002 C 
ATOM     32  C   UNL     1       1.214  -1.057  -5.577  0.00  0.00    +0.002 C 
ATOM     33  C   UNL     1       2.014  -1.009  -4.259  0.00  0.00    +0.027 C 
ENDBRANCH  28  29
ENDBRANCH  23  24
BRANCH  23  34
ATOM     34  C   UNL     1       0.870  -2.620   0.828  0.00  0.00    -0.024 C 
ATOM     35  C   UNL     1       1.431  -3.939   1.365  0.00  0.00    +0.006 C 
ATOM     36  C   UNL     1       0.662  -1.645   1.988  0.00  0.00    +0.006 C 
ENDBRANCH  23  34
ENDBRANCH   1  23
TORSDOF 9
