REMARK  Name = ZINC10344588
REMARK  10 active torsions:
REMARK  status: ('A' for Active; 'I' for Inactive)
REMARK    1  A    between atoms: C_1  and  C_2
REMARK    2  A    between atoms: C_2  and  N_3
REMARK    3  A    between atoms: C_7  and  S_9
REMARK    4  A    between atoms: S_9  and  C_10
REMARK    5  A    between atoms: C_10  and  C_11
REMARK    6  A    between atoms: C_12  and  C_25
REMARK    7  A    between atoms: C_13  and  C_19
REMARK    8  A    between atoms: C_25  and  O_27
REMARK    9  A    between atoms: O_27  and  C_28
REMARK   10  A    between atoms: C_28  and  C_29
REMARK                            x       y       z     vdW  Elec       q    Type
REMARK                         _______ _______ _______ _____ _____    ______ ____
ROOT
ATOM      1  C   UNL     1      -0.174  -6.810  -0.051  0.00  0.00    +0.034 C 
ATOM      2  C   UNL     1      -0.079  -7.475   1.121  0.00  0.00    +0.079 C 
ATOM      3  C   UNL     1       0.424  -8.903   1.083  0.00  0.00    +0.144 C 
ATOM      4  N   UNL     1       0.780  -9.450  -0.237  0.00  0.00    -0.288 N 
ATOM      5  C   UNL     1       0.635  -8.660  -1.319  0.00  0.00    +0.304 C 
ATOM      6  O   UNL     1       0.926  -9.101  -2.413  0.00  0.00    -0.252 OA
ATOM      7  N   UNL     1       0.181  -7.404  -1.228  0.00  0.00    -0.272 N 
ATOM      8  H   UNL     1       1.111 -10.358  -0.326  0.00  0.00    +0.151 HD
ATOM      9  H   UNL     1       0.099  -6.886  -2.044  0.00  0.00    +0.156 HD
ENDROOT
BRANCH   3  10
ATOM     10  C   UNL     1      -0.638  -9.790   1.682  0.00  0.00    -0.023 A 
ATOM     11  C   UNL     1      -1.650 -10.291   0.885  0.00  0.00    +0.006 A 
ATOM     12  C   UNL     1      -2.622 -11.107   1.433  0.00  0.00    +0.000 A 
ATOM     13  C   UNL     1      -2.586 -11.415   2.780  0.00  0.00    +0.000 A 
ATOM     14  C   UNL     1      -1.577 -10.910   3.578  0.00  0.00    +0.000 A 
ATOM     15  C   UNL     1      -0.603 -10.097   3.029  0.00  0.00    +0.006 A 
ENDBRANCH   3  10
BRANCH   2  16
ATOM     16  C   UNL     1      -0.441  -6.859   2.342  0.00  0.00    +0.339 C 
ATOM     17  O   UNL     1       0.420  -6.420   3.081  0.00  0.00    -0.245 OA
BRANCH  16  18
ATOM     18  O   UNL     1      -1.742  -6.759   2.688  0.00  0.00    -0.462 OA
BRANCH  18  19
ATOM     19  C   UNL     1      -2.034  -6.126   3.935  0.00  0.00    +0.229 C 
ATOM     20  C   UNL     1      -3.549  -6.106   4.154  0.00  0.00    +0.048 C 
ENDBRANCH  18  19
ENDBRANCH  16  18
ENDBRANCH   2  16
BRANCH   1  21
ATOM     21  C   UNL     1      -0.675  -5.389  -0.058  0.00  0.00    +0.127 C 
BRANCH  21  22
ATOM     22  S   UNL     1       0.721  -4.257  -0.306  0.00  0.00    -0.091 S 
BRANCH  22  27
ATOM     23  N   UNL     1      -0.879   1.314  -0.383  0.00  0.00    -0.322 N 
ATOM     24  C   UNL     1      -0.733  -0.067  -0.330  0.00  0.00    +0.182 A 
ATOM     25  N   UNL     1      -1.650  -0.998  -0.157  0.00  0.00    -0.125 NA
ATOM     26  N   UNL     1      -1.285  -2.324  -0.137  0.00  0.00    -0.133 NA
ATOM     27  C   UNL     1      -0.018  -2.658  -0.290  0.00  0.00    +0.160 A 
ATOM     28  S   UNL     1       0.747  -1.056  -0.485  0.00  0.00    -0.025 S 
ATOM     29  H   UNL     1      -0.102   1.879  -0.517  0.00  0.00    +0.148 HD
BRANCH  23  31
ATOM     30  C   UNL     1      -2.089   3.439  -0.336  0.00  0.00    +0.024 C 
ATOM     31  C   UNL     1      -2.207   1.917  -0.241  0.00  0.00    +0.100 C 
ENDBRANCH  23  31
ENDBRANCH  22  27
ENDBRANCH  21  22
ENDBRANCH   1  21
TORSDOF 8
