REMARK  Name = ZINC00729122
REMARK  10 active torsions:
REMARK  status: ('A' for Active; 'I' for Inactive)
REMARK    1  A    between atoms: C_1  and  C_2
REMARK    2  A    between atoms: C_9  and  N_24
REMARK    3  A    between atoms: C_10  and  C_11
REMARK    4  A    between atoms: N_13  and  C_14
REMARK    5  A    between atoms: C_16  and  O_22
REMARK    6  A    between atoms: C_19  and  O_20
REMARK    7  A    between atoms: O_20  and  C_21
REMARK    8  A    between atoms: O_22  and  C_23
REMARK    9  A    between atoms: N_24  and  C_25
REMARK   10  A    between atoms: C_25  and  C_26
REMARK                            x       y       z     vdW  Elec       q    Type
REMARK                         _______ _______ _______ _____ _____    ______ ____
ROOT
ATOM      1  C   UNL     1      -0.076   1.514   0.002  0.00  0.00    +0.008 C 
ATOM      2  C   UNL     1      -0.043  -0.015  -0.005  0.00  0.00    -0.009 C 
ATOM      3  C   UNL     1       0.703  -0.518   1.235  0.00  0.00    +0.008 C 
ATOM      4  C   UNL     1       0.956  -2.022   1.116  0.00  0.00    +0.037 C 
ATOM      5  C   UNL     1      -0.364  -2.718   0.807  0.00  0.00    -0.023 A 
ATOM      6  C   UNL     1      -1.419  -2.028   0.325  0.00  0.00    -0.004 A 
ATOM      7  S   UNL     1      -2.699  -3.234   0.127  0.00  0.00    -0.078 S 
ATOM      8  C   UNL     1      -1.847  -4.640   0.676  0.00  0.00    +0.078 A 
ATOM      9  C   UNL     1      -0.591  -4.142   1.000  0.00  0.00    +0.069 A 
ATOM     10  C   UNL     1      -1.478  -0.561   0.026  0.00  0.00    +0.046 C 
ENDROOT
BRANCH   9  11
ATOM     11  C   UNL     1       0.463  -5.016   1.518  0.00  0.00    +0.251 C 
ATOM     12  O   UNL     1       0.573  -5.194   2.717  0.00  0.00    -0.270 OA
ATOM     13  N   UNL     1       1.312  -5.625   0.666  0.00  0.00    -0.278 N 
ATOM     14  H   UNL     1       1.185  -5.536  -0.292  0.00  0.00    +0.155 HD
BRANCH  13  15
ATOM     15  C   UNL     1       2.377  -6.386   1.163  0.00  0.00    +0.079 A 
ATOM     16  C   UNL     1       2.224  -7.114   2.334  0.00  0.00    +0.072 A 
ATOM     17  C   UNL     1       3.280  -7.867   2.824  0.00  0.00    +0.122 A 
ATOM     18  C   UNL     1       4.489  -7.893   2.144  0.00  0.00    +0.049 A 
ATOM     19  C   UNL     1       4.644  -7.169   0.976  0.00  0.00    +0.051 A 
ATOM     20  C   UNL     1       3.590  -6.419   0.480  0.00  0.00    +0.141 A 
BRANCH  20  21
ATOM     21  O   UNL     1       3.742  -5.710  -0.671  0.00  0.00    -0.493 OA
ATOM     22  C   UNL     1       5.014  -5.789  -1.319  0.00  0.00    +0.277 C 
ENDBRANCH  20  21
BRANCH  17  23
ATOM     23  O   UNL     1       3.130  -8.581   3.971  0.00  0.00    -0.495 OA
ATOM     24  C   UNL     1       4.259  -9.335   4.418  0.00  0.00    +0.277 C 
ENDBRANCH  17  23
ENDBRANCH  13  15
ENDBRANCH   9  11
BRANCH   8  25
ATOM     25  N   UNL     1      -2.305  -5.940   0.769  0.00  0.00    -0.333 N 
ATOM     26  H   UNL     1      -1.718  -6.639   1.097  0.00  0.00    +0.147 HD
BRANCH  25  27
ATOM     27  C   UNL     1      -3.678  -6.263   0.372  0.00  0.00    +0.144 C 
BRANCH  27  28
ATOM     28  C   UNL     1      -3.924  -7.737   0.569  0.00  0.00    +0.007 A 
ATOM     29  C   UNL     1      -4.386  -8.387   1.665  0.00  0.00    +0.013 A 
ATOM     30  C   UNL     1      -4.538  -9.760   1.616  0.00  0.00    +0.008 A 
ATOM     31  C   UNL     1      -4.211 -10.417   0.476  0.00  0.00    +0.045 A 
ATOM     32  S   UNL     1      -3.676  -9.081  -0.580  0.00  0.00    -0.100 S 
ENDBRANCH  27  28
ENDBRANCH  25  27
ENDBRANCH   8  25
TORSDOF 7
