REMARK  Name = ZINC16156106
REMARK  5 active torsions:
REMARK  status: ('A' for Active; 'I' for Inactive)
REMARK    1  A    between atoms: C_6  and  C_7
REMARK    2  A    between atoms: C_9  and  C_21
REMARK    3  A    between atoms: C_11  and  C_16
REMARK    4  A    between atoms: C_11  and  O_20
REMARK    5  A    between atoms: C_21  and  C_23
REMARK                            x       y       z     vdW  Elec       q    Type
REMARK                         _______ _______ _______ _____ _____    ______ ____
ROOT
ATOM      1  C   UNL     1       1.378   1.880  -0.283  0.00  0.00    +0.120 C 
ATOM      2  C   UNL     1       1.178   3.157   0.540  0.00  0.00    +0.144 C 
ATOM      3  C   UNL     1      -0.234   3.691   0.278  0.00  0.00    +0.243 C 
ATOM      4  N   UNL     1      -1.208   2.639   0.575  0.00  0.00    -0.264 N 
ATOM      5  C   UNL     1      -0.897   1.341   0.437  0.00  0.00    +0.302 C 
ATOM      6  O   UNL     1      -1.748   0.508   0.682  0.00  0.00    -0.253 OA
ATOM      7  N   UNL     1       0.316   0.926   0.044  0.00  0.00    -0.292 N 
ATOM      8  H   UNL     1      -2.097   2.885   0.875  0.00  0.00    +0.153 HD
ATOM      9  H   UNL     1       0.493  -0.025  -0.029  0.00  0.00    +0.151 HD
ENDROOT
BRANCH   1  15
ATOM     10  C   UNL     1       2.848   0.431   1.132  0.00  0.00    +0.006 A 
ATOM     11  C   UNL     1       4.076  -0.129   1.429  0.00  0.00    +0.015 A 
ATOM     12  C   UNL     1       5.177   0.162   0.644  0.00  0.00    +0.018 A 
ATOM     13  C   UNL     1       5.048   1.010  -0.441  0.00  0.00    +0.015 A 
ATOM     14  C   UNL     1       3.818   1.565  -0.741  0.00  0.00    +0.006 A 
ATOM     15  C   UNL     1       2.718   1.274   0.044  0.00  0.00    -0.026 A 
ATOM     16 BR   UNL     1       6.859  -0.598   1.056  0.00  0.00    -0.050 Br
ENDBRANCH   1  15
BRANCH   3  17
ATOM     17  C   UNL     1      -0.498   4.901   1.177  0.00  0.00    +0.436 C 
ATOM     18  F   UNL     1       0.503   5.857   0.977  0.00  0.00    -0.166 F 
ATOM     19  F   UNL     1      -1.743   5.455   0.859  0.00  0.00    -0.166 F 
ATOM     20  F   UNL     1      -0.497   4.496   2.516  0.00  0.00    -0.166 F 
ENDBRANCH   3  17
BRANCH   3  21
ATOM     21  O   UNL     1      -0.351   4.079  -1.092  0.00  0.00    -0.364 OA
ATOM     22  H   UNL     1      -1.222   4.427  -1.329  0.00  0.00    +0.212 HD
ENDBRANCH   3  21
BRANCH   2  23
ATOM     23  C   UNL     1       1.337   2.844   2.006  0.00  0.00    +0.173 C 
ATOM     24  O   UNL     1       0.570   2.077   2.549  0.00  0.00    -0.292 OA
BRANCH  23  25
ATOM     25  C   UNL     1       2.422   3.468   2.778  0.00  0.00    +0.018 A 
ATOM     26  C   UNL     1       3.372   4.268   2.134  0.00  0.00    +0.013 A 
ATOM     27  C   UNL     1       4.383   4.854   2.865  0.00  0.00    +0.020 A 
ATOM     28  C   UNL     1       4.466   4.644   4.232  0.00  0.00    +0.041 A 
ATOM     29  C   UNL     1       3.532   3.848   4.875  0.00  0.00    +0.020 A 
ATOM     30  C   UNL     1       2.513   3.260   4.158  0.00  0.00    +0.013 A 
ATOM     31 CL   UNL     1       5.747   5.380   5.143  0.00  0.00    -0.084 Cl
ENDBRANCH  23  25
ENDBRANCH   2  23
TORSDOF 5
