REMARK  Name = ZINC64792847
REMARK  8 active torsions:
REMARK  status: ('A' for Active; 'I' for Inactive)
REMARK    1  A    between atoms: C_1  and  C_2
REMARK    2  A    between atoms: C_2  and  C_3
REMARK    3  A    between atoms: C_3  and  C_4
REMARK    4  A    between atoms: C_4  and  N_5
REMARK    5  A    between atoms: C_6  and  C_8
REMARK    6  A    between atoms: C_8  and  N_9
REMARK    7  A    between atoms: C_15  and  C_26
REMARK    8  A    between atoms: C_18  and  C_19
REMARK                            x       y       z     vdW  Elec       q    Type
REMARK                         _______ _______ _______ _____ _____    ______ ____
ROOT
ATOM      1  N   UNL     1       2.224  -5.757  -3.837  0.00  0.00    -0.259 N 
ATOM      2  C   UNL     1       3.321  -6.447  -3.345  0.00  0.00    +0.243 A 
ATOM      3  N   UNL     1       4.481  -6.025  -2.932  0.00  0.00    -0.092 NA
ATOM      4  N   UNL     1       5.213  -7.020  -2.562  0.00  0.00    -0.021 NA
ATOM      5  N   UNL     1       4.569  -8.133  -2.712  0.00  0.00    -0.042 NA
ATOM      6  N   UNL     1       3.316  -7.800  -3.223  0.00  0.00    -0.202 N 
ATOM      7  C   UNL     1       2.180  -8.644  -3.575  0.00  0.00    +0.167 C 
ATOM      8  C   UNL     1       1.169  -7.837  -4.345  0.00  0.00    +0.028 C 
ATOM      9  C   UNL     1       1.211  -6.516  -4.439  0.00  0.00    +0.043 C 
ENDROOT
BRANCH   9  10
ATOM     10  C   UNL     1       0.156  -5.821  -5.211  0.00  0.00    -0.004 A 
ATOM     11  C   UNL     1      -1.189  -6.088  -4.957  0.00  0.00    +0.011 A 
ATOM     12  C   UNL     1      -2.168  -5.437  -5.679  0.00  0.00    +0.020 A 
ATOM     13  C   UNL     1      -1.817  -4.520  -6.655  0.00  0.00    +0.041 A 
ATOM     14  C   UNL     1      -0.483  -4.251  -6.912  0.00  0.00    +0.020 A 
ATOM     15  C   UNL     1       0.504  -4.892  -6.192  0.00  0.00    +0.011 A 
ATOM     16 CL   UNL     1      -3.053  -3.705  -7.561  0.00  0.00    -0.084 Cl
ENDBRANCH   9  10
BRANCH   7  17
ATOM     17  C   UNL     1       1.542  -9.177  -2.317  0.00  0.00    -0.019 A 
ATOM     18  C   UNL     1       1.025  -8.302  -1.380  0.00  0.00    +0.006 A 
ATOM     19  C   UNL     1       0.440  -8.790  -0.227  0.00  0.00    +0.000 A 
ATOM     20  C   UNL     1       0.372 -10.154  -0.011  0.00  0.00    +0.000 A 
ATOM     21  C   UNL     1       0.888 -11.029  -0.949  0.00  0.00    +0.000 A 
ATOM     22  C   UNL     1       1.469 -10.540  -2.104  0.00  0.00    +0.006 A 
ENDBRANCH   7  17
BRANCH   1  23
ATOM     23  C   UNL     1       2.124  -4.300  -3.727  0.00  0.00    +0.209 C 
BRANCH  23  25
ATOM     24  N   UNL     1       1.111  -2.648  -2.190  0.00  0.00    -0.314 N 
ATOM     25  C   UNL     1       1.332  -3.942  -2.496  0.00  0.00    +0.231 C 
ATOM     26  O   UNL     1       0.894  -4.817  -1.781  0.00  0.00    -0.274 OA
ATOM     27  H   UNL     1       1.462  -1.947  -2.762  0.00  0.00    +0.149 HD
BRANCH  24  28
ATOM     28  C   UNL     1       0.341  -2.300  -0.994  0.00  0.00    +0.104 C 
BRANCH  28  29
ATOM     29  C   UNL     1       0.237  -0.777  -0.879  0.00  0.00    +0.018 C 
BRANCH  29  31
ATOM     30  C   UNL     1      -0.670   1.109   0.485  0.00  0.00    +0.004 C 
ATOM     31  C   UNL     1      -0.567  -0.413   0.371  0.00  0.00    -0.002 C 
ENDBRANCH  29  31
ENDBRANCH  28  29
ENDBRANCH  24  28
ENDBRANCH  23  25
ENDBRANCH   1  23
TORSDOF 7
