REMARK  Name = ZINC39337791
REMARK  6 active torsions:
REMARK  status: ('A' for Active; 'I' for Inactive)
REMARK    1  A    between atoms: C_1  and  C_2
REMARK    2  A    between atoms: C_4  and  C_7
REMARK    3  A    between atoms: C_10  and  C_32
REMARK    4  A    between atoms: N_17  and  C_19
REMARK    5  A    between atoms: C_19  and  C_20
REMARK    6  A    between atoms: C_25  and  C_26
REMARK                            x       y       z     vdW  Elec       q    Type
REMARK                         _______ _______ _______ _____ _____    ______ ____
ROOT
ATOM      1  C   UNL     1      -1.803  -3.142   0.472  0.00  0.00    +0.050 C 
ATOM      2  N   UNL     1      -1.496  -4.304   1.353  0.00  0.00    -0.323 NA
ATOM      3  C   UNL     1      -2.775  -4.697   2.004  0.00  0.00    +0.037 C 
ATOM      4  C   UNL     1      -3.817  -3.754   1.401  0.00  0.00    -0.035 C 
ATOM      5  N   UNL     1      -3.002  -2.546   1.072  0.00  0.00    +0.398 N 
ATOM      6  C   UNL     1      -3.814  -1.698   0.212  0.00  0.00    -0.060 C 
ATOM      7  C   UNL     1      -5.015  -1.220   1.045  0.00  0.00    +0.066 C 
ATOM      8  N   UNL     1      -5.770  -2.352   1.590  0.00  0.00    -0.305 NA
ATOM      9  C   UNL     1      -4.928  -3.318   2.340  0.00  0.00    +0.071 C 
ATOM     10  C   UNL     1      -2.687  -4.500   3.519  0.00  0.00    +0.022 C 
ATOM     11  H   UNL     1      -1.110  -5.070   0.822  0.00  0.00    +0.121 HD
ATOM     12  H   UNL     1      -2.756  -2.057   1.919  0.00  0.00    -0.078 HD
ENDROOT
BRANCH   1  16
ATOM     13  C   UNL     1       0.067   1.495   0.257  0.00  0.00    +0.073 C 
ATOM     14  C   UNL     1       0.122  -0.007   0.374  0.00  0.00    +0.075 A 
ATOM     15  N   UNL     1      -0.872  -0.860   0.367  0.00  0.00    -0.250 NA
ATOM     16  C   UNL     1      -0.662  -2.157   0.479  0.00  0.00    +0.049 A 
ATOM     17  C   UNL     1       0.627  -2.564   0.603  0.00  0.00    +0.069 A 
ATOM     18  S   UNL     1       1.475  -0.994   0.539  0.00  0.00    -0.081 S 
ENDBRANCH   1  16
BRANCH   8  19
ATOM     19  C   UNL     1      -6.894  -1.887   2.413  0.00  0.00    +0.099 C 
BRANCH  19  20
ATOM     20  C   UNL     1      -7.877  -3.039   2.633  0.00  0.00    +0.092 C 
ATOM     21  C   UNL     1      -8.594  -3.384   1.343  0.00  0.00    +0.118 C 
ATOM     22  N   UNL     1      -9.848  -3.173   1.567  0.00  0.00    -0.161 NA
ATOM     23  N   UNL     1     -10.087  -2.723   2.861  0.00  0.00    -0.158 NA
ATOM     24  C   UNL     1      -9.000  -2.615   3.558  0.00  0.00    +0.054 C 
BRANCH  24  25
ATOM     25  C   UNL     1      -8.875  -2.163   4.990  0.00  0.00    +0.036 C 
ATOM     26  C   UNL     1      -8.364  -3.321   5.849  0.00  0.00    +0.009 C 
ATOM     27  C   UNL     1      -8.237  -2.861   7.302  0.00  0.00    +0.001 C 
ATOM     28  C   UNL     1      -9.606  -2.412   7.816  0.00  0.00    +0.000 C 
ATOM     29  C   UNL     1     -10.117  -1.253   6.958  0.00  0.00    +0.001 C 
ATOM     30  C   UNL     1     -10.244  -1.713   5.504  0.00  0.00    +0.009 C 
ENDBRANCH  24  25
ENDBRANCH  19  20
ENDBRANCH   8  19
TORSDOF 4
