REMARK  Name = ZINC05633487
REMARK  9 active torsions:
REMARK  status: ('A' for Active; 'I' for Inactive)
REMARK    1  A    between atoms: C_1  and  C_2
REMARK    2  A    between atoms: C_2  and  C_3
REMARK    3  A    between atoms: C_2  and  C_4
REMARK    4  A    between atoms: C_11  and  N_27
REMARK    5  A    between atoms: C_12  and  C_25
REMARK    6  A    between atoms: C_13  and  C_15
REMARK    7  A    between atoms: C_18  and  C_21
REMARK    8  A    between atoms: C_21  and  O_23
REMARK    9  A    between atoms: O_23  and  C_24
REMARK                            x       y       z     vdW  Elec       q    Type
REMARK                         _______ _______ _______ _____ _____    ______ ____
ROOT
ATOM      1  C   UNL     1       0.707  -0.490  -1.238  0.00  0.00    +0.046 A 
ATOM      2  C   UNL     1       1.810  -1.254  -1.274  0.00  0.00    +0.049 A 
ATOM      3  C   UNL     1       2.143  -1.480  -2.627  0.00  0.00    +0.245 A 
ATOM      4  N   UNL     1       1.262  -0.870  -3.366  0.00  0.00    -0.135 NA
ATOM      5  N   UNL     1       0.340  -0.240  -2.516  0.00  0.00    -0.278 N 
ATOM      6  H   UNL     1      -0.426   0.285  -2.796  0.00  0.00    +0.189 HD
ATOM      7  O   UNL     1       3.223  -2.224  -2.990  0.00  0.00    -0.421 OA
ATOM      8  C   UNL     1       4.124  -2.516  -2.032  0.00  0.00    +0.201 C 
ATOM      9  C   UNL     1       3.915  -2.354  -0.709  0.00  0.00    +0.098 C 
ATOM     10  C   UNL     1       2.624  -1.822  -0.140  0.00  0.00    +0.101 C 
ENDROOT
BRANCH  10  11
ATOM     11  C   UNL     1       1.862  -2.940   0.524  0.00  0.00    -0.035 A 
ATOM     12  C   UNL     1       1.500  -4.056  -0.210  0.00  0.00    +0.005 A 
ATOM     13  C   UNL     1       0.802  -5.083   0.391  0.00  0.00    +0.015 A 
ATOM     14  C   UNL     1       0.462  -4.995   1.742  0.00  0.00    +0.059 A 
ATOM     15  C   UNL     1       0.832  -3.867   2.477  0.00  0.00    +0.015 A 
ATOM     16  C   UNL     1       1.534  -2.849   1.865  0.00  0.00    +0.005 A 
BRANCH  14  17
ATOM     17  C   UNL     1      -0.285  -6.092   2.392  0.00  0.00    +0.339 C 
ATOM     18  O   UNL     1      -0.605  -7.072   1.751  0.00  0.00    -0.245 OA
BRANCH  17  19
ATOM     19  O   UNL     1      -0.611  -6.004   3.696  0.00  0.00    -0.464 OA
ATOM     20  C   UNL     1      -1.334  -7.100   4.260  0.00  0.00    +0.280 C 
ENDBRANCH  17  19
ENDBRANCH  14  17
ENDBRANCH  10  11
BRANCH   1  22
ATOM     21  C   UNL     1      -0.019   1.526   0.010  0.00  0.00    +0.014 C 
ATOM     22  C   UNL     1       0.002  -0.004   0.002  0.00  0.00    +0.031 C 
ATOM     23  C   UNL     1      -1.433  -0.534   0.013  0.00  0.00    +0.014 C 
ENDBRANCH   1  22
BRANCH   8  24
ATOM     24  N   UNL     1       5.340  -3.014  -2.430  0.00  0.00    -0.328 N 
ATOM     25  H   UNL     1       5.526  -3.144  -3.373  0.00  0.00    +0.145 HD
ATOM     26  H   UNL     1       6.014  -3.235  -1.768  0.00  0.00    +0.145 HD
ENDBRANCH   8  24
BRANCH   9  27
ATOM     27  C   UNL     1       4.968  -2.703   0.197  0.00  0.00    +0.101 C 
ATOM     28  N   UNL     1       5.803  -2.981   0.916  0.00  0.00    -0.191 NA
ENDBRANCH   9  27
TORSDOF 6
