REMARK  Name = ZINC36945095
REMARK  5 active torsions:
REMARK  status: ('A' for Active; 'I' for Inactive)
REMARK    1  A    between atoms: C_1  and  C_2
REMARK    2  A    between atoms: C_2  and  N_9
REMARK    3  A    between atoms: N_9  and  C_10
REMARK    4  A    between atoms: C_10  and  C_11
REMARK    5  A    between atoms: C_20  and  O_21
REMARK                            x       y       z     vdW  Elec       q    Type
REMARK                         _______ _______ _______ _____ _____    ______ ____
ROOT
ATOM      1  C   UNL     1       0.003  -0.047  -2.397  0.00  0.00    -0.042 C 
ENDROOT
BRANCH   1   2
ATOM      2  C   UNL     1       0.685  -0.616  -3.614  0.00  0.00    -0.015 A 
ATOM      3  C   UNL     1       1.699   0.111  -4.260  0.00  0.00    -0.013 A 
ATOM      4  C   UNL     1       2.099   1.375  -3.793  0.00  0.00    +0.009 A 
ATOM      5  C   UNL     1       3.085   2.051  -4.443  0.00  0.00    +0.001 A 
ATOM      6  C   UNL     1       3.705   1.510  -5.568  0.00  0.00    +0.001 A 
ATOM      7  C   UNL     1       3.344   0.289  -6.048  0.00  0.00    +0.008 A 
ATOM      8  C   UNL     1       2.330  -0.440  -5.403  0.00  0.00    -0.017 A 
ATOM      9  C   UNL     1       1.931  -1.705  -5.870  0.00  0.00    +0.012 A 
ATOM     10  C   UNL     1       0.947  -2.384  -5.223  0.00  0.00    +0.046 A 
ATOM     11  C   UNL     1       0.326  -1.844  -4.091  0.00  0.00    +0.119 A 
BRANCH  11  12
ATOM     12  O   UNL     1      -0.650  -2.549  -3.462  0.00  0.00    -0.507 OA
ATOM     13  H   UNL     1      -1.540  -2.374  -3.798  0.00  0.00    +0.292 HD
ENDBRANCH  11  12
ENDBRANCH   1   2
BRANCH   1  14
ATOM     14  N   UNL     1       0.733  -0.457  -1.189  0.00  0.00    +0.386 N 
ATOM     15  H   UNL     1       1.700  -0.184  -1.273  0.00  0.00    -0.085 HD
ATOM     16  H   UNL     1       0.673  -1.459  -1.084  0.00  0.00    -0.085 HD
BRANCH  14  18
ATOM     17  C   UNL     1      -1.355  -0.129   0.023  0.00  0.00    -0.009 C 
ATOM     18  C   UNL     1       0.140   0.195  -0.014  0.00  0.00    -0.050 C 
ATOM     19  C   UNL     1       0.796  -0.378   1.242  0.00  0.00    +0.011 C 
ATOM     20  C   UNL     1       2.046   0.461   1.627  0.00  0.00    +0.164 C 
ATOM     21  S   UNL     1       1.407   2.154   1.259  0.00  0.00    -0.032 S 
ATOM     22  O   UNL     1       2.475   2.966   0.791  0.00  0.00    -0.174 OA
ATOM     23  O   UNL     1       0.611   2.600   2.348  0.00  0.00    -0.174 OA
ATOM     24  C   UNL     1       0.311   1.720  -0.156  0.00  0.00    +0.153 C 
ENDBRANCH  14  18
ENDBRANCH   1  14
TORSDOF 4
