REMARK  Name = ZINC64098257
REMARK  7 active torsions:
REMARK  status: ('A' for Active; 'I' for Inactive)
REMARK    1  A    between atoms: C_1  and  C_2
REMARK    2  A    between atoms: C_2  and  C_9
REMARK    3  A    between atoms: C_13  and  N_15
REMARK    4  A    between atoms: C_16  and  C_18
REMARK    5  A    between atoms: C_18  and  C_19
REMARK    6  A    between atoms: C_19  and  C_20
REMARK    7  A    between atoms: C_20  and  C_21
REMARK                            x       y       z     vdW  Elec       q    Type
REMARK                         _______ _______ _______ _____ _____    ______ ____
ROOT
ATOM      1  N   UNL     1      -4.376  -0.414  -2.196  0.00  0.00    -0.285 N 
ATOM      2  C   UNL     1      -5.595  -0.983  -2.285  0.00  0.00    +0.217 C 
ATOM      3  O   UNL     1      -5.993  -1.705  -1.395  0.00  0.00    -0.275 OA
ATOM      4  H   UNL     1      -4.089   0.223  -2.869  0.00  0.00    +0.155 HD
ENDROOT
BRANCH   1   9
ATOM      5  C   UNL     1      -1.826  -0.110   0.435  0.00  0.00    -0.014 A 
ATOM      6  C   UNL     1      -1.846  -1.386   0.967  0.00  0.00    +0.006 A 
ATOM      7  C   UNL     1      -2.704  -2.340   0.452  0.00  0.00    +0.002 A 
ATOM      8  C   UNL     1      -3.544  -2.021  -0.597  0.00  0.00    +0.023 A 
ATOM      9  C   UNL     1      -3.527  -0.740  -1.134  0.00  0.00    +0.034 A 
ATOM     10  C   UNL     1      -2.667   0.217  -0.610  0.00  0.00    +0.029 A 
BRANCH   5  12
ATOM     11  C   UNL     1      -1.675   2.130   1.526  0.00  0.00    +0.047 C 
ATOM     12  C   UNL     1      -0.889   0.927   1.000  0.00  0.00    +0.135 C 
ATOM     13  C   UNL     1       0.120   1.364  -0.043  0.00  0.00    +0.248 C 
ATOM     14  O   UNL     1      -0.110   1.900  -1.106  0.00  0.00    -0.273 OA
ATOM     15  N   UNL     1       1.327   1.032   0.457  0.00  0.00    -0.238 N 
ATOM     16  C   UNL     1       1.222   0.453   1.658  0.00  0.00    +0.307 C 
ATOM     17  O   UNL     1       2.173   0.067   2.308  0.00  0.00    -0.252 OA
ATOM     18  N   UNL     1      -0.056   0.346   2.066  0.00  0.00    -0.282 N 
ATOM     19  H   UNL     1       2.168   1.194   0.001  0.00  0.00    +0.159 HD
ATOM     20  H   UNL     1      -0.367  -0.039   2.901  0.00  0.00    +0.152 HD
ENDBRANCH   5  12
ENDBRANCH   1   9
BRANCH   2  21
ATOM     21  C   UNL     1      -6.462  -0.724  -3.489  0.00  0.00    +0.096 C 
BRANCH  21  22
ATOM     22  C   UNL     1      -7.782  -1.484  -3.340  0.00  0.00    +0.014 C 
BRANCH  22  23
ATOM     23  C   UNL     1      -8.663  -1.221  -4.563  0.00  0.00    +0.033 C 
BRANCH  23  24
ATOM     24  C   UNL     1      -9.963  -1.969  -4.417  0.00  0.00    -0.042 C 
ATOM     25  C   UNL     1     -11.128  -1.486  -3.929  0.00  0.00    -0.001 A 
ATOM     26  C   UNL     1     -11.520  -0.170  -3.409  0.00  0.00    +0.010 A 
ATOM     27  C   UNL     1     -12.790   0.015  -2.983  0.00  0.00    +0.001 A 
ATOM     28  C   UNL     1     -13.739  -1.015  -3.025  0.00  0.00    +0.002 A 
ATOM     29  C   UNL     1     -13.455  -2.251  -3.489  0.00  0.00    +0.026 A 
ATOM     30  C   UNL     1     -12.150  -2.557  -3.964  0.00  0.00    +0.043 A 
ATOM     31  N   UNL     1     -11.635  -3.659  -4.453  0.00  0.00    -0.380 N 
ATOM     32  C   UNL     1     -10.229  -3.410  -4.790  0.00  0.00    +0.144 C 
ATOM     33  H   UNL     1     -12.107  -4.498  -4.575  0.00  0.00    +0.160 HD
ENDBRANCH  23  24
ENDBRANCH  22  23
ENDBRANCH  21  22
ENDBRANCH   2  21
TORSDOF 6
