REMARK  Name = ZINC05486325
REMARK  7 active torsions:
REMARK  status: ('A' for Active; 'I' for Inactive)
REMARK    1  A    between atoms: C_1  and  N_2
REMARK    2  A    between atoms: N_2  and  C_3
REMARK    3  A    between atoms: N_2  and  C_4
REMARK    4  A    between atoms: C_13  and  N_28
REMARK    5  A    between atoms: N_26  and  N_27
REMARK    6  A    between atoms: N_28  and  C_29
REMARK    7  A    between atoms: N_28  and  C_30
REMARK                            x       y       z     vdW  Elec       q    Type
REMARK                         _______ _______ _______ _____ _____    ______ ____
ROOT
ATOM      1  C   UNL     1      -2.075   1.805   1.168  0.00  0.00    +0.033 A 
ATOM      2  C   UNL     1      -2.805   1.560   0.011  0.00  0.00    +0.024 A 
ATOM      3  C   UNL     1      -4.171   1.760   0.003  0.00  0.00    +0.012 A 
ATOM      4  C   UNL     1      -4.819   2.206   1.143  0.00  0.00    +0.029 A 
ATOM      5  C   UNL     1      -4.096   2.452   2.299  0.00  0.00    +0.136 A 
ATOM      6  C   UNL     1      -2.722   2.247   2.312  0.00  0.00    +0.069 A 
ATOM      7  O   UNL     1      -4.709   2.885   3.427  0.00  0.00    -0.455 OA
ATOM      8  C   UNL     1      -5.930   3.468   3.359  0.00  0.00    +0.136 A 
ATOM      9  C   UNL     1      -6.358   4.267   4.412  0.00  0.00    +0.069 A 
ATOM     10  C   UNL     1      -7.604   4.872   4.362  0.00  0.00    +0.033 A 
ATOM     11  C   UNL     1      -8.424   4.678   3.257  0.00  0.00    +0.024 A 
ATOM     12  C   UNL     1      -7.996   3.884   2.213  0.00  0.00    +0.012 A 
ATOM     13  C   UNL     1      -6.752   3.279   2.259  0.00  0.00    +0.029 A 
ATOM     14  C   UNL     1      -6.309   2.417   1.108  0.00  0.00    +0.135 C 
ATOM     15  C   UNL     1      -7.024   1.103   1.133  0.00  0.00    -0.001 A 
ATOM     16  C   UNL     1      -7.047   0.089   2.066  0.00  0.00    +0.007 A 
ATOM     17  C   UNL     1      -7.833  -1.021   1.772  0.00  0.00    +0.000 A 
ATOM     18  C   UNL     1      -8.560  -1.107   0.601  0.00  0.00    +0.001 A 
ATOM     19  C   UNL     1      -8.547  -0.096  -0.347  0.00  0.00    +0.013 A 
ATOM     20  C   UNL     1      -7.760   1.024  -0.063  0.00  0.00    +0.044 A 
ATOM     21  C   UNL     1      -7.524   2.248  -0.831  0.00  0.00    +0.262 C 
ATOM     22  O   UNL     1      -8.015   2.494  -1.915  0.00  0.00    -0.269 OA
ATOM     23  N   UNL     1      -6.684   3.062  -0.161  0.00  0.00    -0.216 N 
ENDROOT
BRANCH   1  25
ATOM     24  C   UNL     1      -0.012   1.131  -0.029  0.00  0.00    +0.129 C 
ATOM     25  N   UNL     1      -0.693   1.603   1.179  0.00  0.00    -0.336 N 
ATOM     26  C   UNL     1       0.075   1.863   2.399  0.00  0.00    +0.129 C 
ENDBRANCH   1  25
BRANCH  23  27
ATOM     27  N   UNL     1      -6.252   4.285  -0.588  0.00  0.00    -0.250 NA
ATOM     28  H   UNL     1      -6.646   4.513  -1.489  0.00  0.00    +0.141 HD
ATOM     29  H   UNL     1      -6.463   5.001   0.090  0.00  0.00    +0.141 HD
ENDBRANCH  23  27
BRANCH  10  30
ATOM     30  N   UNL     1      -8.035   5.676   5.421  0.00  0.00    -0.336 N 
ATOM     31  C   UNL     1      -7.225   5.780   6.638  0.00  0.00    +0.129 C 
ATOM     32  C   UNL     1      -9.295   6.414   5.314  0.00  0.00    +0.129 C 
ENDBRANCH  10  30
TORSDOF 3
