REMARK  Name = ZINC64098204
REMARK  10 active torsions:
REMARK  status: ('A' for Active; 'I' for Inactive)
REMARK    1  A    between atoms: C_1  and  C_2
REMARK    2  A    between atoms: C_2  and  N_3
REMARK    3  A    between atoms: N_3  and  C_4
REMARK    4  A    between atoms: N_3  and  C_6
REMARK    5  A    between atoms: C_4  and  C_5
REMARK    6  A    between atoms: C_6  and  C_8
REMARK    7  A    between atoms: C_6  and  C_25
REMARK    8  A    between atoms: C_8  and  N_9
REMARK    9  A    between atoms: C_10  and  C_12
REMARK   10  A    between atoms: C_12  and  C_13
REMARK                            x       y       z     vdW  Elec       q    Type
REMARK                         _______ _______ _______ _____ _____    ______ ____
ROOT
ATOM      1  N   UNL     1       1.833  -1.511  -1.243  0.00  0.00    -0.317 N 
ATOM      2  C   UNL     1       2.568  -1.560  -2.372  0.00  0.00    +0.214 C 
ATOM      3  O   UNL     1       3.613  -2.176  -2.389  0.00  0.00    -0.276 OA
ATOM      4  H   UNL     1       0.998  -1.018  -1.230  0.00  0.00    +0.149 HD
ENDROOT
BRANCH   1   5
ATOM      5  C   UNL     1       2.295  -2.203  -0.037  0.00  0.00    +0.093 C 
BRANCH   5   6
ATOM      6  C   UNL     1       1.390  -1.834   1.140  0.00  0.00    -0.020 C 
BRANCH   6   7
ATOM      7  C   UNL     1       1.432  -2.934   2.169  0.00  0.00    -0.052 A 
ATOM      8  C   UNL     1       0.376  -3.817   2.295  0.00  0.00    +0.009 A 
ATOM      9  C   UNL     1       0.445  -4.796   3.231  0.00  0.00    +0.045 A 
ATOM     10  S   UNL     1       2.039  -4.485   3.973  0.00  0.00    -0.105 S 
ATOM     11  C   UNL     1       2.508  -3.076   2.982  0.00  0.00    +0.047 A 
ENDBRANCH   6   7
BRANCH   6  12
ATOM     12  N   UNL     1       1.860  -0.580   1.745  0.00  0.00    +0.385 N 
ATOM     13  H   UNL     1       2.759  -0.732   2.179  0.00  0.00    -0.081 HD
BRANCH  12  15
ATOM     14  C   UNL     1       2.497   1.748   1.329  0.00  0.00    -0.017 C 
ATOM     15  C   UNL     1       1.987   0.448   0.704  0.00  0.00    -0.081 C 
ENDBRANCH  12  15
BRANCH  12  16
ATOM     16  C   UNL     1       0.896  -0.134   2.759  0.00  0.00    -0.081 C 
ATOM     17  C   UNL     1       0.921  -1.099   3.946  0.00  0.00    -0.017 C 
ENDBRANCH  12  16
ENDBRANCH   6  12
ENDBRANCH   5   6
ENDBRANCH   1   5
BRANCH   2  18
ATOM     18  C   UNL     1       2.093  -0.848  -3.612  0.00  0.00    +0.112 C 
BRANCH  18  19
ATOM     19  C   UNL     1       3.011  -1.199  -4.785  0.00  0.00    +0.107 C 
ATOM     20  C   UNL     1       2.964  -2.702  -4.978  0.00  0.00    -0.004 C 
ATOM     21  C   UNL     1       2.567  -3.163  -6.198  0.00  0.00    -0.007 A 
ATOM     22  C   UNL     1       2.493  -4.599  -6.470  0.00  0.00    +0.009 A 
ATOM     23  C   UNL     1       2.093  -5.013  -7.700  0.00  0.00    +0.001 A 
ATOM     24  C   UNL     1       1.754  -4.100  -8.699  0.00  0.00    +0.002 A 
ATOM     25  C   UNL     1       1.801  -2.755  -8.510  0.00  0.00    +0.024 A 
ATOM     26  C   UNL     1       2.202  -2.222  -7.271  0.00  0.00    +0.040 A 
ATOM     27  N   UNL     1       2.244  -0.901  -7.096  0.00  0.00    -0.284 N 
ATOM     28  C   UNL     1       2.613  -0.335  -5.960  0.00  0.00    +0.225 C 
ATOM     29  O   UNL     1       2.631   0.877  -5.861  0.00  0.00    -0.275 OA
ATOM     30  H   UNL     1       1.993  -0.329  -7.838  0.00  0.00    +0.155 HD
ENDBRANCH  18  19
ENDBRANCH   2  18
TORSDOF 8
