REMARK  Name = ZINC40721428
REMARK  9 active torsions:
REMARK  status: ('A' for Active; 'I' for Inactive)
REMARK    1  A    between atoms: C_9  and  O_29
REMARK    2  A    between atoms: C_10  and  C_11
REMARK    3  A    between atoms: C_11  and  N_12
REMARK    4  A    between atoms: N_12  and  CA_13
REMARK    5  A    between atoms: CA_13  and  CB_15
REMARK    6  A    between atoms: CA_13  and  C_26
REMARK    7  A    between atoms: CB_15  and  CG_16
REMARK    8  A    between atoms: O_29  and  C_30
REMARK    9  A    between atoms: C_30  and  C_31
REMARK                            x       y       z     vdW  Elec       q    Type
REMARK                         _______ _______ _______ _____ _____    ______ ____
ROOT
ATOM      1  C   UNL     1      -0.016   1.357   0.009  0.00  0.00    +0.001 A 
ATOM      2  C   UNL     1       1.168   2.091   0.002  0.00  0.00    +0.001 A 
ATOM      3  C   UNL     1       2.378   1.468  -0.013  0.00  0.00    +0.009 A 
ATOM      4  C   UNL     1       2.438   0.064  -0.021  0.00  0.00    -0.013 A 
ATOM      5  C   UNL     1       1.232  -0.683  -0.013  0.00  0.00    -0.017 A 
ATOM      6  C   UNL     1       0.002  -0.004   0.002  0.00  0.00    +0.008 A 
ATOM      7  C   UNL     1       1.290  -2.087  -0.021  0.00  0.00    +0.012 A 
ATOM      8  C   UNL     1       2.497  -2.713  -0.036  0.00  0.00    +0.046 A 
ATOM      9  C   UNL     1       3.687  -1.979  -0.043  0.00  0.00    +0.123 A 
ATOM     10  C   UNL     1       3.668  -0.613  -0.037  0.00  0.00    -0.015 A 
ENDROOT
BRANCH  10  11
ATOM     11  C   ACE A   0       4.960   0.163  -0.046  0.00  0.00    -0.041 C 
BRANCH  11  12
ATOM     12  N   UNL     1       5.393   0.408   1.336  0.00  0.00    +0.391 N 
ATOM     13  H1  UNL     1       4.685   0.939   1.821  0.00  0.00    -0.084 HD
ATOM     14  H2  UNL     1       5.534  -0.473   1.806  0.00  0.00    -0.084 HD
BRANCH  12  15
ATOM     15  CA  UNL     1       6.652   1.165   1.327  0.00  0.00    +0.048 C 
BRANCH  15  16
ATOM     16  C   UNL     1       7.740   0.323   0.712  0.00  0.00    +0.343 C 
ATOM     17  O   UNL     1       8.658   0.855   0.113  0.00  0.00    -0.248 OA
ATOM     18  OXT UNL     1       7.702  -0.892   0.813  0.00  0.00    -0.248 OA
ENDBRANCH  15  16
BRANCH  15  19
ATOM     19  CB  UNL     1       7.039   1.528   2.762  0.00  0.00    +0.032 C 
BRANCH  19  20
ATOM     20  CG  UNL     1       6.012   2.470   3.336  0.00  0.00    -0.023 A 
ATOM     21  CD1 UNL     1       6.078   3.811   3.350  0.00  0.00    +0.087 A 
ATOM     22  NE1 UNL     1       4.964   4.327   3.954  0.00  0.00    -0.360 N 
ATOM     23  HE1 UNL     1       4.787   5.272   4.082  0.00  0.00    +0.165 HD
ATOM     24  CE2 UNL     1       4.132   3.304   4.353  0.00  0.00    +0.047 A 
ATOM     25  CD2 UNL     1       4.749   2.097   3.977  0.00  0.00    +0.003 A 
ATOM     26  CE3 UNL     1       4.123   0.880   4.252  0.00  0.00    +0.010 A 
ATOM     27  CZ3 UNL     1       2.911   0.868   4.883  0.00  0.00    +0.001 A 
ATOM     28  CH2 UNL     1       2.296   2.056   5.252  0.00  0.00    +0.002 A 
ATOM     29  CZ2 UNL     1       2.901   3.268   4.998  0.00  0.00    +0.026 A 
ENDBRANCH  19  20
ENDBRANCH  15  19
ENDBRANCH  12  15
ENDBRANCH  11  12
ENDBRANCH  10  11
BRANCH   9  30
ATOM     30  O   UNL     1       4.878  -2.633  -0.057  0.00  0.00    -0.487 OA
BRANCH  30  31
ATOM     31  C   UNL     1       4.834  -4.061  -0.064  0.00  0.00    +0.264 C 
BRANCH  31  32
ATOM     32  C   UNL     1       6.239  -4.607  -0.079  0.00  0.00    -0.010 A 
ATOM     33  C   UNL     1       6.874  -4.846  -1.283  0.00  0.00    +0.008 A 
ATOM     34  C   UNL     1       8.162  -5.347  -1.298  0.00  0.00    +0.020 A 
ATOM     35  C   UNL     1       8.816  -5.609  -0.107  0.00  0.00    +0.041 A 
ATOM     36  C   UNL     1       8.180  -5.369   1.098  0.00  0.00    +0.020 A 
ATOM     37  C   UNL     1       6.894  -4.863   1.111  0.00  0.00    +0.008 A 
ATOM     38 CL   UNL     1      10.434  -6.238  -0.125  0.00  0.00    -0.084 Cl
ENDBRANCH  31  32
ENDBRANCH  30  31
ENDBRANCH   9  30
TORSDOF 9
