REMARK  Name = ZINC61916128
REMARK  9 active torsions:
REMARK  status: ('A' for Active; 'I' for Inactive)
REMARK    1  A    between atoms: C_1  and  C_2
REMARK    2  A    between atoms: C_2  and  C_3
REMARK    3  A    between atoms: C_3  and  C_4
REMARK    4  A    between atoms: C_3  and  C_5
REMARK    5  A    between atoms: C_3  and  C_6
REMARK    6  A    between atoms: C_9  and  C_12
REMARK    7  A    between atoms: C_9  and  N_14
REMARK    8  A    between atoms: C_12  and  N_13
REMARK    9  A    between atoms: C_19  and  C_22
REMARK                            x       y       z     vdW  Elec       q    Type
REMARK                         _______ _______ _______ _____ _____    ______ ____
ROOT
ATOM      1  C   UNL     1       1.334  -1.972  -0.368  0.00  0.00    -0.005 C 
ATOM      2  C   UNL     1       2.599  -2.628   0.189  0.00  0.00    +0.006 C 
ATOM      3  C   UNL     1       2.473  -4.149   0.082  0.00  0.00    +0.021 C 
ATOM      4  C   UNL     1       2.297  -4.545  -1.385  0.00  0.00    +0.007 C 
ATOM      5  C   UNL     1       1.032  -3.889  -1.942  0.00  0.00    +0.021 C 
ATOM      6  C   UNL     1       1.158  -2.368  -1.836  0.00  0.00    +0.006 C 
ENDROOT
BRANCH   4   7
ATOM      7  N   UNL     1       3.463  -4.095  -2.157  0.00  0.00    -0.296 NA
ATOM      8  C   UNL     1       3.269  -4.340  -3.600  0.00  0.00    +0.087 C 
ATOM      9  C   UNL     1       4.093  -3.343  -4.377  0.00  0.00    +0.043 C 
ATOM     10  C   UNL     1       5.497  -3.883  -4.685  0.00  0.00    +0.161 C 
ATOM     11  O   UNL     1       6.077  -4.586  -3.569  0.00  0.00    -0.376 OA
ATOM     12  C   UNL     1       5.897  -4.011  -2.298  0.00  0.00    +0.129 C 
ATOM     13  C   UNL     1       4.651  -4.631  -1.633  0.00  0.00    +0.116 C 
ATOM     14  C   UNL     1       7.130  -4.287  -1.433  0.00  0.00    +0.039 C 
ENDBRANCH   4   7
BRANCH   1  15
ATOM     15  C   UNL     1       1.459  -0.451  -0.262  0.00  0.00    -0.032 C 
ATOM     16  C   UNL     1       0.194   0.206  -0.819  0.00  0.00    +0.011 C 
ATOM     17  C   UNL     1       2.674   0.018  -1.066  0.00  0.00    +0.011 C 
BRANCH  15  19
ATOM     18  C   UNL     1       1.761   1.466   1.312  0.00  0.00    +0.004 C 
ATOM     19  C   UNL     1       1.635  -0.055   1.205  0.00  0.00    +0.003 C 
ENDBRANCH  15  19
ENDBRANCH   1  15
BRANCH   4  20
ATOM     20  C   UNL     1       2.171  -6.066  -1.491  0.00  0.00    -0.064 C 
BRANCH  20  21
ATOM     21  N   UNL     1       3.067  -6.701  -0.515  0.00  0.00    +0.379 N 
ATOM     22  H   UNL     1       3.991  -6.306  -0.600  0.00  0.00    -0.090 HD
ATOM     23  H   UNL     1       2.717  -6.539   0.417  0.00  0.00    -0.090 HD
ATOM     24  H   UNL     1       3.107  -7.694  -0.691  0.00  0.00    -0.090 HD
ENDBRANCH  20  21
ENDBRANCH   4  20
TORSDOF 5
