REMARK  Name = ZINC25521521
REMARK  9 active torsions:
REMARK  status: ('A' for Active; 'I' for Inactive)
REMARK    1  A    between atoms: C_1  and  C_2
REMARK    2  A    between atoms: C_2  and  C_4
REMARK    3  A    between atoms: C_2  and  N_16
REMARK    4  A    between atoms: N_6  and  C_7
REMARK    5  A    between atoms: N_6  and  C_10
REMARK    6  A    between atoms: C_7  and  C_8
REMARK    7  A    between atoms: C_10  and  C_11
REMARK    8  A    between atoms: N_19  and  C_22
REMARK    9  A    between atoms: C_27  and  O_28
REMARK                            x       y       z     vdW  Elec       q    Type
REMARK                         _______ _______ _______ _____ _____    ______ ____
ROOT
ATOM      1  N   UNL     1      -0.885  -2.327  -0.184  0.00  0.00    +0.389 N 
ATOM      2  C   UNL     1      -0.784  -1.662   1.123  0.00  0.00    -0.059 C 
ATOM      3  C   UNL     1      -0.279  -0.231   0.927  0.00  0.00    +0.086 C 
ATOM      4  N   UNL     1       1.027  -0.264   0.253  0.00  0.00    -0.331 N 
ATOM      5  C   UNL     1       0.926  -0.928  -1.054  0.00  0.00    +0.086 C 
ATOM      6  C   UNL     1       0.420  -2.360  -0.857  0.00  0.00    -0.059 C 
ATOM      7  H   UNL     1      -1.576  -1.743  -0.810  0.00  0.00    -0.081 HD
ENDROOT
BRANCH   4   8
ATOM      8  C   UNL     1       1.555   1.026   0.121  0.00  0.00    +0.072 A 
ATOM      9  C   UNL     1       0.864   1.990  -0.598  0.00  0.00    +0.027 A 
ATOM     10  C   UNL     1       1.386   3.264  -0.724  0.00  0.00    +0.002 A 
ATOM     11  C   UNL     1       2.601   3.577  -0.144  0.00  0.00    +0.004 A 
ATOM     12  C   UNL     1       3.298   2.620   0.570  0.00  0.00    +0.047 A 
ATOM     13  C   UNL     1       2.780   1.342   0.705  0.00  0.00    +0.138 A 
BRANCH  13  14
ATOM     14  O   UNL     1       3.464   0.399   1.406  0.00  0.00    -0.505 OA
ATOM     15  H   UNL     1       4.431   0.651   1.867  0.00  0.00    +0.292 HD
ENDBRANCH  13  14
ENDBRANCH   4   8
BRANCH   1  17
ATOM     16  C   UNL     1      -0.373  -4.612   0.533  0.00  0.00    -0.004 C 
ATOM     17  C   UNL     1      -1.440  -3.680  -0.044  0.00  0.00    +0.016 C 
BRANCH  17  18
ATOM     18  C   UNL     1      -1.872  -4.188  -1.396  0.00  0.00    +0.202 C 
ATOM     19  O   UNL     1      -1.345  -3.760  -2.401  0.00  0.00    -0.277 OA
ATOM     20  N   UNL     1      -2.843  -5.117  -1.488  0.00  0.00    -0.294 N 
BRANCH  20  21
ATOM     21  C   UNL     1      -3.381  -5.737  -0.275  0.00  0.00    +0.134 C 
BRANCH  21  22
ATOM     22  C   UNL     1      -4.460  -4.857   0.303  0.00  0.00    -0.016 C 
ATOM     23  C   UNL     1      -5.654  -5.346   0.527  0.00  0.00    +0.005 C 
ENDBRANCH  21  22
ENDBRANCH  20  21
BRANCH  20  24
ATOM     24  C   UNL     1      -3.360  -5.509  -2.802  0.00  0.00    +0.150 C 
BRANCH  24  25
ATOM     25  C   UNL     1      -2.553  -6.663  -3.336  0.00  0.00    +0.007 A 
ATOM     26  C   UNL     1      -2.754  -7.994  -3.172  0.00  0.00    +0.013 A 
ATOM     27  C   UNL     1      -1.876  -8.882  -3.765  0.00  0.00    +0.008 A 
ATOM     28  C   UNL     1      -0.835  -8.397  -4.483  0.00  0.00    +0.045 A 
ATOM     29  S   UNL     1      -1.079  -6.634  -4.343  0.00  0.00    -0.100 S 
ENDBRANCH  24  25
ENDBRANCH  20  24
ENDBRANCH  17  18
ENDBRANCH   1  17
TORSDOF 8
