REMARK  Name = ZINC43630513
REMARK  6 active torsions:
REMARK  status: ('A' for Active; 'I' for Inactive)
REMARK    1  A    between atoms: C_5  and  C_25
REMARK    2  A    between atoms: C_6  and  C_11
REMARK    3  A    between atoms: C_11  and  N_12
REMARK    4  A    between atoms: N_12  and  C_13
REMARK    5  A    between atoms: C_13  and  C_14
REMARK    6  A    between atoms: C_14  and  C_15
REMARK                            x       y       z     vdW  Elec       q    Type
REMARK                         _______ _______ _______ _____ _____    ______ ____
ROOT
ATOM      1  C   UNL     1      -0.017   1.402   0.010  0.00  0.00    +0.025 A 
ATOM      2  C   UNL     1       1.154   2.092   0.002  0.00  0.00    +0.048 A 
ATOM      3  C   UNL     1       2.375   1.383  -0.013  0.00  0.00    +0.139 A 
ATOM      4  N   UNL     1       3.634   1.789  -0.024  0.00  0.00    -0.223 NA
ATOM      5  C   UNL     1       4.441   0.712  -0.037  0.00  0.00    +0.146 A 
ATOM      6  C   UNL     1       3.658  -0.407  -0.035  0.00  0.00    +0.039 A 
ATOM      7  N   UNL     1       2.362   0.011  -0.021  0.00  0.00    -0.303 N 
ATOM      8  C   UNL     1       1.176  -0.669  -0.013  0.00  0.00    +0.113 A 
ATOM      9  C   UNL     1       0.002  -0.004   0.002  0.00  0.00    +0.058 A 
ATOM     10 CL   UNL     1      -1.492  -0.888   0.011  0.00  0.00    -0.082 Cl
ENDROOT
BRANCH   5  11
ATOM     11  C   UNL     1       5.917   0.737  -0.052  0.00  0.00    +0.267 C 
ATOM     12  O   UNL     1       6.542  -0.306  -0.064  0.00  0.00    -0.268 OA
ATOM     13  N   UNL     1       6.571   1.915  -0.052  0.00  0.00    -0.296 N 
ATOM     14  C   UNL     1       5.823   3.180  -0.032  0.00  0.00    +0.108 C 
ATOM     15  C   UNL     1       5.133   3.327   1.318  0.00  0.00    +0.019 C 
ATOM     16  C   UNL     1       6.186   3.649   2.392  0.00  0.00    +0.002 C 
ATOM     17  C   UNL     1       6.926   2.373   2.776  0.00  0.00    +0.000 C 
ATOM     18  C   UNL     1       8.402   2.449   2.347  0.00  0.00    +0.002 C 
ATOM     19  C   UNL     1       8.499   3.009   0.928  0.00  0.00    +0.019 C 
ATOM     20  C   UNL     1       8.024   1.948  -0.067  0.00  0.00    +0.108 C 
ENDBRANCH   5  11
BRANCH   6  21
ATOM     21  C   UNL     1       4.138  -1.835  -0.048  0.00  0.00    -0.025 C 
BRANCH  21  22
ATOM     22  N   UNL     1       4.281  -2.292  -1.437  0.00  0.00    +0.383 N 
ATOM     23  H   UNL     1       3.388  -2.233  -1.904  0.00  0.00    -0.085 HD
ATOM     24  H   UNL     1       4.950  -1.708  -1.916  0.00  0.00    -0.085 HD
BRANCH  22  25
ATOM     25  C   UNL     1       4.749  -3.684  -1.449  0.00  0.00    -0.082 C 
BRANCH  25  26
ATOM     26  C   UNL     1       4.897  -4.160  -2.896  0.00  0.00    -0.015 C 
BRANCH  26  27
ATOM     27  C   UNL     1       5.385  -5.610  -2.908  0.00  0.00    -0.005 C 
ATOM     28  C   UNL     1       6.841  -5.699  -2.391  0.00  0.00    +0.011 C 
ATOM     29  C   UNL     1       7.631  -6.277  -3.609  0.00  0.00    +0.012 C 
ATOM     30  C   UNL     1       6.880  -5.569  -4.795  0.00  0.00    +0.015 C 
ATOM     31  C   UNL     1       5.475  -6.146  -4.373  0.00  0.00    +0.015 C 
ATOM     32  C   UNL     1       5.841  -7.626  -4.206  0.00  0.00    -0.027 C 
ATOM     33  C   UNL     1       7.101  -7.709  -3.752  0.00  0.00    -0.027 C 
ENDBRANCH  26  27
ENDBRANCH  25  26
ENDBRANCH  22  25
ENDBRANCH  21  22
ENDBRANCH   6  21
TORSDOF 6
