REMARK  Name = ZINC42954916
REMARK  8 active torsions:
REMARK  status: ('A' for Active; 'I' for Inactive)
REMARK    1  A    between atoms: C_1  and  C_2
REMARK    2  A    between atoms: C_2  and  C_3
REMARK    3  A    between atoms: C_3  and  C_5
REMARK    4  A    between atoms: C_3  and  N_24
REMARK    5  A    between atoms: C_5  and  C_7
REMARK    6  A    between atoms: C_5  and  N_14
REMARK    7  A    between atoms: C_18  and  C_20
REMARK    8  A    between atoms: N_22  and  C_23
REMARK                            x       y       z     vdW  Elec       q    Type
REMARK                         _______ _______ _______ _____ _____    ______ ____
ROOT
ATOM      1  C   UNL     1      -2.536  -1.370  -0.659  0.00  0.00    -0.052 C 
ENDROOT
BRANCH   1   2
ATOM      2  C   UNL     1      -2.751  -1.844   0.755  0.00  0.00    -0.062 A 
ATOM      3  C   UNL     1      -1.694  -1.866   1.645  0.00  0.00    +0.003 A 
ATOM      4  C   UNL     1      -1.891  -2.300   2.942  0.00  0.00    +0.015 A 
ATOM      5  C   UNL     1      -3.146  -2.713   3.350  0.00  0.00    +0.018 A 
ATOM      6  C   UNL     1      -4.204  -2.691   2.459  0.00  0.00    +0.015 A 
ATOM      7  C   UNL     1      -4.008  -2.252   1.164  0.00  0.00    +0.003 A 
ATOM      8 BR   UNL     1      -3.416  -3.308   5.125  0.00  0.00    -0.050 Br
ENDBRANCH   1   2
BRANCH   1   9
ATOM      9  N   UNL     1      -1.252  -1.880  -1.157  0.00  0.00    +0.391 N 
ATOM     10  C   UNL     1      -1.227  -3.364  -1.083  0.00  0.00    -0.077 C 
ATOM     11  C   UNL     1      -0.136  -3.752  -2.112  0.00  0.00    -0.020 C 
ATOM     12  C   UNL     1      -0.351  -2.724  -3.248  0.00  0.00    -0.008 C 
ATOM     13  C   UNL     1      -1.090  -1.545  -2.588  0.00  0.00    +0.020 C 
ATOM     14  H   UNL     1      -0.491  -1.492  -0.620  0.00  0.00    -0.080 HD
BRANCH  13  15
ATOM     15  C   UNL     1      -0.276  -0.284  -2.731  0.00  0.00    +0.199 C 
ATOM     16  O   UNL     1       0.562  -0.006  -1.900  0.00  0.00    -0.278 OA
ATOM     17  N   UNL     1      -0.480   0.533  -3.783  0.00  0.00    -0.320 N 
ATOM     18  C   UNL     1       0.310   1.759  -3.922  0.00  0.00    +0.128 C 
ATOM     19  H   UNL     1      -1.151   0.311  -4.448  0.00  0.00    +0.148 HD
ENDBRANCH  13  15
ENDBRANCH   1   9
BRANCH   1  20
ATOM     20  C   UNL     1      -2.523   0.160  -0.688  0.00  0.00    -0.085 C 
BRANCH  20  21
ATOM     21  N   UNL     1      -3.818   0.670  -0.218  0.00  0.00    +0.379 N 
ATOM     22  H   UNL     1      -3.982   0.353   0.726  0.00  0.00    -0.090 HD
ATOM     23  H   UNL     1      -3.809   1.679  -0.236  0.00  0.00    -0.090 HD
ATOM     24  H   UNL     1      -4.552   0.329  -0.820  0.00  0.00    -0.090 HD
ENDBRANCH  20  21
BRANCH  20  26
ATOM     25  C   UNL     1      -1.301   2.197   0.087  0.00  0.00    +0.002 C 
ATOM     26  C   UNL     1      -1.409   0.677   0.225  0.00  0.00    -0.021 C 
ENDBRANCH  20  26
ENDBRANCH   1  20
TORSDOF 6
