REMARK  Name = ZINC04549047
REMARK  5 active torsions:
REMARK  status: ('A' for Active; 'I' for Inactive)
REMARK    1  A    between atoms: C_1  and  N_2
REMARK    2  A    between atoms: C_4  and  C_11
REMARK    3  A    between atoms: N_12  and  C_13
REMARK    4  A    between atoms: C_14  and  C_22
REMARK    5  A    between atoms: N_24  and  C_25
REMARK                            x       y       z     vdW  Elec       q    Type
REMARK                         _______ _______ _______ _____ _____    ______ ____
ROOT
ATOM      1  C   UNL     1      -1.260   1.528   3.640  0.00  0.00    +0.114 A 
ATOM      2  C   UNL     1      -0.542   0.984   2.568  0.00  0.00    +0.073 A 
ATOM      3  C   UNL     1      -0.732   1.581   1.260  0.00  0.00    -0.023 A 
ATOM      4  C   UNL     1      -1.599   2.620   1.190  0.00  0.00    -0.004 A 
ATOM      5  S   UNL     1      -2.186   2.837   2.848  0.00  0.00    -0.073 S 
ATOM      6  C   UNL     1      -1.971   3.411  -0.026  0.00  0.00    +0.043 C 
ATOM      7  C   UNL     1      -0.948   3.111  -1.131  0.00  0.00    +0.005 C 
ATOM      8  C   UNL     1      -0.757   1.595  -1.227  0.00  0.00    +0.005 C 
ATOM      9  C   UNL     1      -0.013   1.086   0.008  0.00  0.00    +0.037 C 
ENDROOT
BRANCH   2  10
ATOM     10  C   UNL     1       0.369  -0.147   2.762  0.00  0.00    +0.247 C 
ATOM     11  O   UNL     1       1.539   0.053   3.032  0.00  0.00    -0.270 OA
ATOM     12  N   UNL     1      -0.088  -1.409   2.640  0.00  0.00    -0.308 N 
ATOM     13  H   UNL     1      -1.020  -1.568   2.425  0.00  0.00    +0.149 HD
BRANCH  12  14
ATOM     14  C   UNL     1       0.823  -2.540   2.833  0.00  0.00    +0.073 C 
ATOM     15  C   UNL     1       1.554  -2.835   1.522  0.00  0.00    +0.022 C 
ATOM     16  C   UNL     1       2.506  -4.016   1.724  0.00  0.00    +0.002 C 
ATOM     17  C   UNL     1       1.705  -5.249   2.150  0.00  0.00    +0.000 C 
ATOM     18  C   UNL     1       0.973  -4.954   3.461  0.00  0.00    +0.002 C 
ATOM     19  C   UNL     1       0.022  -3.772   3.259  0.00  0.00    +0.022 C 
ENDBRANCH  12  14
ENDBRANCH   2  10
BRANCH   1  21
ATOM     20  C   UNL     1      -2.005   1.794   5.804  0.00  0.00    +0.122 C 
ATOM     21  N   UNL     1      -1.256   1.156   4.937  0.00  0.00    -0.247 NA
BRANCH  20  25
ATOM     22  C   UNL     1      -3.052   1.644  10.684  0.00  0.00    +0.149 C 
ATOM     23  N   UNL     1      -2.457   1.310   9.388  0.00  0.00    -0.349 N 
ATOM     24  C   UNL     1      -2.723   1.954   8.225  0.00  0.00    +0.096 A 
ATOM     25  C   UNL     1      -2.001   1.391   7.210  0.00  0.00    +0.018 A 
ATOM     26  C   UNL     1      -1.223   0.292   7.812  0.00  0.00    +0.008 A 
ATOM     27  C   UNL     1      -1.546   0.294   9.178  0.00  0.00    +0.049 A 
ATOM     28  C   UNL     1      -0.956  -0.642  10.021  0.00  0.00    +0.026 A 
ATOM     29  C   UNL     1      -0.059  -1.556   9.511  0.00  0.00    +0.002 A 
ATOM     30  C   UNL     1       0.263  -1.554   8.162  0.00  0.00    +0.001 A 
ATOM     31  C   UNL     1      -0.311  -0.634   7.312  0.00  0.00    +0.010 A 
ENDBRANCH  20  25
ENDBRANCH   1  21
TORSDOF 4
