REMARK  Name = ZINC06087408
REMARK  6 active torsions:
REMARK  status: ('A' for Active; 'I' for Inactive)
REMARK    1  A    between atoms: C_1  and  C_2
REMARK    2  A    between atoms: C_2  and  N_3
REMARK    3  A    between atoms: N_3  and  C_4
REMARK    4  A    between atoms: C_11  and  C_13
REMARK    5  A    between atoms: C_13  and  N_14
REMARK    6  A    between atoms: C_22  and  C_24
REMARK                            x       y       z     vdW  Elec       q    Type
REMARK                         _______ _______ _______ _____ _____    ______ ____
ROOT
ATOM      1  N   UNL     1       4.090  -1.160  -0.134  0.00  0.00    -0.215 N 
ATOM      2  C   UNL     1       5.161  -0.550   0.413  0.00  0.00    +0.247 C 
ATOM      3  O   UNL     1       5.200   0.551   0.920  0.00  0.00    -0.273 OA
ATOM      4  C   UNL     1       6.304  -1.528   0.262  0.00  0.00    +0.115 C 
ATOM      5  C   UNL     1       7.409  -0.925  -0.599  0.00  0.00    +0.035 C 
ATOM      6  C   UNL     1       7.996   0.300   0.108  0.00  0.00    +0.003 C 
ATOM      7  C   UNL     1       8.556  -0.118   1.469  0.00  0.00    +0.000 C 
ATOM      8  C   UNL     1       7.433  -0.702   2.328  0.00  0.00    +0.006 C 
ATOM      9  C   UNL     1       6.843  -1.930   1.630  0.00  0.00    +0.018 C 
ATOM     10  C   UNL     1       5.706  -2.503   2.478  0.00  0.00    +0.010 C 
ATOM     11  N   UNL     1       5.698  -2.683  -0.413  0.00  0.00    -0.285 N 
ATOM     12  C   UNL     1       4.399  -2.377  -0.599  0.00  0.00    +0.310 C 
ATOM     13  O   UNL     1       3.599  -3.121  -1.131  0.00  0.00    -0.252 OA
ATOM     14  H   UNL     1       6.143  -3.505  -0.671  0.00  0.00    +0.151 HD
ENDROOT
BRANCH   1  15
ATOM     15  C   UNL     1       2.752  -0.567  -0.206  0.00  0.00    +0.214 C 
BRANCH  15  17
ATOM     16  N   UNL     1       0.711  -0.489   1.189  0.00  0.00    -0.270 N 
ATOM     17  C   UNL     1       1.976  -0.928   1.034  0.00  0.00    +0.238 C 
ATOM     18  O   UNL     1       2.489  -1.613   1.894  0.00  0.00    -0.274 OA
BRANCH  16  19
ATOM     19  C   UNL     1       0.024  -0.738   2.384  0.00  0.00    +0.036 A 
ATOM     20  C   UNL     1       0.428  -0.120   3.559  0.00  0.00    +0.026 A 
ATOM     21  C   UNL     1      -0.250  -0.367   4.737  0.00  0.00    +0.040 A 
ATOM     22  C   UNL     1      -1.333  -1.230   4.745  0.00  0.00    +0.124 A 
ATOM     23  C   UNL     1      -1.737  -1.848   3.574  0.00  0.00    +0.040 A 
ATOM     24  C   UNL     1      -1.065  -1.599   2.393  0.00  0.00    +0.026 A 
ATOM     25  F   UNL     1      -1.994  -1.471   5.898  0.00  0.00    -0.205 F 
ENDBRANCH  16  19
BRANCH  16  27
ATOM     26  C   UNL     1       0.321   1.745   0.274  0.00  0.00    +0.025 C 
ATOM     27  C   UNL     1       0.054   0.248   0.107  0.00  0.00    +0.110 C 
ENDBRANCH  16  27
ENDBRANCH  15  17
ENDBRANCH   1  15
TORSDOF 4
