REMARK  Name = ZINC02042104
REMARK  3 active torsions:
REMARK  status: ('A' for Active; 'I' for Inactive)
REMARK    1  A    between atoms: C_1  and  C_2
REMARK    2  A    between atoms: C_6  and  C_10
REMARK    3  A    between atoms: C_6  and  C_11
REMARK                            x       y       z     vdW  Elec       q    Type
REMARK                         _______ _______ _______ _____ _____    ______ ____
ROOT
ATOM      1  C   UNL     1       2.260   0.731   0.810  0.00  0.00    +0.028 C 
ATOM      2  C   UNL     1       1.291   1.592  -0.002  0.00  0.00    +0.080 C 
ATOM      3  C   UNL     1       1.268   3.002   0.590  0.00  0.00    +0.092 C 
ATOM      4  S   UNL     1      -0.057   3.940  -0.235  0.00  0.00    -0.143 S 
ATOM      5  C   UNL     1      -1.533   2.963   0.184  0.00  0.00    +0.087 C 
ATOM      6  C   UNL     1      -1.213   1.504   0.017  0.00  0.00    +0.229 C 
ATOM      7  O   UNL     1      -2.152   0.749  -0.118  0.00  0.00    -0.274 OA
ATOM      8  N   UNL     1      -0.011   0.966   0.007  0.00  0.00    -0.311 N 
ATOM      9  C   UNL     1      -1.936   3.240   1.634  0.00  0.00    +0.032 C 
ATOM     10  C   UNL     1      -2.682   3.343  -0.751  0.00  0.00    +0.032 C 
ATOM     11  H   UNL     1       0.002  -0.004   0.002  0.00  0.00    +0.149 HD
ENDROOT
TORSDOF 0
