REMARK  Name = ZINC05098802
REMARK  11 active torsions:
REMARK  status: ('A' for Active; 'I' for Inactive)
REMARK    1  A    between atoms: C_1  and  C_2
REMARK    2  A    between atoms: C_2  and  C_3
REMARK    3  A    between atoms: C_2  and  C_4
REMARK    4  A    between atoms: C_2  and  C_6
REMARK    5  A    between atoms: N_8  and  C_9
REMARK    6  A    between atoms: C_9  and  C_10
REMARK    7  A    between atoms: C_10  and  C_12
REMARK    8  A    between atoms: C_10  and  N_61
REMARK    9  A    between atoms: C_15  and  N_18
REMARK   10  A    between atoms: N_18  and  C_19
REMARK   11  A    between atoms: N_18  and  C_20
REMARK                            x       y       z     vdW  Elec       q    Type
REMARK                         _______ _______ _______ _____ _____    ______ ____
ROOT
ATOM      1  C   UNL     1       2.490   1.044  -0.016  0.00  0.00    -0.020 C 
ENDROOT
BRANCH   1  11
ATOM      2  C   UNL     1       3.097   1.835   2.193  0.00  0.00    -0.073 C 
ATOM      3  C   UNL     1       4.309   2.284   3.009  0.00  0.00    +0.017 C 
ATOM      4  C   UNL     1       4.898   3.535   2.409  0.00  0.00    -0.048 A 
ATOM      5  C   UNL     1       5.764   4.294   3.182  0.00  0.00    +0.004 A 
ATOM      6  C   UNL     1       6.328   5.446   2.670  0.00  0.00    +0.000 A 
ATOM      7  C   UNL     1       6.027   5.844   1.380  0.00  0.00    +0.000 A 
ATOM      8  C   UNL     1       5.165   5.090   0.611  0.00  0.00    +0.002 A 
ATOM      9  C   UNL     1       4.595   3.933   1.125  0.00  0.00    -0.061 A 
ATOM     10  C   UNL     1       3.653   3.149   0.251  0.00  0.00    -0.042 C 
ATOM     11  N   UNL     1       3.502   1.780   0.774  0.00  0.00    +0.388 N 
ATOM     12  H   UNL     1       4.403   1.292   0.701  0.00  0.00    -0.080 HD
ENDBRANCH   1  11
BRANCH   1  13
ATOM     13  C   UNL     1       1.121   1.635   0.208  0.00  0.00    -0.059 A 
ATOM     14  C   UNL     1       0.197   0.961   0.984  0.00  0.00    +0.004 A 
ATOM     15  C   UNL     1      -1.060   1.497   1.186  0.00  0.00    +0.023 A 
ATOM     16  C   UNL     1      -1.390   2.721   0.619  0.00  0.00    +0.029 A 
ATOM     17  C   UNL     1      -0.459   3.396  -0.160  0.00  0.00    +0.023 A 
ATOM     18  C   UNL     1       0.794   2.852  -0.363  0.00  0.00    +0.004 A 
BRANCH  16  19
ATOM     19  N   UNL     1      -2.658   3.268   0.826  0.00  0.00    -0.336 N 
ATOM     20  C   UNL     1      -3.007   4.557   0.222  0.00  0.00    +0.129 C 
ATOM     21  C   UNL     1      -3.639   2.555   1.647  0.00  0.00    +0.129 C 
ENDBRANCH  16  19
ENDBRANCH   1  13
BRANCH   1  22
ATOM     22  C   UNL     1       2.848   1.135  -1.501  0.00  0.00    +0.093 C 
BRANCH  22  25
ATOM     23  C   UNL     1       4.758   0.662  -2.938  0.00  0.00    +0.220 C 
ATOM     24  O   UNL     1       4.101   1.038  -3.885  0.00  0.00    -0.275 OA
ATOM     25  N   UNL     1       4.223   0.671  -1.701  0.00  0.00    -0.316 N 
ATOM     26  H   UNL     1       4.748   0.370  -0.943  0.00  0.00    +0.149 HD
BRANCH  23  28
ATOM     27  C   UNL     1       7.129   1.061  -2.333  0.00  0.00    +0.022 C 
ATOM     28  C   UNL     1       6.172   0.184  -3.143  0.00  0.00    +0.055 C 
ATOM     29  C   UNL     1       6.293  -1.268  -2.678  0.00  0.00    +0.022 C 
BRANCH  28  30
ATOM     30  C   UNL     1       6.530   0.275  -4.628  0.00  0.00    +0.124 C 
ATOM     31 CL   UNL     1       8.223  -0.296  -4.874  0.00  0.00    -0.124 Cl
ENDBRANCH  28  30
ENDBRANCH  23  28
ENDBRANCH  22  25
ENDBRANCH   1  22
TORSDOF 7
