REMARK  Name = ZINC66344138
REMARK  7 active torsions:
REMARK  status: ('A' for Active; 'I' for Inactive)
REMARK    1  A    between atoms: C_1  and  C_2
REMARK    2  A    between atoms: C_2  and  C_4
REMARK    3  A    between atoms: C_2  and  N_10
REMARK    4  A    between atoms: C_4  and  C_5
REMARK    5  A    between atoms: N_13  and  C_14
REMARK    6  A    between atoms: C_14  and  C_15
REMARK    7  A    between atoms: N_19  and  C_21
REMARK                            x       y       z     vdW  Elec       q    Type
REMARK                         _______ _______ _______ _____ _____    ______ ____
ROOT
ATOM      1  N   UNL     1      -1.372  -0.511   0.012  0.00  0.00    -0.296 N 
ATOM      2  C   UNL     1      -2.051  -0.643  -1.145  0.00  0.00    +0.300 C 
ATOM      3  O   UNL     1      -1.522  -0.341  -2.197  0.00  0.00    -0.253 OA
ATOM      4  N   UNL     1      -3.315  -1.109  -1.135  0.00  0.00    -0.299 N 
ATOM      5  H   UNL     1      -1.794  -0.752   0.852  0.00  0.00    +0.151 HD
ATOM      6  H   UNL     1      -3.737  -1.350  -0.295  0.00  0.00    +0.150 HD
ENDROOT
BRANCH   1   8
ATOM      7  C   UNL     1      -0.019   1.526   0.010  0.00  0.00    +0.028 C 
ATOM      8  C   UNL     1       0.002  -0.004   0.002  0.00  0.00    +0.076 C 
BRANCH   8   9
ATOM      9  C   UNL     1       0.742  -0.511   1.242  0.00  0.00    +0.064 C 
BRANCH   9  10
ATOM     10  C   UNL     1       0.870  -2.011   1.172  0.00  0.00    -0.008 A 
ATOM     11  C   UNL     1       1.863  -2.759   0.631  0.00  0.00    +0.011 A 
ATOM     12  C   UNL     1       1.768  -4.137   0.683  0.00  0.00    +0.008 A 
ATOM     13  C   UNL     1       0.686  -4.699   1.274  0.00  0.00    +0.045 A 
ATOM     14  S   UNL     1      -0.243  -3.264   1.787  0.00  0.00    -0.102 S 
ENDBRANCH   9  10
ENDBRANCH   8   9
ENDBRANCH   1   8
BRANCH   4  15
ATOM     15  C   UNL     1      -4.053  -1.252  -2.393  0.00  0.00    +0.110 C 
BRANCH  15  16
ATOM     16  C   UNL     1      -5.453  -1.797  -2.104  0.00  0.00    +0.025 C 
ATOM     17  C   UNL     1      -5.389  -3.275  -1.635  0.00  0.00    +0.025 C 
ATOM     18  C   UNL     1      -6.768  -3.829  -2.049  0.00  0.00    +0.105 C 
ATOM     19  N   UNL     1      -7.282  -2.965  -3.121  0.00  0.00    -0.330 N 
ATOM     20  C   UNL     1      -6.281  -1.920  -3.407  0.00  0.00    +0.110 C 
BRANCH  19  21
ATOM     21  C   UNL     1      -8.515  -3.109  -3.764  0.00  0.00    +0.030 A 
ATOM     22  C   UNL     1      -8.882  -2.225  -4.771  0.00  0.00    +0.026 A 
ATOM     23  C   UNL     1     -10.101  -2.370  -5.405  0.00  0.00    +0.040 A 
ATOM     24  C   UNL     1     -10.956  -3.396  -5.037  0.00  0.00    +0.124 A 
ATOM     25  C   UNL     1     -10.592  -4.278  -4.034  0.00  0.00    +0.040 A 
ATOM     26  C   UNL     1      -9.372  -4.140  -3.401  0.00  0.00    +0.026 A 
ATOM     27  F   UNL     1     -12.147  -3.535  -5.659  0.00  0.00    -0.205 F 
ENDBRANCH  19  21
ENDBRANCH  15  16
ENDBRANCH   4  15
TORSDOF 6
