REMARK  Name = ZINC14470577
REMARK  7 active torsions:
REMARK  status: ('A' for Active; 'I' for Inactive)
REMARK    1  A    between atoms: C_1  and  C_2
REMARK    2  A    between atoms: C_2  and  N_3
REMARK    3  A    between atoms: N_3  and  C_4
REMARK    4  A    between atoms: N_3  and  C_6
REMARK    5  A    between atoms: C_4  and  C_5
REMARK    6  A    between atoms: C_19  and  C_22
REMARK    7  A    between atoms: C_26  and  N_28
REMARK                            x       y       z     vdW  Elec       q    Type
REMARK                         _______ _______ _______ _____ _____    ______ ____
ROOT
ATOM      1  C   UNL     1       0.501  -1.932  -1.297  0.00  0.00    +0.014 A 
ATOM      2  C   UNL     1       0.924  -2.796  -0.303  0.00  0.00    +0.023 A 
ATOM      3  C   UNL     1       0.720  -4.154  -0.433  0.00  0.00    +0.025 A 
ATOM      4  C   UNL     1       0.092  -4.665  -1.562  0.00  0.00    +0.031 A 
ATOM      5  C   UNL     1      -0.323  -3.786  -2.569  0.00  0.00    -0.018 A 
ATOM      6  C   UNL     1      -0.128  -2.429  -2.424  0.00  0.00    +0.027 A 
ATOM      7  C   UNL     1      -0.951  -4.373  -3.772  0.00  0.00    +0.049 C 
ATOM      8  C   UNL     1      -1.925  -3.615  -4.599  0.00  0.00    -0.023 C 
ATOM      9  C   UNL     1      -2.791  -4.472  -5.127  0.00  0.00    -0.030 C 
ATOM     10  C   UNL     1      -2.474  -5.892  -4.656  0.00  0.00    +0.033 C 
ATOM     11  C   UNL     1      -1.786  -5.609  -3.319  0.00  0.00    +0.029 C 
ATOM     12  C   UNL     1      -0.769  -6.636  -2.854  0.00  0.00    +0.105 C 
ATOM     13  N   UNL     1      -0.122  -6.045  -1.662  0.00  0.00    -0.336 N 
ATOM     14  H   UNL     1       0.159  -6.624  -0.936  0.00  0.00    +0.147 HD
ENDROOT
BRANCH  12  15
ATOM     15  C   UNL     1      -1.460  -7.925  -2.489  0.00  0.00    -0.025 A 
ATOM     16  C   UNL     1      -2.089  -8.049  -1.264  0.00  0.00    +0.007 A 
ATOM     17  C   UNL     1      -2.723  -9.230  -0.929  0.00  0.00    +0.022 A 
ATOM     18  C   UNL     1      -2.728 -10.289  -1.820  0.00  0.00    +0.071 A 
ATOM     19  C   UNL     1      -2.099 -10.164  -3.046  0.00  0.00    +0.145 A 
ATOM     20  C   UNL     1      -1.470  -8.980  -3.382  0.00  0.00    +0.039 A 
ATOM     21 CL   UNL     1      -3.525 -11.773  -1.400  0.00  0.00    -0.081 Cl
BRANCH  19  22
ATOM     22  N   UNL     1      -2.105 -11.296  -3.999  0.00  0.00    +0.058 N 
ATOM     23  O   UNL     1      -1.554 -11.186  -5.071  0.00  0.00    -0.126 OA
ATOM     24  O   UNL     1      -2.659 -12.329  -3.707  0.00  0.00    -0.126 OA
ENDBRANCH  19  22
ENDBRANCH  12  15
BRANCH   1  25
ATOM     25  N   UNL     1       0.703  -0.555  -1.160  0.00  0.00    -0.394 NA
ATOM     26  H   UNL     1       0.332  -0.078  -1.968  0.00  0.00    +0.126 HD
BRANCH  25  28
ATOM     27  C   UNL     1      -1.495  -0.229  -0.130  0.00  0.00    +0.022 C 
ATOM     28  C   UNL     1       0.017  -0.078   0.048  0.00  0.00    +0.081 C 
ENDBRANCH  25  28
BRANCH  25  29
ATOM     29  C   UNL     1       2.142  -0.280  -1.047  0.00  0.00    +0.081 C 
ATOM     30  C   UNL     1       2.837  -0.660  -2.356  0.00  0.00    +0.022 C 
ENDBRANCH  25  29
ENDBRANCH   1  25
TORSDOF 5
