REMARK  Name = ZINC05095170
REMARK  6 active torsions:
REMARK  status: ('A' for Active; 'I' for Inactive)
REMARK    1  A    between atoms: C_1  and  O_2
REMARK    2  A    between atoms: O_2  and  C_3
REMARK    3  A    between atoms: C_8  and  C_9
REMARK    4  A    between atoms: C_13  and  C_23
REMARK    5  A    between atoms: C_18  and  N_22
REMARK    6  A    between atoms: C_19  and  C_20
REMARK                            x       y       z     vdW  Elec       q    Type
REMARK                         _______ _______ _______ _____ _____    ______ ____
ROOT
ATOM      1  C   UNL     1      -0.302  -3.032  -0.117  0.00  0.00    +0.086 C 
ATOM      2  C   UNL     1      -0.037  -3.824  -1.403  0.00  0.00    +0.140 C 
ATOM      3  C   UNL     1       0.644  -2.957  -2.437  0.00  0.00    +0.084 C 
ATOM      4  N   UNL     1       1.821  -3.488  -2.637  0.00  0.00    -0.150 NA
ATOM      5  N   UNL     1       2.042  -4.603  -1.828  0.00  0.00    -0.115 NA
ATOM      6  C   UNL     1       1.034  -4.851  -1.047  0.00  0.00    +0.227 C 
ATOM      7  O   UNL     1       0.854  -5.730  -0.037  0.00  0.00    -0.425 OA
ATOM      8  C   UNL     1       0.213  -5.215   1.044  0.00  0.00    +0.200 C 
ATOM      9  C   UNL     1      -0.340  -3.983   1.049  0.00  0.00    +0.095 C 
ENDROOT
BRANCH   3  10
ATOM     10  C   UNL     1       0.093  -1.759  -3.088  0.00  0.00    -0.001 A 
ATOM     11  C   UNL     1      -1.303  -1.602  -3.198  0.00  0.00    +0.010 A 
ATOM     12  C   UNL     1      -1.834  -0.506  -3.794  0.00  0.00    +0.009 A 
ATOM     13  C   UNL     1      -0.990   0.495  -4.312  0.00  0.00    -0.018 A 
ATOM     14  C   UNL     1      -1.518   1.639  -4.932  0.00  0.00    +0.008 A 
ATOM     15  C   UNL     1      -0.677   2.590  -5.423  0.00  0.00    +0.001 A 
ATOM     16  C   UNL     1       0.705   2.448  -5.321  0.00  0.00    +0.001 A 
ATOM     17  C   UNL     1       1.254   1.354  -4.727  0.00  0.00    +0.008 A 
ATOM     18  C   UNL     1       0.417   0.350  -4.207  0.00  0.00    -0.017 A 
ATOM     19  C   UNL     1       0.951  -0.787  -3.583  0.00  0.00    +0.018 A 
ENDBRANCH   3  10
BRANCH   1  25
ATOM     20  C   UNL     1      -1.677  -0.936  -0.135  0.00  0.00    +0.124 A 
ATOM     21  C   UNL     1      -2.895  -0.281  -0.243  0.00  0.00    +0.046 A 
ATOM     22  C   UNL     1      -4.054  -1.008  -0.438  0.00  0.00    +0.004 A 
ATOM     23  C   UNL     1      -3.999  -2.387  -0.524  0.00  0.00    +0.001 A 
ATOM     24  C   UNL     1      -2.787  -3.042  -0.416  0.00  0.00    +0.008 A 
ATOM     25  C   UNL     1      -1.625  -2.319  -0.228  0.00  0.00    +0.004 A 
BRANCH  20  27
ATOM     26  C   UNL     1      -0.665   1.198   0.141  0.00  0.00    +0.277 C 
ATOM     27  O   UNL     1      -0.536  -0.223   0.055  0.00  0.00    -0.495 OA
ENDBRANCH  20  27
ENDBRANCH   1  25
BRANCH   8  28
ATOM     28  N   UNL     1       0.124  -5.979   2.181  0.00  0.00    -0.328 N 
ATOM     29  H   UNL     1       0.514  -6.867   2.200  0.00  0.00    +0.145 HD
ATOM     30  H   UNL     1      -0.330  -5.632   2.965  0.00  0.00    +0.145 HD
ENDBRANCH   8  28
BRANCH   9  31
ATOM     31  C   UNL     1      -1.006  -3.553   2.241  0.00  0.00    +0.100 C 
ATOM     32  N   UNL     1      -1.535  -3.212   3.187  0.00  0.00    -0.191 NA
ENDBRANCH   9  31
TORSDOF 5
