REMARK  Name = ZINC33388200
REMARK  13 active torsions:
REMARK  status: ('A' for Active; 'I' for Inactive)
REMARK    1  A    between atoms: C_1  and  C_2
REMARK    2  A    between atoms: C_7  and  C_30
REMARK    3  A    between atoms: C_8  and  C_10
REMARK    4  A    between atoms: C_10  and  C_11
REMARK    5  A    between atoms: C_11  and  C_12
REMARK    6  A    between atoms: C_12  and  C_23
REMARK    7  A    between atoms: C_13  and  C_14
REMARK    8  A    between atoms: C_14  and  C_15
REMARK    9  A    between atoms: C_15  and  C_16
REMARK   10  A    between atoms: C_16  and  C_22
REMARK   11  A    between atoms: N_17  and  N_18
REMARK   12  A    between atoms: C_27  and  C_28
REMARK   13  A    between atoms: C_27  and  C_29
REMARK                            x       y       z     vdW  Elec       q    Type
REMARK                         _______ _______ _______ _____ _____    ______ ____
ROOT
ATOM      1  C   UNL     1      -1.282  -0.263   1.768  0.00  0.00    +0.031 C 
ENDROOT
BRANCH   1   2
ATOM      2  C   UNL     1      -2.197   0.764   2.383  0.00  0.00    -0.077 C 
ATOM      3  C   UNL     1      -1.694   1.810   2.991  0.00  0.00    -0.028 C 
ATOM      4  C   UNL     1      -3.692   0.589   2.296  0.00  0.00    +0.039 C 
BRANCH   3   5
ATOM      5  C   UNL     1      -0.211   2.070   2.940  0.00  0.00    +0.033 C 
BRANCH   5   6
ATOM      6  C   UNL     1       0.051   3.381   2.196  0.00  0.00    +0.056 C 
BRANCH   6   7
ATOM      7  C   UNL     1       1.535   3.641   2.145  0.00  0.00    +0.034 C 
ATOM      8  N   UNL     1       2.145   3.645   1.020  0.00  0.00    -0.188 NA
ATOM      9  C   UNL     1       2.299   3.897   3.418  0.00  0.00    +0.062 C 
BRANCH   8  10
ATOM     10  N   UNL     1       3.525   3.887   0.973  0.00  0.00    -0.191 N 
ATOM     11  C   UNL     1       4.168   3.891  -0.212  0.00  0.00    +0.317 C 
ATOM     12  O   UNL     1       5.364   4.101  -0.253  0.00  0.00    -0.251 OA
ATOM     13  N   UNL     1       3.484   3.662  -1.351  0.00  0.00    -0.312 N 
ATOM     14  H   UNL     1       4.017   4.052   1.792  0.00  0.00    +0.179 HD
ATOM     15  H   UNL     1       2.529   3.494  -1.318  0.00  0.00    +0.147 HD
ATOM     16  H   UNL     1       3.947   3.665  -2.203  0.00  0.00    +0.147 HD
ENDBRANCH   8  10
ENDBRANCH   6   7
ENDBRANCH   5   6
ENDBRANCH   3   5
ENDBRANCH   1   2
BRANCH   1  17
ATOM     17  C   UNL     1      -1.120   0.026   0.275  0.00  0.00    +0.013 C 
BRANCH  17  24
ATOM     18  C   UNL     1       1.014   1.219  -1.276  0.00  0.00    +0.039 C 
ATOM     19  C   UNL     1       0.609  -0.223  -1.463  0.00  0.00    -0.073 C 
ATOM     20  C   UNL     1       0.865  -0.773  -2.605  0.00  0.00    -0.027 C 
ATOM     21  C   UNL     1       0.526  -2.203  -2.931  0.00  0.00    +0.031 C 
ATOM     22  C   UNL     1       0.266  -2.970  -1.634  0.00  0.00    +0.005 C 
ATOM     23  C   UNL     1      -0.747  -2.212  -0.784  0.00  0.00    -0.022 C 
ATOM     24  C   UNL     1      -0.064  -0.911  -0.315  0.00  0.00    +0.021 C 
ATOM     25  C   UNL     1      -1.116  -3.013   0.466  0.00  0.00    +0.007 C 
ATOM     26  C   UNL     1      -1.605  -4.408   0.083  0.00  0.00    +0.001 C 
ATOM     27  C   UNL     1      -0.482  -5.157  -0.627  0.00  0.00    +0.007 C 
ATOM     28  C   UNL     1      -0.066  -4.425  -1.903  0.00  0.00    -0.031 C 
ATOM     29  C   UNL     1      -1.149  -4.598  -2.966  0.00  0.00    +0.011 C 
ATOM     30  C   UNL     1       1.209  -5.126  -2.424  0.00  0.00    +0.011 C 
ATOM     31  C   UNL     1      -2.011  -1.839  -1.559  0.00  0.00    +0.012 C 
ENDBRANCH  17  24
ENDBRANCH   1  17
TORSDOF 7
