REMARK  Name = ZINC09127993
REMARK  8 active torsions:
REMARK  status: ('A' for Active; 'I' for Inactive)
REMARK    1  A    between atoms: C_1  and  C_2
REMARK    2  A    between atoms: C_5  and  N_9
REMARK    3  A    between atoms: C_7  and  C_8
REMARK    4  A    between atoms: C_13  and  S_15
REMARK    5  A    between atoms: S_15  and  C_16
REMARK    6  A    between atoms: C_16  and  C_17
REMARK    7  A    between atoms: C_23  and  C_30
REMARK    8  A    between atoms: C_24  and  C_28
REMARK                            x       y       z     vdW  Elec       q    Type
REMARK                         _______ _______ _______ _____ _____    ______ ____
ROOT
ATOM      1  S   UNL     1      -7.872   1.806  -0.388  0.00  0.00    -0.089 S 
ENDROOT
BRANCH   1   6
ATOM      2  N   UNL     1      -2.454   3.823   0.046  0.00  0.00    -0.292 N 
ATOM      3  C   UNL     1      -3.648   3.118  -0.052  0.00  0.00    +0.187 A 
ATOM      4  N   UNL     1      -3.850   1.815  -0.081  0.00  0.00    -0.125 NA
ATOM      5  N   UNL     1      -5.131   1.323  -0.178  0.00  0.00    -0.133 NA
ATOM      6  C   UNL     1      -6.151   2.157  -0.252  0.00  0.00    +0.160 A 
ATOM      7  S   UNL     1      -5.320   3.736  -0.178  0.00  0.00    -0.024 S 
ATOM      8  H   UNL     1      -2.466   4.788   0.141  0.00  0.00    +0.154 HD
BRANCH   2  13
ATOM      9  C   UNL     1       2.493   1.054  -0.116  0.00  0.00    +0.044 C 
ATOM     10  C   UNL     1       1.178   1.790  -0.073  0.00  0.00    -0.047 A 
ATOM     11  C   UNL     1       1.096   3.019   0.555  0.00  0.00    +0.005 A 
ATOM     12  C   UNL     1      -0.108   3.693   0.601  0.00  0.00    +0.023 A 
ATOM     13  C   UNL     1      -1.235   3.141   0.006  0.00  0.00    +0.033 A 
ATOM     14  C   UNL     1      -1.149   1.906  -0.624  0.00  0.00    +0.027 A 
ATOM     15  C   UNL     1       0.057   1.234  -0.661  0.00  0.00    -0.046 A 
ATOM     16  C   UNL     1       0.152  -0.106  -1.345  0.00  0.00    +0.044 C 
ENDBRANCH   2  13
ENDBRANCH   1   6
BRANCH   1  17
ATOM     17  C   UNL     1      -7.951  -0.006  -0.406  0.00  0.00    +0.150 C 
BRANCH  17  18
ATOM     18  C   UNL     1      -9.388  -0.445  -0.520  0.00  0.00    +0.121 A 
ATOM     19  N   UNL     1      -9.670  -1.771  -0.556  0.00  0.00    -0.310 N 
ATOM     20  H   UNL     1      -8.944  -2.412  -0.507  0.00  0.00    +0.170 HD
ATOM     21  C   UNL     1     -10.938  -2.216  -0.652  0.00  0.00    +0.260 A 
ATOM     22  O   UNL     1     -11.182  -3.409  -0.679  0.00  0.00    -0.267 OA
ATOM     23  C   UNL     1     -12.028  -1.216  -0.729  0.00  0.00    +0.076 A 
ATOM     24  C   UNL     1     -13.405  -1.419  -0.837  0.00  0.00    -0.015 A 
ATOM     25  C   UNL     1     -14.248  -0.346  -0.895  0.00  0.00    +0.106 A 
ATOM     26  S   UNL     1     -13.127   1.040  -0.799  0.00  0.00    -0.062 S 
ATOM     27  C   UNL     1     -11.606   0.132  -0.688  0.00  0.00    +0.116 A 
ATOM     28  N   UNL     1     -10.325   0.462  -0.587  0.00  0.00    -0.226 NA
ATOM     29  C   UNL     1     -13.961  -2.819  -0.889  0.00  0.00    +0.046 C 
BRANCH  25  30
ATOM     30  C   UNL     1     -15.708  -0.336  -1.007  0.00  0.00    +0.393 C 
ATOM     31  O   UNL     1     -16.321  -1.384  -1.062  0.00  0.00    -0.240 OA
ATOM     32  O   UNL     1     -16.372   0.838  -1.050  0.00  0.00    -0.240 OA
ENDBRANCH  25  30
ENDBRANCH  17  18
ENDBRANCH   1  17
TORSDOF 5
