REMARK  Name = ZINC05034574
REMARK  7 active torsions:
REMARK  status: ('A' for Active; 'I' for Inactive)
REMARK    1  A    between atoms: C_1  and  C_2
REMARK    2  A    between atoms: C_2  and  C_4
REMARK    3  A    between atoms: C_2  and  S_17
REMARK    4  A    between atoms: N_6  and  C_7
REMARK    5  A    between atoms: C_10  and  N_13
REMARK    6  A    between atoms: C_14  and  C_16
REMARK    7  A    between atoms: S_17  and  C_18
REMARK                            x       y       z     vdW  Elec       q    Type
REMARK                         _______ _______ _______ _____ _____    ______ ____
ROOT
ATOM      1  C   UNL     1      -0.131   8.414   0.367  0.00  0.00    +0.230 C 
ATOM      2  O   UNL     1       0.929   7.833   0.268  0.00  0.00    -0.274 OA
ATOM      3  N   UNL     1      -1.277   7.713   0.470  0.00  0.00    -0.285 N 
ATOM      4  H   UNL     1      -2.117   8.175   0.617  0.00  0.00    +0.155 HD
ENDROOT
BRANCH   3   5
ATOM      5  C   UNL     1      -1.255   6.316   0.364  0.00  0.00    +0.034 A 
ATOM      6  C   UNL     1      -2.312   5.649  -0.242  0.00  0.00    +0.025 A 
ATOM      7  C   UNL     1      -2.290   4.273  -0.347  0.00  0.00    +0.025 A 
ATOM      8  C   UNL     1      -1.212   3.555   0.154  0.00  0.00    +0.033 A 
ATOM      9  C   UNL     1      -0.158   4.222   0.765  0.00  0.00    +0.025 A 
ATOM     10  C   UNL     1      -0.177   5.598   0.865  0.00  0.00    +0.025 A 
BRANCH   8  11
ATOM     11  N   UNL     1      -1.190   2.159   0.048  0.00  0.00    -0.286 N 
ATOM     12  C   UNL     1      -0.013   1.503   0.029  0.00  0.00    +0.214 C 
ATOM     13  O   UNL     1       1.028   2.125  -0.005  0.00  0.00    -0.276 OA
ATOM     14  C   UNL     1       0.011  -0.004   0.043  0.00  0.00    +0.109 C 
ATOM     15  H   UNL     1      -2.022   1.664  -0.012  0.00  0.00    +0.155 HD
ENDBRANCH   8  11
ENDBRANCH   3   5
BRANCH   1  17
ATOM     16  C   UNL     1      -0.557  10.429  -1.013  0.00  0.00    +0.029 C 
ATOM     17  C   UNL     1      -0.166   9.921   0.376  0.00  0.00    +0.136 C 
BRANCH  17  18
ATOM     18  S   UNL     1       1.469  10.560   0.814  0.00  0.00    -0.086 S 
BRANCH  18  19
ATOM     19  C   UNL     1       1.112  12.283   0.897  0.00  0.00    +0.136 A 
ATOM     20  N   UNL     1      -0.030  12.900   0.686  0.00  0.00    -0.233 NA
ATOM     21  C   UNL     1      -0.160  14.240   0.790  0.00  0.00    +0.079 A 
ATOM     22  C   UNL     1      -1.322  15.022   0.597  0.00  0.00    +0.029 A 
ATOM     23  C   UNL     1      -1.281  16.385   0.737  0.00  0.00    +0.002 A 
ATOM     24  C   UNL     1      -0.107  17.044   1.071  0.00  0.00    +0.001 A 
ATOM     25  C   UNL     1       1.049  16.310   1.267  0.00  0.00    +0.017 A 
ATOM     26  C   UNL     1       1.017  14.946   1.129  0.00  0.00    +0.040 A 
ATOM     27  S   UNL     1       2.212  13.639   1.280  0.00  0.00    -0.061 S 
ENDBRANCH  18  19
ENDBRANCH  17  18
ENDBRANCH   1  17
TORSDOF 5
