REMARK  Name = ZINC59461708
REMARK  7 active torsions:
REMARK  status: ('A' for Active; 'I' for Inactive)
REMARK    1  A    between atoms: C_1  and  C_2
REMARK    2  A    between atoms: C_5  and  C_8
REMARK    3  A    between atoms: N_13  and  N_14
REMARK    4  A    between atoms: C_16  and  C_24
REMARK    5  A    between atoms: N_18  and  C_21
REMARK    6  A    between atoms: C_21  and  N_23
REMARK    7  A    between atoms: C_27  and  N_30
REMARK                            x       y       z     vdW  Elec       q    Type
REMARK                         _______ _______ _______ _____ _____    ______ ____
ROOT
ATOM      1  N   UNL     1       0.116  -8.464   1.728  0.00  0.00    -0.140 NA
ATOM      2  C   UNL     1       0.128  -9.367   2.706  0.00  0.00    +0.177 C 
ATOM      3  C   UNL     1       0.153 -10.777   2.571  0.00  0.00    +0.122 C 
ATOM      4  N   UNL     1       0.158 -11.310   3.776  0.00  0.00    -0.168 NA
ATOM      5  N   UNL     1       0.138 -10.322   4.762  0.00  0.00    -0.134 N 
ATOM      6  C   UNL     1       0.125  -9.108   4.172  0.00  0.00    +0.294 C 
ATOM      7  O   UNL     1       0.111  -8.027   4.724  0.00  0.00    -0.266 OA
ENDROOT
BRANCH   1  13
ATOM      8  C   UNL     1       0.059  -4.245  -0.021  0.00  0.00    +0.055 A 
ATOM      9  C   UNL     1       0.069  -4.957  -1.230  0.00  0.00    +0.075 A 
ATOM     10  S   UNL     1       0.090  -6.563  -0.731  0.00  0.00    -0.056 S 
ATOM     11  C   UNL     1       0.087  -6.301   1.033  0.00  0.00    +0.192 A 
ATOM     12  N   UNL     1       0.074  -4.938   1.125  0.00  0.00    -0.332 N 
ATOM     13  N   UNL     1       0.099  -7.205   2.012  0.00  0.00    -0.123 NA
ATOM     14  H   UNL     1       0.072  -4.490   1.986  0.00  0.00    +0.168 HD
BRANCH   8  19
ATOM     15  C   UNL     1      -0.018   1.503   0.010  0.00  0.00    +0.044 C 
ATOM     16  C   UNL     1       0.002  -0.004   0.002  0.00  0.00    -0.050 A 
ATOM     17  C   UNL     1       0.006  -0.686  -1.204  0.00  0.00    +0.004 A 
ATOM     18  C   UNL     1       0.024  -2.063  -1.222  0.00  0.00    +0.010 A 
ATOM     19  C   UNL     1       0.040  -2.775  -0.013  0.00  0.00    -0.001 A 
ATOM     20  C   UNL     1       0.036  -2.076   1.203  0.00  0.00    +0.010 A 
ATOM     21  C   UNL     1       0.023  -0.699   1.201  0.00  0.00    +0.004 A 
ENDBRANCH   8  19
ENDBRANCH   1  13
BRANCH   3  22
ATOM     22  C   UNL     1       0.171 -11.525   1.292  0.00  0.00    +0.004 A 
ATOM     23  C   UNL     1       0.169 -10.838   0.079  0.00  0.00    +0.012 A 
ATOM     24  C   UNL     1       0.185 -11.540  -1.109  0.00  0.00    +0.033 A 
ATOM     25  C   UNL     1       0.203 -12.923  -1.097  0.00  0.00    +0.126 A 
ATOM     26  C   UNL     1       0.204 -13.611   0.103  0.00  0.00    +0.033 A 
ATOM     27  C   UNL     1       0.195 -12.920   1.297  0.00  0.00    +0.012 A 
BRANCH  25  28
ATOM     28  N   UNL     1       0.220 -13.670  -2.375  0.00  0.00    +0.056 N 
ATOM     29  O   UNL     1       0.218 -13.018  -3.519  0.00  0.00    -0.126 OA
ATOM     30  O   UNL     1       0.236 -14.987  -2.367  0.00  0.00    -0.126 OA
ENDBRANCH  25  28
ENDBRANCH   3  22
BRANCH   5  31
ATOM     31  C   UNL     1       0.137 -10.545   6.091  0.00  0.00    +0.158 C 
ATOM     32  S   UNL     1       0.109  -9.224   7.180  0.00  0.00    -0.017 S 
BRANCH  31  33
ATOM     33  N   UNL     1       0.157 -11.807   6.562  0.00  0.00    -0.339 N 
ATOM     34  H   UNL     1       0.173 -12.555   5.945  0.00  0.00    +0.144 HD
ATOM     35  H   UNL     1       0.157 -11.967   7.519  0.00  0.00    +0.144 HD
ENDBRANCH  31  33
ENDBRANCH   5  31
TORSDOF 6
