REMARK  Name = ZINC02618297
REMARK  7 active torsions:
REMARK  status: ('A' for Active; 'I' for Inactive)
REMARK    1  A    between atoms: C_1  and  C_2
REMARK    2  A    between atoms: C_3  and  N_9
REMARK    3  A    between atoms: C_10  and  C_24
REMARK    4  A    between atoms: C_13  and  S_14
REMARK    5  A    between atoms: S_14  and  C_15
REMARK    6  A    between atoms: C_15  and  C_17
REMARK    7  A    between atoms: C_15  and  C_18
REMARK                            x       y       z     vdW  Elec       q    Type
REMARK                         _______ _______ _______ _____ _____    ______ ____
ROOT
ATOM      1  N   UNL     1       3.587   2.125  -0.021  0.00  0.00    -0.270 N 
ATOM      2  C   UNL     1       4.293   2.556  -1.123  0.00  0.00    +0.169 A 
ATOM      3  N   UNL     1       5.357   3.183  -0.678  0.00  0.00    -0.128 NA
ATOM      4  N   UNL     1       5.367   3.174   0.607  0.00  0.00    -0.122 NA
ATOM      5  C   UNL     1       4.305   2.545   1.063  0.00  0.00    +0.197 A 
ENDROOT
BRANCH   1   8
ATOM      6  C   UNL     1       1.150   3.595   0.010  0.00  0.00    +0.047 C 
ATOM      7  C   UNL     1       1.170   2.088   0.002  0.00  0.00    -0.008 A 
ATOM      8  C   UNL     1       2.381   1.409  -0.013  0.00  0.00    +0.055 A 
ATOM      9  C   UNL     1       2.396   0.021  -0.021  0.00  0.00    +0.026 A 
ATOM     10  C   UNL     1       1.207  -0.681  -0.014  0.00  0.00    +0.003 A 
ATOM     11  C   UNL     1       0.002  -0.004   0.002  0.00  0.00    +0.020 A 
ATOM     12  C   UNL     1      -0.017   1.380   0.010  0.00  0.00    +0.046 A 
ATOM     13 CL   UNL     1      -1.532   2.227   0.021  0.00  0.00    -0.083 Cl
ENDBRANCH   1   8
BRANCH   2  14
ATOM     14  C   UNL     1       3.922   2.352  -2.539  0.00  0.00    +0.022 A 
ATOM     15  C   UNL     1       2.950   1.411  -2.900  0.00  0.00    +0.031 A 
ATOM     16  C   UNL     1       2.631   1.256  -4.232  0.00  0.00    +0.111 A 
ATOM     17  N   UNL     1       3.236   1.973  -5.161  0.00  0.00    -0.263 NA
ATOM     18  C   UNL     1       4.160   2.867  -4.865  0.00  0.00    +0.111 A 
ATOM     19  C   UNL     1       4.537   3.090  -3.558  0.00  0.00    +0.031 A 
ENDBRANCH   2  14
BRANCH   5  20
ATOM     20  S   UNL     1       3.889   2.290   2.756  0.00  0.00    -0.073 S 
BRANCH  20  21
ATOM     21  C   UNL     1       5.289   3.116   3.553  0.00  0.00    +0.137 C 
ATOM     22  C   UNL     1       6.580   2.364   3.224  0.00  0.00    +0.029 C 
BRANCH  21  23
ATOM     23  C   UNL     1       5.081   3.130   5.045  0.00  0.00    +0.233 C 
ATOM     24  O   UNL     1       4.382   2.288   5.568  0.00  0.00    -0.274 OA
ATOM     25  N   UNL     1       5.673   4.077   5.799  0.00  0.00    -0.239 N 
ATOM     26  C   UNL     1       5.488   4.089   7.134  0.00  0.00    +0.303 C 
ATOM     27  O   UNL     1       4.787   3.245   7.658  0.00  0.00    -0.253 OA
ATOM     28  N   UNL     1       6.080   5.036   7.888  0.00  0.00    -0.313 N 
ATOM     29  H   UNL     1       6.233   4.750   5.381  0.00  0.00    +0.159 HD
ATOM     30  H   UNL     1       6.639   5.709   7.470  0.00  0.00    +0.146 HD
ATOM     31  H   UNL     1       5.946   5.045   8.849  0.00  0.00    +0.146 HD
ENDBRANCH  21  23
ENDBRANCH  20  21
ENDBRANCH   5  20
TORSDOF 5
