REMARK  Name = ZINC08670280
REMARK  2 active torsions:
REMARK  status: ('A' for Active; 'I' for Inactive)
REMARK    1  A    between atoms: C_1  and  N_53
REMARK    2  A    between atoms: C_3  and  C_26
REMARK                            x       y       z     vdW  Elec       q    Type
REMARK                         _______ _______ _______ _____ _____    ______ ____
ROOT
ATOM      1  C   UNL     1      -5.364   8.069  -0.199  0.00  0.00    -0.094 C 
ATOM      2  C   UNL     1      -3.609   7.079  -1.569  0.00  0.00    -0.068 C 
ATOM      3  C   UNL     1      -2.579   5.938  -1.360  0.00  0.00    +0.019 C 
ATOM      4  C   UNL     1      -2.521   5.806   0.175  0.00  0.00    +0.076 C 
ATOM      5  C   UNL     1      -3.828   6.415   0.686  0.00  0.00    +0.056 C 
ATOM      6  C   UNL     1      -4.594   5.450   1.532  0.00  0.00    -0.027 A 
ATOM      7  C   UNL     1      -5.122   4.207   1.257  0.00  0.00    +0.004 A 
ATOM      8  C   UNL     1      -5.788   3.561   2.292  0.00  0.00    +0.000 A 
ATOM      9  C   UNL     1      -5.912   4.139   3.539  0.00  0.00    +0.002 A 
ATOM     10  C   UNL     1      -5.386   5.390   3.823  0.00  0.00    +0.023 A 
ATOM     11  C   UNL     1      -4.716   6.050   2.792  0.00  0.00    +0.036 A 
ATOM     12  N   UNL     1      -4.103   7.291   2.796  0.00  0.00    -0.286 N 
ATOM     13  C   UNL     1      -3.553   7.587   1.599  0.00  0.00    +0.212 C 
ATOM     14  O   UNL     1      -2.952   8.601   1.312  0.00  0.00    -0.277 OA
ATOM     15  C   UNL     1      -1.319   6.570   0.723  0.00  0.00    +0.243 C 
ATOM     16  O   UNL     1      -0.112   5.912   0.326  0.00  0.00    -0.490 OA
ATOM     17  C   UNL     1       0.036   4.615   0.691  0.00  0.00    +0.131 A 
ATOM     18  C   UNL     1       1.296   4.092   0.938  0.00  0.00    +0.046 A 
ATOM     19  C   UNL     1       1.433   2.768   1.307  0.00  0.00    +0.004 A 
ATOM     20  C   UNL     1       0.320   1.951   1.432  0.00  0.00    +0.001 A 
ATOM     21  C   UNL     1      -0.941   2.449   1.184  0.00  0.00    +0.015 A 
ATOM     22  C   UNL     1      -1.093   3.789   0.819  0.00  0.00    +0.060 A 
ATOM     23  C   UNL     1      -2.427   4.354   0.563  0.00  0.00    +0.176 C 
ATOM     24  O   UNL     1      -3.423   3.669   0.661  0.00  0.00    -0.291 OA
ATOM     25  H   UNL     1      -4.072   7.878   3.567  0.00  0.00    +0.155 HD
ATOM     26  N   UNL     1      -4.581   6.830  -0.494  0.00  0.00    +0.391 N 
ATOM     27  H   UNL     1      -5.226   6.083  -0.775  0.00  0.00    -0.080 HD
ENDROOT
BRANCH   3  28
ATOM     28  C   UNL     1      -1.232   6.327  -1.914  0.00  0.00    -0.044 A 
ATOM     29  C   UNL     1      -0.802   7.638  -1.828  0.00  0.00    +0.005 A 
ATOM     30  C   UNL     1       0.434   7.995  -2.331  0.00  0.00    +0.022 A 
ATOM     31  C   UNL     1       1.238   7.042  -2.930  0.00  0.00    +0.059 A 
ATOM     32  C   UNL     1       0.806   5.730  -3.021  0.00  0.00    +0.060 A 
ATOM     33  C   UNL     1      -0.430   5.373  -2.512  0.00  0.00    +0.025 A 
ATOM     34 CL   UNL     1       1.814   4.533  -3.772  0.00  0.00    -0.082 Cl
ATOM     35 CL   UNL     1       2.789   7.491  -3.569  0.00  0.00    -0.082 Cl
ENDBRANCH   3  28
TORSDOF 1
