REMARK  Name = ZINC38680467
REMARK  7 active torsions:
REMARK  status: ('A' for Active; 'I' for Inactive)
REMARK    1  A    between atoms: C_10  and  C_11
REMARK    2  A    between atoms: C_11  and  C_12
REMARK    3  A    between atoms: C_12  and  O_14
REMARK    4  A    between atoms: O_14  and  C_15
REMARK    5  A    between atoms: C_22  and  N_36
REMARK    6  A    between atoms: C_23  and  C_34
REMARK    7  A    between atoms: C_24  and  C_26
REMARK                            x       y       z     vdW  Elec       q    Type
REMARK                         _______ _______ _______ _____ _____    ______ ____
ROOT
ATOM      1  C   UNL     1       6.833   1.590   2.857  0.00  0.00    +0.135 A 
ATOM      2  C   UNL     1       6.081   1.188   3.953  0.00  0.00    +0.047 A 
ATOM      3  C   UNL     1       6.457   1.570   5.225  0.00  0.00    +0.012 A 
ATOM      4  C   UNL     1       7.581   2.354   5.415  0.00  0.00    +0.008 A 
ATOM      5  C   UNL     1       8.336   2.758   4.325  0.00  0.00    +0.138 A 
ATOM      6  C   UNL     1       7.963   2.369   3.044  0.00  0.00    +0.093 A 
ATOM      7  O   UNL     1       9.441   3.526   4.490  0.00  0.00    -0.441 OA
ATOM      8  C   UNL     1       9.611   4.219   5.628  0.00  0.00    +0.199 C 
ATOM      9  C   UNL     1       8.945   3.906   6.764  0.00  0.00    +0.098 C 
ATOM     10  C   UNL     1       7.974   2.760   6.810  0.00  0.00    +0.102 C 
ENDROOT
BRANCH  10  11
ATOM     11  C   UNL     1       8.617   1.589   7.508  0.00  0.00    +0.019 A 
ATOM     12  C   UNL     1       9.770   1.022   6.991  0.00  0.00    +0.129 A 
ATOM     13  C   UNL     1      10.360  -0.053   7.633  0.00  0.00    +0.039 A 
ATOM     14  C   UNL     1       9.798  -0.560   8.790  0.00  0.00    +0.004 A 
ATOM     15  C   UNL     1       8.647   0.005   9.306  0.00  0.00    +0.020 A 
ATOM     16  C   UNL     1       8.060   1.084   8.669  0.00  0.00    +0.048 A 
ATOM     17 CL   UNL     1       6.619   1.799   9.322  0.00  0.00    -0.083 Cl
ATOM     18  F   UNL     1      10.318   1.518   5.861  0.00  0.00    -0.205 F 
ENDBRANCH  10  11
BRANCH   8  19
ATOM     19  N   UNL     1      10.488   5.275   5.640  0.00  0.00    -0.328 N 
ATOM     20  H   UNL     1      10.973   5.512   4.834  0.00  0.00    +0.145 HD
ATOM     21  H   UNL     1      10.622   5.785   6.454  0.00  0.00    +0.145 HD
ENDBRANCH   8  19
BRANCH   9  22
ATOM     22  C   UNL     1       9.169   4.683   7.946  0.00  0.00    +0.101 C 
ATOM     23  N   UNL     1       9.347   5.300   8.883  0.00  0.00    -0.191 NA
ENDBRANCH   9  22
BRANCH   1  24
ATOM     24  O   UNL     1       6.465   1.215   1.604  0.00  0.00    -0.425 OA
BRANCH  24  25
ATOM     25  C   UNL     1       5.441   1.864   1.027  0.00  0.00    +0.317 C 
ATOM     26  O   UNL     1       4.820   2.690   1.653  0.00  0.00    -0.250 OA
BRANCH  25  27
ATOM     27  C   UNL     1       5.066   1.562  -0.401  0.00  0.00    +0.156 C 
BRANCH  27  37
ATOM     28  C   UNL     1       4.466   6.309  -2.220  0.00  0.00    +0.001 A 
ATOM     29  C   UNL     1       5.563   5.532  -1.851  0.00  0.00    +0.001 A 
ATOM     30  C   UNL     1       5.398   4.263  -1.388  0.00  0.00    +0.009 A 
ATOM     31  C   UNL     1       4.104   3.725  -1.279  0.00  0.00    -0.014 A 
ATOM     32  C   UNL     1       2.989   4.515  -1.654  0.00  0.00    -0.018 A 
ATOM     33  C   UNL     1       3.199   5.822  -2.128  0.00  0.00    +0.008 A 
ATOM     34  C   UNL     1       1.695   3.978  -1.545  0.00  0.00    +0.008 A 
ATOM     35  C   UNL     1       1.530   2.709  -1.081  0.00  0.00    +0.001 A 
ATOM     36  C   UNL     1       2.626   1.932  -0.712  0.00  0.00    +0.005 A 
ATOM     37  C   UNL     1       3.894   2.419  -0.805  0.00  0.00    -0.029 A 
ENDBRANCH  27  37
ENDBRANCH  25  27
ENDBRANCH  24  25
ENDBRANCH   1  24
TORSDOF 7
