REMARK  Name = ZINC55874634
REMARK  8 active torsions:
REMARK  status: ('A' for Active; 'I' for Inactive)
REMARK    1  A    between atoms: C_1  and  C_2
REMARK    2  A    between atoms: C_5  and  O_25
REMARK    3  A    between atoms: C_6  and  N_8
REMARK    4  A    between atoms: C_9  and  C_11
REMARK    5  A    between atoms: C_11  and  N_12
REMARK    6  A    between atoms: N_12  and  C_13
REMARK    7  A    between atoms: C_18  and  N_19
REMARK    8  A    between atoms: O_25  and  C_26
REMARK                            x       y       z     vdW  Elec       q    Type
REMARK                         _______ _______ _______ _____ _____    ______ ____
ROOT
ATOM      1  C   UNL     1       0.332  -2.889   4.856  0.00  0.00    +0.198 C 
ENDROOT
BRANCH   1   3
ATOM      2  N   UNL     1       0.139  -2.786   2.392  0.00  0.00    -0.281 N 
ATOM      3  C   UNL     1       0.220  -2.123   3.563  0.00  0.00    +0.234 C 
ATOM      4  O   UNL     1       0.203  -0.910   3.575  0.00  0.00    -0.274 OA
ATOM      5  H   UNL     1       0.067  -3.753   2.386  0.00  0.00    +0.155 HD
BRANCH   2  11
ATOM      6  C   UNL     1       1.403   1.236  -0.138  0.00  0.00    +0.044 C 
ATOM      7  C   UNL     1       0.764  -0.127  -0.072  0.00  0.00    -0.048 A 
ATOM      8  C   UNL     1       0.196  -0.677  -1.206  0.00  0.00    +0.007 A 
ATOM      9  C   UNL     1      -0.393  -1.927  -1.152  0.00  0.00    +0.048 A 
ATOM     10  C   UNL     1      -0.415  -2.631   0.040  0.00  0.00    +0.141 A 
ATOM     11  C   UNL     1       0.158  -2.078   1.183  0.00  0.00    +0.076 A 
ATOM     12  C   UNL     1       0.752  -0.826   1.120  0.00  0.00    +0.030 A 
BRANCH  10  13
ATOM     13  O   UNL     1      -0.994  -3.860   0.095  0.00  0.00    -0.493 OA
ATOM     14  C   UNL     1      -1.562  -4.365  -1.115  0.00  0.00    +0.277 C 
ENDBRANCH  10  13
ENDBRANCH   2  11
ENDBRANCH   1   3
BRANCH   1  15
ATOM     15  N   UNL     1       0.405  -1.947   5.976  0.00  0.00    -0.334 N 
ATOM     16  H   UNL     1       0.378  -0.992   5.809  0.00  0.00    +0.147 HD
BRANCH  15  17
ATOM     17  C   UNL     1       0.514  -2.425   7.285  0.00  0.00    +0.055 A 
ATOM     18  C   UNL     1       0.665  -3.785   7.519  0.00  0.00    +0.045 A 
ATOM     19  C   UNL     1       0.773  -4.255   8.815  0.00  0.00    +0.043 A 
ATOM     20  C   UNL     1       0.731  -3.373   9.880  0.00  0.00    +0.022 A 
ATOM     21  C   UNL     1       0.580  -2.018   9.656  0.00  0.00    +0.031 A 
ATOM     22  C   UNL     1       0.477  -1.537   8.359  0.00  0.00    +0.086 A 
ATOM     23 CL   UNL     1       0.961  -5.956   9.105  0.00  0.00    -0.083 Cl
BRANCH  22  24
ATOM     24  N   UNL     1       0.331  -0.161   8.129  0.00  0.00    -0.238 N 
ATOM     25  C   UNL     1       0.987   0.828   8.775  0.00  0.00    +0.114 A 
ATOM     26  C   UNL     1       0.565   2.007   8.262  0.00  0.00    +0.041 A 
ATOM     27  C   UNL     1      -0.381   1.731   7.269  0.00  0.00    +0.135 A 
ATOM     28  N   UNL     1      -0.518   0.432   7.184  0.00  0.00    -0.175 NA
ENDBRANCH  22  24
ENDBRANCH  15  17
ENDBRANCH   1  15
TORSDOF 6
