REMARK  Name = ZINC63273796
REMARK  8 active torsions:
REMARK  status: ('A' for Active; 'I' for Inactive)
REMARK    1  A    between atoms: C_4  and  C_7
REMARK    2  A    between atoms: C_7  and  C_8
REMARK    3  A    between atoms: C_8  and  N_9
REMARK    4  A    between atoms: N_9  and  C_10
REMARK    5  A    between atoms: N_9  and  C_17
REMARK    6  A    between atoms: C_10  and  C_11
REMARK    7  A    between atoms: N_20  and  C_23
REMARK    8  A    between atoms: C_23  and  C_24
REMARK                            x       y       z     vdW  Elec       q    Type
REMARK                         _______ _______ _______ _____ _____    ______ ____
ROOT
ATOM      1  N   UNL     1       5.023  -1.942   1.391  0.00  0.00    +0.385 N 
ATOM      2  H   UNL     1       5.796  -1.319   1.211  0.00  0.00    -0.081 HD
ENDROOT
BRANCH   1   3
ATOM      3  C   UNL     1       5.273  -2.686   2.633  0.00  0.00    -0.066 C 
ATOM      4  C   UNL     1       5.424  -1.702   3.796  0.00  0.00    +0.000 C 
ATOM      5  C   UNL     1       5.744  -2.477   5.076  0.00  0.00    +0.083 C 
ATOM      6  N   UNL     1       6.986  -3.239   4.891  0.00  0.00    -0.298 NA
ATOM      7  C   UNL     1       6.849  -4.223   3.810  0.00  0.00    +0.083 C 
ATOM      8  C   UNL     1       6.562  -3.499   2.492  0.00  0.00    +0.000 C 
BRANCH   6   9
ATOM      9  C   UNL     1       7.398  -3.886   6.144  0.00  0.00    +0.117 C 
BRANCH   9  10
ATOM     10  C   UNL     1       7.935  -2.846   7.093  0.00  0.00    -0.028 C 
ATOM     11  C   UNL     1       7.258  -2.224   8.085  0.00  0.00    +0.000 A 
ATOM     12  C   UNL     1       5.872  -2.324   8.557  0.00  0.00    +0.010 A 
ATOM     13  C   UNL     1       5.476  -1.553   9.596  0.00  0.00    +0.001 A 
ATOM     14  C   UNL     1       6.354  -0.664  10.231  0.00  0.00    +0.002 A 
ATOM     15  C   UNL     1       7.641  -0.517   9.854  0.00  0.00    +0.026 A 
ATOM     16  C   UNL     1       8.165  -1.278   8.773  0.00  0.00    +0.043 A 
ATOM     17  N   UNL     1       9.357  -1.314   8.227  0.00  0.00    -0.380 N 
ATOM     18  C   UNL     1       9.342  -2.292   7.135  0.00  0.00    +0.146 C 
ATOM     19  H   UNL     1      10.122  -0.785   8.503  0.00  0.00    +0.160 HD
ENDBRANCH   9  10
ENDBRANCH   6   9
ENDBRANCH   1   3
BRANCH   1  20
ATOM     20  C   UNL     1       3.786  -1.162   1.526  0.00  0.00    -0.073 C 
BRANCH  20  21
ATOM     21  C   UNL     1       3.578  -0.314   0.271  0.00  0.00    +0.016 C 
BRANCH  21  25
ATOM     22  C   UNL     1       0.186   2.226   0.813  0.00  0.00    +0.000 A 
ATOM     23  C   UNL     1       1.444   2.664   1.182  0.00  0.00    +0.000 A 
ATOM     24  C   UNL     1       2.541   1.843   1.007  0.00  0.00    +0.003 A 
ATOM     25  C   UNL     1       2.381   0.582   0.463  0.00  0.00    -0.049 A 
ATOM     26  C   UNL     1       1.123   0.143   0.094  0.00  0.00    +0.003 A 
ATOM     27  C   UNL     1       0.026   0.966   0.268  0.00  0.00    +0.000 A 
ENDBRANCH  21  25
ENDBRANCH  20  21
ENDBRANCH   1  20
BRANCH   1  28
ATOM     28  C   UNL     1       4.886  -2.887   0.274  0.00  0.00    -0.043 C 
BRANCH  28  29
ATOM     29  C   UNL     1       3.683  -3.765   0.503  0.00  0.00    -0.064 A 
ATOM     30  C   UNL     1       3.810  -4.937   1.224  0.00  0.00    +0.002 A 
ATOM     31  C   UNL     1       2.706  -5.742   1.435  0.00  0.00    +0.000 A 
ATOM     32  C   UNL     1       1.475  -5.374   0.925  0.00  0.00    +0.000 A 
ATOM     33  C   UNL     1       1.348  -4.201   0.204  0.00  0.00    +0.000 A 
ATOM     34  C   UNL     1       2.451  -3.394  -0.003  0.00  0.00    +0.002 A 
ENDBRANCH  28  29
ENDBRANCH   1  28
TORSDOF 8
