REMARK  Name = ZINC34711036
REMARK  11 active torsions:
REMARK  status: ('A' for Active; 'I' for Inactive)
REMARK    1  A    between atoms: C_1  and  C_2
REMARK    2  A    between atoms: C_2  and  C_3
REMARK    3  A    between atoms: C_2  and  N_4
REMARK    4  A    between atoms: C_9  and  C_26
REMARK    5  A    between atoms: C_12  and  C_15
REMARK    6  A    between atoms: N_17  and  C_18
REMARK    7  A    between atoms: C_18  and  C_19
REMARK    8  A    between atoms: C_29  and  O_34
REMARK    9  A    between atoms: C_30  and  O_32
REMARK   10  A    between atoms: O_32  and  C_33
REMARK   11  A    between atoms: O_34  and  C_35
REMARK                            x       y       z     vdW  Elec       q    Type
REMARK                         _______ _______ _______ _____ _____    ______ ____
ROOT
ATOM      1  N   UNL     1      -1.259  -0.327   2.431  0.00  0.00    -0.297 N 
ATOM      2  C   UNL     1       0.051  -0.633   2.355  0.00  0.00    +0.302 C 
ATOM      3  O   UNL     1       0.624  -0.595   1.284  0.00  0.00    -0.253 OA
ATOM      4  N   UNL     1       0.727  -0.983   3.468  0.00  0.00    -0.284 N 
ATOM      5  C   UNL     1       0.025  -1.151   4.748  0.00  0.00    +0.117 C 
ATOM      6  C   UNL     1       0.355  -2.536   5.313  0.00  0.00    +0.037 C 
ATOM      7  C   UNL     1       1.875  -2.696   5.404  0.00  0.00    +0.024 C 
ATOM      8  C   UNL     1       2.485  -2.587   4.005  0.00  0.00    +0.093 C 
ATOM      9  C   UNL     1       2.178  -1.209   3.423  0.00  0.00    +0.122 C 
ATOM     10  H   UNL     1      -1.733  -0.426   3.271  0.00  0.00    +0.150 HD
ENDROOT
BRANCH   6  11
ATOM     11  C   UNL     1      -0.248  -2.676   6.687  0.00  0.00    -0.039 A 
ATOM     12  C   UNL     1       0.118  -1.802   7.694  0.00  0.00    +0.008 A 
ATOM     13  C   UNL     1      -0.433  -1.926   8.956  0.00  0.00    +0.049 A 
ATOM     14  C   UNL     1      -1.355  -2.928   9.213  0.00  0.00    +0.161 A 
ATOM     15  C   UNL     1      -1.724  -3.807   8.200  0.00  0.00    +0.162 A 
ATOM     16  C   UNL     1      -1.172  -3.674   6.936  0.00  0.00    +0.053 A 
BRANCH  15  17
ATOM     17  O   UNL     1      -2.629  -4.791   8.448  0.00  0.00    -0.491 OA
ATOM     18  C   UNL     1      -2.961  -5.657   7.360  0.00  0.00    +0.277 C 
ENDBRANCH  15  17
BRANCH  14  19
ATOM     19  O   UNL     1      -1.898  -3.051  10.454  0.00  0.00    -0.491 OA
ATOM     20  C   UNL     1      -1.472  -2.114  11.445  0.00  0.00    +0.277 C 
ENDBRANCH  14  19
ENDBRANCH   6  11
BRANCH   8  21
ATOM     21  C   UNL     1       3.978  -2.778   4.091  0.00  0.00    +0.218 C 
ATOM     22  O   UNL     1       4.502  -2.982   5.165  0.00  0.00    -0.275 OA
ATOM     23  N   UNL     1       4.729  -2.723   2.973  0.00  0.00    -0.311 N 
ATOM     24  H   UNL     1       4.310  -2.561   2.114  0.00  0.00    +0.149 HD
BRANCH  23  25
ATOM     25  C   UNL     1       6.180  -2.909   3.057  0.00  0.00    +0.142 C 
BRANCH  25  26
ATOM     26  C   UNL     1       6.780  -2.802   1.679  0.00  0.00    +0.005 A 
ATOM     27  C   UNL     1       7.100  -3.946   0.973  0.00  0.00    +0.008 A 
ATOM     28  C   UNL     1       7.651  -3.848  -0.291  0.00  0.00    +0.000 A 
ATOM     29  C   UNL     1       7.883  -2.605  -0.851  0.00  0.00    +0.003 A 
ATOM     30  C   UNL     1       7.564  -1.460  -0.147  0.00  0.00    +0.038 A 
ATOM     31  C   UNL     1       7.007  -1.557   1.117  0.00  0.00    +0.128 A 
ATOM     32  F   UNL     1       6.690  -0.437   1.804  0.00  0.00    -0.205 F 
ENDBRANCH  25  26
ENDBRANCH  23  25
ENDBRANCH   8  21
BRANCH   1  34
ATOM     33  C   UNL     1      -2.445  -1.034   0.412  0.00  0.00    +0.027 C 
ATOM     34  C   UNL     1      -1.967   0.158   1.244  0.00  0.00    +0.068 C 
ATOM     35  C   UNL     1      -3.173   0.995   1.675  0.00  0.00    +0.027 C 
ENDBRANCH   1  34
TORSDOF 7
