REMARK  Name = ZINC06182140
REMARK  8 active torsions:
REMARK  status: ('A' for Active; 'I' for Inactive)
REMARK    1  A    between atoms: C_1  and  O_2
REMARK    2  A    between atoms: O_2  and  C_3
REMARK    3  A    between atoms: C_8  and  C_9
REMARK    4  A    between atoms: N_10  and  N_11
REMARK    5  A    between atoms: N_11  and  C_12
REMARK    6  A    between atoms: C_12  and  N_14
REMARK    7  A    between atoms: N_14  and  C_15
REMARK    8  A    between atoms: C_15  and  C_16
REMARK                            x       y       z     vdW  Elec       q    Type
REMARK                         _______ _______ _______ _____ _____    ______ ____
ROOT
ATOM      1  N   UNL     1       1.178  -0.662  -0.013  0.00  0.00    -0.218 N 
ATOM      2  H   UNL     1       1.191  -1.632  -0.018  0.00  0.00    +0.176 HD
ENDROOT
BRANCH   1   4
ATOM      3  C   UNL     1       3.515  -0.579  -0.035  0.00  0.00    +0.142 C 
ATOM      4  N   UNL     1       2.382   0.055  -0.020  0.00  0.00    -0.188 NA
BRANCH   3  10
ATOM      5  C   UNL     1       4.766   1.577  -0.041  0.00  0.00    +0.129 A 
ATOM      6  C   UNL     1       5.962   2.277  -0.044  0.00  0.00    +0.047 A 
ATOM      7  C   UNL     1       7.164   1.595  -0.058  0.00  0.00    +0.019 A 
ATOM      8  C   UNL     1       7.184   0.210  -0.066  0.00  0.00    +0.019 A 
ATOM      9  C   UNL     1       6.002  -0.502  -0.058  0.00  0.00    +0.028 A 
ATOM     10  C   UNL     1       4.781   0.176  -0.043  0.00  0.00    +0.037 A 
ATOM     11 BR   UNL     1       8.837  -0.708  -0.087  0.00  0.00    -0.050 Br
BRANCH   5  13
ATOM     12  C   UNL     1       3.647   3.674  -0.030  0.00  0.00    +0.277 C 
ATOM     13  O   UNL     1       3.584   2.246  -0.032  0.00  0.00    -0.494 OA
ENDBRANCH   5  13
ENDBRANCH   3  10
ENDBRANCH   1   4
BRANCH   1  14
ATOM     14  C   UNL     1       0.002  -0.004   0.002  0.00  0.00    +0.150 C 
ATOM     15  S   UNL     1      -1.469  -0.880   0.011  0.00  0.00    -0.017 S 
BRANCH  14  16
ATOM     16  N   UNL     1      -0.016   1.344   0.009  0.00  0.00    -0.321 N 
ATOM     17  H   UNL     1       0.817   1.840   0.004  0.00  0.00    +0.148 HD
BRANCH  16  18
ATOM     18  C   UNL     1      -1.295   2.059   0.019  0.00  0.00    +0.138 C 
BRANCH  18  19
ATOM     19  C   UNL     1      -1.040   3.544   0.026  0.00  0.00    -0.030 A 
ATOM     20  C   UNL     1      -0.922   4.220   1.226  0.00  0.00    +0.005 A 
ATOM     21  C   UNL     1      -0.683   5.581   1.233  0.00  0.00    +0.000 A 
ATOM     22  C   UNL     1      -0.572   6.269   0.039  0.00  0.00    +0.000 A 
ATOM     23  C   UNL     1      -0.694   5.594  -1.161  0.00  0.00    +0.000 A 
ATOM     24  C   UNL     1      -0.928   4.232  -1.168  0.00  0.00    +0.005 A 
ENDBRANCH  18  19
ENDBRANCH  16  18
ENDBRANCH  14  16
ENDBRANCH   1  14
TORSDOF 7
