REMARK  Name = ZINC36301872
REMARK  16 active torsions:
REMARK  status: ('A' for Active; 'I' for Inactive)
REMARK    1  A    between atoms: C_1  and  C_2
REMARK    2  A    between atoms: C_2  and  C_3
REMARK    3  A    between atoms: C_3  and  N_4
REMARK    4  A    between atoms: N_4  and  C_5
REMARK    5  A    between atoms: N_4  and  C_28
REMARK    6  A    between atoms: C_5  and  C_6
REMARK    7  A    between atoms: C_7  and  C_27
REMARK    8  A    between atoms: N_9  and  C_20
REMARK    9  A    between atoms: C_10  and  O_11
REMARK   10  A    between atoms: O_11  and  C_12
REMARK   11  A    between atoms: C_17  and  O_18
REMARK   12  A    between atoms: O_18  and  C_19
REMARK   13  A    between atoms: C_28  and  C_29
REMARK   14  A    between atoms: C_29  and  C_31
REMARK   15  A    between atoms: C_29  and  O_33
REMARK   16  A    between atoms: C_31  and  C_32
REMARK                            x       y       z     vdW  Elec       q    Type
REMARK                         _______ _______ _______ _____ _____    ______ ____
ROOT
ATOM      1  C   UNL     1       2.816  -1.864  -1.782  0.00  0.00    +0.021 A 
ATOM      2  C   UNL     1       3.409  -0.639  -2.102  0.00  0.00    +0.065 A 
ATOM      3  N   UNL     1       4.514  -0.521  -1.412  0.00  0.00    -0.168 NA
ATOM      4  N   UNL     1       4.669  -1.669  -0.624  0.00  0.00    -0.200 N 
ATOM      5  C   UNL     1       3.606  -2.483  -0.864  0.00  0.00    +0.225 A 
ATOM      6  C   UNL     1       2.866   0.374  -3.077  0.00  0.00    +0.068 C 
ENDROOT
BRANCH   4   7
ATOM      7  C   UNL     1       5.727  -1.930   0.257  0.00  0.00    +0.069 A 
ATOM      8  C   UNL     1       5.477  -2.519   1.489  0.00  0.00    +0.029 A 
ATOM      9  C   UNL     1       6.521  -2.775   2.356  0.00  0.00    +0.022 A 
ATOM     10  C   UNL     1       7.817  -2.444   1.997  0.00  0.00    +0.041 A 
ATOM     11  C   UNL     1       8.069  -1.857   0.770  0.00  0.00    +0.022 A 
ATOM     12  C   UNL     1       7.028  -1.605  -0.103  0.00  0.00    +0.029 A 
ATOM     13 CL   UNL     1       9.127  -2.766   3.089  0.00  0.00    -0.084 Cl
ENDBRANCH   4   7
BRANCH   1  14
ATOM     14  C   UNL     1       1.527  -2.401  -2.349  0.00  0.00    -0.036 C 
BRANCH  14  15
ATOM     15  N   UNL     1       0.403  -1.961  -1.512  0.00  0.00    +0.384 N 
ATOM     16  H   UNL     1       0.568  -2.237  -0.556  0.00  0.00    -0.081 HD
BRANCH  15  17
ATOM     17  C   UNL     1       0.281  -0.499  -1.586  0.00  0.00    -0.079 C 
BRANCH  17  19
ATOM     18  C   UNL     1      -0.846   1.500  -0.598  0.00  0.00    +0.002 C 
ATOM     19  C   UNL     1      -0.812  -0.029  -0.624  0.00  0.00    -0.022 C 
ENDBRANCH  17  19
ENDBRANCH  15  17
BRANCH  15  20
ATOM     20  C   UNL     1      -0.838  -2.581  -1.994  0.00  0.00    -0.047 C 
BRANCH  20  21
ATOM     21  C   UNL     1      -0.773  -4.093  -1.769  0.00  0.00    +0.098 C 
BRANCH  21  22
ATOM     22  C   UNL     1      -2.024  -4.750  -2.357  0.00  0.00    +0.026 C 
ATOM     23  C   UNL     1      -1.902  -6.271  -2.244  0.00  0.00    +0.006 C 
ENDBRANCH  21  22
BRANCH  21  24
ATOM     24  O   UNL     1      -0.707  -4.364  -0.368  0.00  0.00    -0.394 OA
ATOM     25  H   UNL     1      -1.499  -4.102   0.121  0.00  0.00    +0.210 HD
ENDBRANCH  21  24
ENDBRANCH  20  21
ENDBRANCH  15  20
ENDBRANCH  14  15
ENDBRANCH   1  14
BRANCH   5  26
ATOM     26  O   UNL     1       3.377  -3.693  -0.293  0.00  0.00    -0.434 OA
BRANCH  26  27
ATOM     27  C   UNL     1       3.968  -4.783  -0.850  0.00  0.00    +0.172 A 
ATOM     28  C   UNL     1       4.859  -4.630  -1.901  0.00  0.00    +0.050 A 
ATOM     29  C   UNL     1       5.459  -5.739  -2.466  0.00  0.00    +0.004 A 
ATOM     30  C   UNL     1       5.174  -7.004  -1.985  0.00  0.00    +0.004 A 
ATOM     31  C   UNL     1       4.287  -7.164  -0.937  0.00  0.00    +0.049 A 
ATOM     32  C   UNL     1       3.685  -6.056  -0.362  0.00  0.00    +0.162 A 
BRANCH  32  33
ATOM     33  O   UNL     1       2.817  -6.211   0.672  0.00  0.00    -0.491 OA
ATOM     34  C   UNL     1       2.574  -7.546   1.121  0.00  0.00    +0.277 C 
ENDBRANCH  32  33
ENDBRANCH  26  27
ENDBRANCH   5  26
TORSDOF 12
