REMARK  Name = ZINC53203145
REMARK  4 active torsions:
REMARK  status: ('A' for Active; 'I' for Inactive)
REMARK    1  A    between atoms: C_1  and  N_2
REMARK    2  A    between atoms: N_2  and  C_3
REMARK    3  A    between atoms: N_8  and  S_10
REMARK    4  A    between atoms: S_10  and  C_13
REMARK                            x       y       z     vdW  Elec       q    Type
REMARK                         _______ _______ _______ _____ _____    ______ ____
ROOT
ATOM      1  C   UNL     1       0.690  -0.478  -1.207  0.00  0.00    -0.056 C 
ATOM      2  C   UNL     1      -0.118  -0.079  -2.443  0.00  0.00    -0.013 C 
ATOM      3  C   UNL     1       0.614  -0.543  -3.705  0.00  0.00    +0.016 C 
ATOM      4  C   UNL     1       0.742  -2.070  -3.683  0.00  0.00    +0.109 C 
ATOM      5  N   UNL     1       1.390  -2.472  -2.427  0.00  0.00    -0.178 NA
ATOM      6  C   UNL     1       0.820  -2.003  -1.156  0.00  0.00    +0.094 C 
ENDROOT
BRANCH   1   8
ATOM      7  C   UNL     1      -0.018   1.465   0.010  0.00  0.00    -0.100 C 
ATOM      8  N   UNL     1       0.002  -0.004   0.002  0.00  0.00    +0.380 N 
ATOM      9  H   UNL     1       0.490  -0.338   0.820  0.00  0.00    -0.086 HD
ATOM     10  H   UNL     1      -0.945  -0.353   0.009  0.00  0.00    -0.086 HD
ENDBRANCH   1   8
BRANCH   5  11
ATOM     11  S   UNL     1       2.737  -3.435  -2.443  0.00  0.00    +0.067 S 
ATOM     12  O   UNL     1       2.785  -4.086  -1.181  0.00  0.00    -0.152 OA
ATOM     13  O   UNL     1       2.709  -4.152  -3.669  0.00  0.00    -0.152 OA
BRANCH  11  14
ATOM     14  C   UNL     1       4.138  -2.369  -2.514  0.00  0.00    +0.144 A 
ATOM     15  C   UNL     1       4.852  -1.830  -1.496  0.00  0.00    +0.037 A 
ATOM     16  C   UNL     1       5.927  -1.012  -1.790  0.00  0.00    +0.025 A 
ATOM     17  C   UNL     1       6.235  -0.773  -3.090  0.00  0.00    +0.057 A 
ATOM     18  S   UNL     1       4.990  -1.726  -3.945  0.00  0.00    -0.062 S 
ATOM     19 BR   UNL     1       7.625   0.287  -3.809  0.00  0.00    -0.043 Br
ENDBRANCH  11  14
ENDBRANCH   5  11
TORSDOF 3
