REMARK  Name = ZINC39978642
REMARK  11 active torsions:
REMARK  status: ('A' for Active; 'I' for Inactive)
REMARK    1  A    between atoms: C_1  and  C_2
REMARK    2  A    between atoms: C_5  and  C_13
REMARK    3  A    between atoms: C_11  and  C_12
REMARK    4  A    between atoms: C_17  and  S_26
REMARK    5  A    between atoms: N_18  and  C_19
REMARK    6  A    between atoms: C_19  and  C_20
REMARK    7  A    between atoms: S_26  and  C_27
REMARK    8  A    between atoms: C_27  and  C_28
REMARK    9  A    between atoms: N_30  and  C_31
REMARK   10  A    between atoms: C_34  and  O_37
REMARK   11  A    between atoms: O_37  and  C_38
REMARK                            x       y       z     vdW  Elec       q    Type
REMARK                         _______ _______ _______ _____ _____    ______ ____
ROOT
ATOM      1  C   UNL     1      -4.593  -1.415  -1.099  0.00  0.00    +0.208 C 
ATOM      2  N   UNL     1      -5.307  -2.577  -0.543  0.00  0.00    -0.242 N 
ATOM      3  N   UNL     1      -5.943  -3.198  -1.624  0.00  0.00    -0.162 NA
ATOM      4  C   UNL     1      -5.711  -2.576  -2.730  0.00  0.00    +0.176 C 
ATOM      5  N   UNL     1      -4.896  -1.466  -2.539  0.00  0.00    -0.281 N 
ATOM      6  H   UNL     1      -5.331  -2.856   0.386  0.00  0.00    +0.170 HD
ENDROOT
BRANCH   1  11
ATOM      7  C   UNL     1       0.004   1.489  -0.006  0.00  0.00    +0.046 C 
ATOM      8  C   UNL     1       0.025  -0.018  -0.022  0.00  0.00    -0.024 C 
ATOM      9  C   UNL     1      -1.057  -0.804  -0.018  0.00  0.00    -0.014 C 
ATOM     10  C   UNL     1      -2.433  -0.562  -0.198  0.00  0.00    +0.013 C 
ATOM     11  C   UNL     1      -3.109  -1.545  -0.867  0.00  0.00    -0.008 C 
ATOM     12  C   UNL     1      -2.394  -2.720  -1.357  0.00  0.00    +0.005 C 
ATOM     13  C   UNL     1      -1.175  -3.059  -0.924  0.00  0.00    +0.004 C 
ATOM     14  C   UNL     1      -0.526  -2.224   0.142  0.00  0.00    +0.159 C 
ATOM     15  N   UNL     1       0.918  -2.086   0.014  0.00  0.00    -0.276 NA
ATOM     16  C   UNL     1       1.192  -0.814  -0.048  0.00  0.00    +0.037 C 
ATOM     17  C   UNL     1       2.590  -0.258  -0.133  0.00  0.00    +0.065 C 
ENDBRANCH   1  11
BRANCH   5  18
ATOM     18  C   UNL     1      -4.431  -0.530  -3.566  0.00  0.00    +0.144 C 
BRANCH  18  19
ATOM     19  C   UNL     1      -3.122  -1.016  -4.133  0.00  0.00    -0.030 A 
ATOM     20  C   UNL     1      -1.930  -0.623  -3.554  0.00  0.00    +0.005 A 
ATOM     21  C   UNL     1      -0.729  -1.069  -4.074  0.00  0.00    +0.000 A 
ATOM     22  C   UNL     1      -0.720  -1.909  -5.171  0.00  0.00    +0.000 A 
ATOM     23  C   UNL     1      -1.913  -2.304  -5.749  0.00  0.00    +0.000 A 
ATOM     24  C   UNL     1      -3.114  -1.861  -5.227  0.00  0.00    +0.005 A 
ENDBRANCH  18  19
ENDBRANCH   5  18
BRANCH   4  25
ATOM     25  S   UNL     1      -6.350  -3.073  -4.295  0.00  0.00    -0.080 S 
BRANCH  25  26
ATOM     26  C   UNL     1      -7.324  -4.556  -3.920  0.00  0.00    +0.173 C 
BRANCH  26  27
ATOM     27  C   UNL     1      -7.935  -5.090  -5.190  0.00  0.00    +0.227 C 
ATOM     28  O   UNL     1      -7.733  -4.526  -6.245  0.00  0.00    -0.275 OA
ATOM     29  N   UNL     1      -8.706  -6.195  -5.154  0.00  0.00    -0.285 N 
ATOM     30  H   UNL     1      -8.814  -6.685  -4.324  0.00  0.00    +0.155 HD
BRANCH  29  31
ATOM     31  C   UNL     1      -9.353  -6.636  -6.317  0.00  0.00    +0.034 A 
ATOM     32  C   UNL     1     -10.613  -7.214  -6.234  0.00  0.00    +0.027 A 
ATOM     33  C   UNL     1     -11.249  -7.648  -7.380  0.00  0.00    +0.047 A 
ATOM     34  C   UNL     1     -10.630  -7.508  -8.614  0.00  0.00    +0.120 A 
ATOM     35  C   UNL     1      -9.371  -6.931  -8.697  0.00  0.00    +0.047 A 
ATOM     36  C   UNL     1      -8.736  -6.491  -7.552  0.00  0.00    +0.027 A 
BRANCH  34  37
ATOM     37  O   UNL     1     -11.257  -7.936  -9.741  0.00  0.00    -0.495 OA
ATOM     38  C   UNL     1     -10.561  -7.760 -10.977  0.00  0.00    +0.277 C 
ENDBRANCH  34  37
ENDBRANCH  29  31
ENDBRANCH  26  27
ENDBRANCH  25  26
ENDBRANCH   4  25
TORSDOF 8
