REMARK  Name = ZINC01433907
REMARK  6 active torsions:
REMARK  status: ('A' for Active; 'I' for Inactive)
REMARK    1  A    between atoms: C_1  and  O_2
REMARK    2  A    between atoms: O_2  and  C_3
REMARK    3  A    between atoms: C_6  and  N_10
REMARK    4  A    between atoms: C_11  and  C_12
REMARK    5  A    between atoms: C_15  and  O_20
REMARK    6  A    between atoms: C_17  and  O_18
REMARK                            x       y       z     vdW  Elec       q    Type
REMARK                         _______ _______ _______ _____ _____    ______ ____
ROOT
ATOM      1  C   UNL     1       3.910  -4.096  -5.227  0.00  0.00    +0.037 A 
ATOM      2  C   UNL     1       4.779  -5.174  -5.021  0.00  0.00    +0.032 A 
ATOM      3  C   UNL     1       5.388  -5.781  -6.096  0.00  0.00    +0.061 A 
ATOM      4  C   UNL     1       5.144  -5.327  -7.389  0.00  0.00    +0.148 A 
ATOM      5  C   UNL     1       4.285  -4.258  -7.604  0.00  0.00    +0.102 A 
ATOM      6  C   UNL     1       3.661  -3.643  -6.532  0.00  0.00    +0.143 A 
ATOM      7 BR   UNL     1       3.961  -3.647  -9.364  0.00  0.00    -0.043 Br
ATOM      8 BR   UNL     1       6.561  -7.238  -5.815  0.00  0.00    -0.046 Br
ENDROOT
BRANCH   1  10
ATOM      9  N   UNL     1       2.445  -2.444  -4.279  0.00  0.00    -0.255 NA
ATOM     10  C   UNL     1       3.258  -3.445  -4.083  0.00  0.00    +0.123 C 
BRANCH   9  14
ATOM     11  C   UNL     1       0.606  -0.607  -1.056  0.00  0.00    +0.138 A 
ATOM     12  C   UNL     1       1.173   0.164  -2.062  0.00  0.00    +0.049 A 
ATOM     13  C   UNL     1       1.786  -0.443  -3.136  0.00  0.00    +0.031 A 
ATOM     14  C   UNL     1       1.837  -1.837  -3.213  0.00  0.00    +0.065 A 
ATOM     15  C   UNL     1       1.266  -2.610  -2.200  0.00  0.00    +0.051 A 
ATOM     16  C   UNL     1       0.659  -1.994  -1.125  0.00  0.00    +0.085 A 
ATOM     17 CL   UNL     1      -0.045  -2.953   0.140  0.00  0.00    -0.080 Cl
BRANCH  11  19
ATOM     18  C   UNL     1      -0.017   1.425   0.010  0.00  0.00    +0.277 C 
ATOM     19  O   UNL     1       0.002  -0.004   0.002  0.00  0.00    -0.494 OA
ENDBRANCH  11  19
ENDBRANCH   9  14
ENDBRANCH   1  10
BRANCH   6  20
ATOM     20  O   UNL     1       2.816  -2.601  -6.742  0.00  0.00    -0.505 OA
ATOM     21  H   UNL     1       3.249  -1.737  -6.737  0.00  0.00    +0.292 HD
ENDBRANCH   6  20
BRANCH   4  22
ATOM     22  O   UNL     1       5.750  -5.931  -8.443  0.00  0.00    -0.504 OA
ATOM     23  H   UNL     1       5.246  -6.666  -8.818  0.00  0.00    +0.292 HD
ENDBRANCH   4  22
TORSDOF 5
