REMARK  Name = ZINC37291323
REMARK  4 active torsions:
REMARK  status: ('A' for Active; 'I' for Inactive)
REMARK    1  A    between atoms: C_1  and  C_2
REMARK    2  A    between atoms: C_3  and  C_7
REMARK    3  A    between atoms: C_9  and  N_19
REMARK    4  A    between atoms: N_10  and  C_12
REMARK                            x       y       z     vdW  Elec       q    Type
REMARK                         _______ _______ _______ _____ _____    ______ ____
ROOT
ATOM      1  C   UNL     1      -2.513  -0.395   0.013  0.00  0.00    +0.098 A 
ATOM      2  C   UNL     1      -3.626  -1.257   0.019  0.00  0.00    +0.073 A 
ATOM      3  C   UNL     1      -4.747  -0.488   0.028  0.00  0.00    +0.120 A 
ATOM      4  N   UNL     1      -4.354   0.816   0.027  0.00  0.00    -0.218 N 
ATOM      5  N   UNL     1      -2.954   0.846   0.023  0.00  0.00    -0.165 NA
ENDROOT
BRANCH   4   6
ATOM      6  C   UNL     1      -5.201   1.932   0.035  0.00  0.00    +0.067 A 
ATOM      7  C   UNL     1      -6.413   1.890  -0.641  0.00  0.00    +0.029 A 
ATOM      8  C   UNL     1      -7.247   2.991  -0.632  0.00  0.00    +0.017 A 
ATOM      9  C   UNL     1      -6.875   4.136   0.051  0.00  0.00    +0.018 A 
ATOM     10  C   UNL     1      -5.668   4.181   0.725  0.00  0.00    +0.017 A 
ATOM     11  C   UNL     1      -4.833   3.080   0.724  0.00  0.00    +0.029 A 
ATOM     12 BR   UNL     1      -8.018   5.641   0.061  0.00  0.00    -0.050 Br
ENDBRANCH   4   6
BRANCH   1  15
ATOM     13  C   UNL     1      -0.018   1.503   0.010  0.00  0.00    +0.087 C 
ATOM     14  C   UNL     1       0.002  -0.004   0.002  0.00  0.00    +0.111 A 
ATOM     15  C   UNL     1      -1.089  -0.812   0.003  0.00  0.00    +0.043 A 
ATOM     16  C   UNL     1      -0.569  -2.184  -0.008  0.00  0.00    +0.051 A 
ATOM     17  C   UNL     1       0.770  -2.073  -0.014  0.00  0.00    +0.196 A 
ATOM     18  O   UNL     1       1.101  -0.773  -0.013  0.00  0.00    -0.467 OA
ENDBRANCH   1  15
BRANCH   3  19
ATOM     19  N   UNL     1      -6.060  -0.950   0.036  0.00  0.00    -0.343 N 
ATOM     20  H   UNL     1      -6.239  -1.903   0.036  0.00  0.00    +0.144 HD
ATOM     21  H   UNL     1      -6.796  -0.318   0.042  0.00  0.00    +0.144 HD
ENDBRANCH   3  19
TORSDOF 3
