REMARK  Name = ZINC39914378
REMARK  16 active torsions:
REMARK  status: ('A' for Active; 'I' for Inactive)
REMARK    1  A    between atoms: C_1  and  C_2
REMARK    2  A    between atoms: C_2  and  C_3
REMARK    3  A    between atoms: C_3  and  C_4
REMARK    4  A    between atoms: C_4  and  N_5
REMARK    5  A    between atoms: C_6  and  C_25
REMARK    6  A    between atoms: C_9  and  C_16
REMARK    7  A    between atoms: C_19  and  C_23
REMARK    8  A    between atoms: C_21  and  O_22
REMARK    9  A    between atoms: C_28  and  O_34
REMARK   10  A    between atoms: C_29  and  O_31
REMARK   11  A    between atoms: O_31  and  C_32
REMARK   12  A    between atoms: C_32  and  C_33
REMARK   13  A    between atoms: O_34  and  C_35
REMARK   14  A    between atoms: C_35  and  C_36
REMARK   15  A    between atoms: C_36  and  C_37
REMARK   16  A    between atoms: C_37  and  C_38
REMARK                            x       y       z     vdW  Elec       q    Type
REMARK                         _______ _______ _______ _____ _____    ______ ____
ROOT
ATOM      1  N   UNL     1       1.748  -2.714  -2.547  0.00  0.00    -0.285 N 
ATOM      2  C   UNL     1       0.777  -2.831  -3.643  0.00  0.00    +0.141 C 
ATOM      3  C   UNL     1       1.584  -3.076  -4.889  0.00  0.00    +0.035 A 
ATOM      4  C   UNL     1       1.583  -3.295  -6.271  0.00  0.00    +0.102 A 
ATOM      5  N   UNL     1       2.838  -3.429  -6.650  0.00  0.00    -0.173 NA
ATOM      6  N   UNL     1       3.632  -3.316  -5.645  0.00  0.00    -0.272 N 
ATOM      7  H   UNL     1       4.599  -3.379  -5.689  0.00  0.00    +0.189 HD
ATOM      8  C   UNL     1       2.911  -3.093  -4.506  0.00  0.00    +0.126 A 
ATOM      9  C   UNL     1       2.983  -2.862  -3.059  0.00  0.00    +0.265 C 
ATOM     10  O   UNL     1       4.012  -2.814  -2.414  0.00  0.00    -0.268 OA
ENDROOT
BRANCH   4  11
ATOM     11  C   UNL     1       0.388  -3.364  -7.149  0.00  0.00    +0.045 A 
ATOM     12  C   UNL     1      -0.872  -3.060  -6.639  0.00  0.00    +0.034 A 
ATOM     13  C   UNL     1      -1.981  -3.126  -7.460  0.00  0.00    +0.045 A 
ATOM     14  C   UNL     1      -1.845  -3.493  -8.788  0.00  0.00    -0.029 A 
ATOM     15  C   UNL     1      -0.598  -3.795  -9.302  0.00  0.00    +0.050 A 
ATOM     16  C   UNL     1       0.523  -3.728  -8.491  0.00  0.00    +0.126 A 
ATOM     17  C   UNL     1      -3.060  -3.562  -9.676  0.00  0.00    +0.045 C 
ATOM     18 CL   UNL     1      -3.552  -2.747  -6.824  0.00  0.00    -0.083 Cl
BRANCH  16  19
ATOM     19  O   UNL     1       1.750  -4.020  -8.997  0.00  0.00    -0.506 OA
ATOM     20  H   UNL     1       1.993  -4.953  -8.925  0.00  0.00    +0.292 HD
ENDBRANCH  16  19
ENDBRANCH   4  11
BRANCH   2  21
ATOM     21  C   UNL     1      -0.154  -3.988  -3.391  0.00  0.00    -0.019 A 
ATOM     22  C   UNL     1      -1.518  -3.824  -3.548  0.00  0.00    +0.009 A 
ATOM     23  C   UNL     1      -2.376  -4.882  -3.318  0.00  0.00    +0.050 A 
ATOM     24  C   UNL     1      -1.870  -6.112  -2.929  0.00  0.00    +0.162 A 
ATOM     25  C   UNL     1      -0.498  -6.278  -2.771  0.00  0.00    +0.162 A 
ATOM     26  C   UNL     1       0.358  -5.214  -3.008  0.00  0.00    +0.055 A 
BRANCH  25  27
ATOM     27  O   UNL     1       0.004  -7.483  -2.389  0.00  0.00    -0.489 OA
BRANCH  27  28
ATOM     28  C   UNL     1       1.409  -7.552  -2.138  0.00  0.00    +0.226 C 
ATOM     29  C   UNL     1       1.766  -8.943  -1.610  0.00  0.00    +0.048 C 
ENDBRANCH  27  28
ENDBRANCH  25  27
BRANCH  24  30
ATOM     30  O   UNL     1      -2.713  -7.155  -2.701  0.00  0.00    -0.488 OA
BRANCH  30  31
ATOM     31  C   UNL     1      -4.110  -6.911  -2.882  0.00  0.00    +0.229 C 
BRANCH  31  32
ATOM     32  C   UNL     1      -4.894  -8.191  -2.583  0.00  0.00    +0.041 C 
BRANCH  32  33
ATOM     33  C   UNL     1      -6.389  -7.930  -2.777  0.00  0.00    -0.000 C 
ATOM     34  C   UNL     1      -7.173  -9.209  -2.478  0.00  0.00    +0.004 C 
ENDBRANCH  32  33
ENDBRANCH  31  32
ENDBRANCH  30  31
ENDBRANCH  24  30
ENDBRANCH   2  21
BRANCH   1  35
ATOM     35  C   UNL     1       1.426  -2.472  -1.139  0.00  0.00    +0.109 C 
BRANCH  35  36
ATOM     36  C   UNL     1       1.391  -0.965  -0.875  0.00  0.00    +0.019 C 
BRANCH  36  38
ATOM     37  C   UNL     1       1.020   0.794   0.859  0.00  0.00    +0.004 C 
ATOM     38  C   UNL     1       1.055  -0.712   0.596  0.00  0.00    -0.002 C 
ENDBRANCH  36  38
ENDBRANCH  35  36
ENDBRANCH   1  35
TORSDOF 12
