REMARK  Name = ZINC09782602
REMARK  7 active torsions:
REMARK  status: ('A' for Active; 'I' for Inactive)
REMARK    1  A    between atoms: C_1  and  N_2
REMARK    2  A    between atoms: N_2  and  C_3
REMARK    3  A    between atoms: N_2  and  S_24
REMARK    4  A    between atoms: C_3  and  C_4
REMARK    5  A    between atoms: N_9  and  S_12
REMARK    6  A    between atoms: S_12  and  C_15
REMARK    7  A    between atoms: S_24  and  C_27
REMARK                            x       y       z     vdW  Elec       q    Type
REMARK                         _______ _______ _______ _____ _____    ______ ____
ROOT
ATOM      1  C   UNL     1       0.019   3.842  -3.021  0.00  0.00    +0.231 C 
ATOM      2  O   UNL     1       0.336   2.672  -2.990  0.00  0.00    -0.274 OA
ATOM      3  N   UNL     1       0.745   4.718  -3.743  0.00  0.00    -0.298 N 
ATOM      4  C   UNL     1       0.369   6.138  -3.795  0.00  0.00    +0.125 C 
ATOM      5  C   UNL     1       1.581   6.978  -3.356  0.00  0.00    +0.128 C 
ATOM      6  N   UNL     1       2.759   6.529  -4.112  0.00  0.00    -0.174 NA
ATOM      7  C   UNL     1       3.132   5.108  -4.065  0.00  0.00    +0.128 C 
ATOM      8  C   UNL     1       1.923   4.270  -4.499  0.00  0.00    +0.125 C 
ENDROOT
BRANCH   6   9
ATOM      9  S   UNL     1       3.650   7.605  -5.000  0.00  0.00    +0.061 S 
ATOM     10  O   UNL     1       3.425   8.887  -4.431  0.00  0.00    -0.153 OA
ATOM     11  O   UNL     1       4.951   7.047  -5.129  0.00  0.00    -0.153 OA
BRANCH   9  12
ATOM     12  C   UNL     1       2.957   7.644  -6.620  0.00  0.00    +0.106 A 
ATOM     13  C   UNL     1       1.951   8.543  -6.920  0.00  0.00    +0.029 A 
ATOM     14  C   UNL     1       1.409   8.573  -8.190  0.00  0.00    +0.006 A 
ATOM     15  C   UNL     1       1.870   7.703  -9.165  0.00  0.00    -0.044 A 
ATOM     16  C   UNL     1       2.875   6.803  -8.864  0.00  0.00    -0.042 A 
ATOM     17  C   UNL     1       3.421   6.779  -7.592  0.00  0.00    +0.032 A 
ATOM     18  C   UNL     1       3.199   5.971 -10.086  0.00  0.00    +0.036 C 
ATOM     19  C   UNL     1       2.597   6.749 -11.276  0.00  0.00    +0.009 C 
ATOM     20  C   UNL     1       1.449   7.537 -10.609  0.00  0.00    +0.036 C 
ENDBRANCH   9  12
ENDBRANCH   6   9
BRANCH   1  21
ATOM     21  C   UNL     1      -1.187   4.317  -2.251  0.00  0.00    +0.205 C 
BRANCH  21  23
ATOM     22  C   UNL     1      -2.758   2.324  -2.253  0.00  0.00    +0.132 C 
ATOM     23  N   UNL     1      -1.799   3.183  -1.554  0.00  0.00    -0.170 NA
BRANCH  23  24
ATOM     24  S   UNL     1      -1.406   2.872   0.025  0.00  0.00    +0.067 S 
ATOM     25  O   UNL     1      -2.493   2.143   0.578  0.00  0.00    -0.152 OA
ATOM     26  O   UNL     1      -0.951   4.098   0.579  0.00  0.00    -0.152 OA
BRANCH  24  27
ATOM     27  C   UNL     1      -0.022   1.781   0.012  0.00  0.00    +0.143 A 
ATOM     28  C   UNL     1       1.300   2.079   0.001  0.00  0.00    +0.036 A 
ATOM     29  C   UNL     1       2.220   1.048  -0.013  0.00  0.00    +0.010 A 
ATOM     30  C   UNL     1       1.773  -0.232  -0.016  0.00  0.00    +0.047 A 
ATOM     31  S   UNL     1       0.002  -0.004   0.002  0.00  0.00    -0.077 S 
ENDBRANCH  24  27
ENDBRANCH  23  24
ENDBRANCH  21  23
ENDBRANCH   1  21
TORSDOF 6
