REMARK  Name = ZINC06592245
REMARK  10 active torsions:
REMARK  status: ('A' for Active; 'I' for Inactive)
REMARK    1  A    between atoms: C_1  and  C_2
REMARK    2  A    between atoms: C_2  and  C_3
REMARK    3  A    between atoms: C_3  and  C_4
REMARK    4  A    between atoms: C_4  and  C_5
REMARK    5  A    between atoms: C_5  and  C_6
REMARK    6  A    between atoms: C_7  and  C_18
REMARK    7  A    between atoms: C_8  and  C_15
REMARK    8  A    between atoms: C_9  and  C_14
REMARK    9  A    between atoms: N_10  and  C_11
REMARK   10  A    between atoms: C_11  and  C_12
REMARK                            x       y       z     vdW  Elec       q    Type
REMARK                         _______ _______ _______ _____ _____    ______ ____
ROOT
ATOM      1  C   UNL     1      -0.855  -2.981  -1.094  0.00  0.00    +0.028 A 
ATOM      2  C   UNL     1      -1.037  -3.539  -2.318  0.00  0.00    +0.015 A 
ATOM      3  C   UNL     1      -1.663  -2.497  -3.152  0.00  0.00    +0.065 A 
ATOM      4  C   UNL     1      -1.806  -1.403  -2.346  0.00  0.00    +0.029 A 
ATOM      5  N   UNL     1      -1.318  -1.700  -1.126  0.00  0.00    -0.343 N 
ATOM      6  C   UNL     1      -2.407  -0.083  -2.755  0.00  0.00    +0.064 C 
ENDROOT
BRANCH   2   7
ATOM      7  C   UNL     1      -0.678  -4.917  -2.733  0.00  0.00    -0.015 A 
ATOM      8  C   UNL     1       0.658  -5.310  -2.772  0.00  0.00    +0.009 A 
ATOM      9  C   UNL     1       0.986  -6.595  -3.152  0.00  0.00    +0.016 A 
ATOM     10  C   UNL     1      -0.009  -7.490  -3.506  0.00  0.00    +0.018 A 
ATOM     11  C   UNL     1      -1.338  -7.103  -3.475  0.00  0.00    +0.016 A 
ATOM     12  C   UNL     1      -1.677  -5.822  -3.090  0.00  0.00    +0.009 A 
ATOM     13 BR   UNL     1       0.448  -9.247  -4.035  0.00  0.00    -0.050 Br
ENDBRANCH   2   7
BRANCH   3  14
ATOM     14  C   UNL     1      -2.059  -2.613  -4.564  0.00  0.00    +0.244 C 
ATOM     15  O   UNL     1      -3.176  -2.998  -4.853  0.00  0.00    -0.270 OA
ATOM     16  N   UNL     1      -1.184  -2.293  -5.538  0.00  0.00    -0.325 N 
ATOM     17  H   UNL     1      -0.293  -1.987  -5.308  0.00  0.00    +0.145 HD
ATOM     18  H   UNL     1      -1.445  -2.370  -6.469  0.00  0.00    +0.145 HD
ENDBRANCH   3  14
BRANCH   1  19
ATOM     19  C   UNL     1      -0.244  -3.665   0.101  0.00  0.00    +0.054 C 
BRANCH  19  20
ATOM     20  C   UNL     1      -1.342  -4.357   0.910  0.00  0.00    +0.006 C 
BRANCH  20  21
ATOM     21  C   UNL     1      -0.721  -5.052   2.123  0.00  0.00    +0.000 C 
BRANCH  21  23
ATOM     22  C   UNL     1      -1.198  -6.439   4.146  0.00  0.00    +0.004 C 
ATOM     23  C   UNL     1      -1.820  -5.745   2.932  0.00  0.00    -0.003 C 
ENDBRANCH  21  23
ENDBRANCH  20  21
ENDBRANCH  19  20
ENDBRANCH   1  19
BRANCH   5  24
ATOM     24  C   UNL     1      -1.293  -0.775   0.010  0.00  0.00    +0.148 C 
BRANCH  24  25
ATOM     25  C   UNL     1       0.002  -0.004   0.002  0.00  0.00    -0.013 C 
ATOM     26  C   UNL     1      -0.016   1.306   0.009  0.00  0.00    +0.005 C 
ENDBRANCH  24  25
ENDBRANCH   5  24
TORSDOF 8
