REMARK  Name = ZINC40933596
REMARK  9 active torsions:
REMARK  status: ('A' for Active; 'I' for Inactive)
REMARK    1  A    between atoms: C_1  and  C_2
REMARK    2  A    between atoms: C_2  and  C_3
REMARK    3  A    between atoms: C_3  and  N_4
REMARK    4  A    between atoms: C_5  and  C_18
REMARK    5  A    between atoms: C_6  and  N_17
REMARK    6  A    between atoms: N_9  and  C_10
REMARK    7  A    between atoms: C_18  and  C_19
REMARK    8  A    between atoms: C_18  and  C_20
REMARK    9  A    between atoms: C_18  and  C_21
REMARK                            x       y       z     vdW  Elec       q    Type
REMARK                         _______ _______ _______ _____ _____    ______ ____
ROOT
ATOM      1  N   UNL     1      -0.331  -1.559  -1.045  0.00  0.00    -0.283 N 
ATOM      2  C   UNL     1      -0.493  -2.202  -2.246  0.00  0.00    +0.067 A 
ATOM      3  C   UNL     1      -0.234  -3.516  -2.070  0.00  0.00    +0.113 A 
ATOM      4  C   UNL     1       0.113  -3.705  -0.661  0.00  0.00    +0.288 A 
ATOM      5  O   UNL     1       0.409  -4.756  -0.123  0.00  0.00    -0.264 OA
ATOM      6  N   UNL     1       0.049  -2.492  -0.073  0.00  0.00    -0.245 N 
ENDROOT
BRANCH   6   7
ATOM      7  C   UNL     1       0.324  -2.204   1.336  0.00  0.00    +0.109 C 
ATOM      8  C   UNL     1       1.444  -1.203   1.438  0.00  0.00    +0.027 C 
ATOM      9  C   UNL     1       2.332  -1.436   2.675  0.00  0.00    +0.002 C 
ATOM     10  C   UNL     1       1.520  -1.785   3.937  0.00  0.00    +0.000 C 
ATOM     11  C   UNL     1       0.279  -0.945   4.073  0.00  0.00    +0.000 C 
ATOM     12  C   UNL     1      -0.904  -1.713   3.448  0.00  0.00    +0.002 C 
ATOM     13  C   UNL     1      -0.933  -1.602   1.997  0.00  0.00    +0.027 C 
ENDBRANCH   6   7
BRANCH   2  14
ATOM     14  C   UNL     1      -0.893  -1.551  -3.545  0.00  0.00    +0.006 C 
ATOM     15  C   UNL     1      -1.115  -2.629  -4.608  0.00  0.00    +0.017 C 
ATOM     16  C   UNL     1      -2.188  -0.761  -3.342  0.00  0.00    +0.017 C 
ATOM     17  C   UNL     1       0.216  -0.603  -4.004  0.00  0.00    +0.017 C 
ENDBRANCH   2  14
BRANCH   3  18
ATOM     18  N   UNL     1      -0.290  -4.519  -3.060  0.00  0.00    -0.352 N 
ATOM     19  H   UNL     1      -0.929  -4.450  -3.787  0.00  0.00    +0.143 HD
ATOM     20  H   UNL     1       0.311  -5.279  -3.015  0.00  0.00    +0.143 HD
ENDBRANCH   3  18
BRANCH   1  21
ATOM     21  C   UNL     1      -0.518  -0.124  -0.817  0.00  0.00    +0.142 C 
BRANCH  21  23
ATOM     22  C   UNL     1      -2.111   1.606   0.026  0.00  0.00    +0.005 C 
ATOM     23  C   UNL     1      -1.961   0.139  -0.380  0.00  0.00    +0.020 C 
ENDBRANCH  21  23
ENDBRANCH   1  21
TORSDOF 5
