REMARK  Name = ZINC01681960
REMARK  3 active torsions:
REMARK  status: ('A' for Active; 'I' for Inactive)
REMARK    1  A    between atoms: C_4  and  C_7
REMARK    2  A    between atoms: C_10  and  C_11
REMARK    3  A    between atoms: C_16  and  N_17
REMARK                            x       y       z     vdW  Elec       q    Type
REMARK                         _______ _______ _______ _____ _____    ______ ____
ROOT
ATOM      1  C   UNL     1       2.433   5.098  -0.307  0.00  0.00    +0.238 C 
ATOM      2  C   UNL     1       1.284   6.020   0.066  0.00  0.00    +0.045 C 
ATOM      3  C   UNL     1       1.456   7.133   0.811  0.00  0.00    +0.021 C 
ATOM      4  C   UNL     1      -0.040   5.602  -0.454  0.00  0.00    +0.197 C 
ATOM      5  O   UNL     1      -0.900   6.400  -0.779  0.00  0.00    -0.287 OA
ATOM      6  C   UNL     1      -0.235   4.133  -0.546  0.00  0.00    +0.064 A 
ATOM      7  C   UNL     1      -1.481   3.607  -0.879  0.00  0.00    +0.015 A 
ATOM      8  C   UNL     1      -1.640   2.241  -0.983  0.00  0.00    +0.001 A 
ATOM      9  C   UNL     1      -0.567   1.398  -0.744  0.00  0.00    +0.004 A 
ATOM     10  C   UNL     1       0.670   1.909  -0.408  0.00  0.00    +0.046 A 
ATOM     11  C   UNL     1       0.853   3.284  -0.302  0.00  0.00    +0.133 A 
ATOM     12  O   UNL     1       2.070   3.763   0.044  0.00  0.00    -0.479 OA
ENDROOT
BRANCH   1  16
ATOM     13  C   UNL     1       3.162   5.333  -4.510  0.00  0.00    +0.000 A 
ATOM     14  C   UNL     1       3.977   6.018  -3.627  0.00  0.00    +0.000 A 
ATOM     15  C   UNL     1       3.741   5.942  -2.268  0.00  0.00    +0.007 A 
ATOM     16  C   UNL     1       2.690   5.181  -1.790  0.00  0.00    -0.003 A 
ATOM     17  C   UNL     1       1.879   4.492  -2.671  0.00  0.00    +0.007 A 
ATOM     18  C   UNL     1       2.111   4.572  -4.032  0.00  0.00    +0.000 A 
ENDBRANCH   1  16
BRANCH   3  19
ATOM     19  C   UNL     1       0.286   7.895   1.275  0.00  0.00    +0.006 A 
ATOM     20  C   UNL     1      -0.842   7.225   1.761  0.00  0.00    +0.010 A 
ATOM     21  C   UNL     1      -1.934   7.946   2.194  0.00  0.00    +0.001 A 
ATOM     22  C   UNL     1      -1.916   9.330   2.150  0.00  0.00    +0.002 A 
ATOM     23  C   UNL     1      -0.804  10.000   1.671  0.00  0.00    +0.033 A 
ATOM     24  C   UNL     1       0.298   9.293   1.238  0.00  0.00    +0.133 A 
BRANCH  24  25
ATOM     25  N   UNL     1       1.489  10.012   0.732  0.00  0.00    +0.057 N 
ATOM     26  O   UNL     1       1.540  11.227   0.798  0.00  0.00    -0.126 OA
ATOM     27  O   UNL     1       2.417   9.388   0.250  0.00  0.00    -0.126 OA
ENDBRANCH  24  25
ENDBRANCH   3  19
TORSDOF 3
