REMARK  Name = ZINC08510600
REMARK  10 active torsions:
REMARK  status: ('A' for Active; 'I' for Inactive)
REMARK    1  A    between atoms: C_1  and  C_2
REMARK    2  A    between atoms: C_6  and  C_29
REMARK    3  A    between atoms: C_7  and  N_8
REMARK    4  A    between atoms: C_9  and  C_11
REMARK    5  A    between atoms: C_11  and  C_12
REMARK    6  A    between atoms: C_13  and  C_28
REMARK    7  A    between atoms: C_17  and  C_24
REMARK    8  A    between atoms: C_22  and  C_23
REMARK    9  A    between atoms: C_29  and  C_30
REMARK   10  A    between atoms: C_29  and  C_31
REMARK                            x       y       z     vdW  Elec       q    Type
REMARK                         _______ _______ _______ _____ _____    ______ ____
ROOT
ATOM      1  C   UNL     1       6.985   1.375  -0.751  0.00  0.00    +0.049 A 
ATOM      2  C   UNL     1       7.307   1.405  -2.071  0.00  0.00    -0.026 A 
ATOM      3  C   UNL     1       8.344   0.491  -2.551  0.00  0.00    +0.064 A 
ATOM      4  C   UNL     1       8.966  -0.378  -1.638  0.00  0.00    +0.143 A 
ATOM      5  C   UNL     1       9.954  -1.255  -2.077  0.00  0.00    +0.051 A 
ATOM      6  C   UNL     1      10.327  -1.278  -3.390  0.00  0.00    -0.036 A 
ATOM      7  C   UNL     1       9.722  -0.422  -4.315  0.00  0.00    +0.027 A 
ATOM      8  C   UNL     1       8.723   0.471  -3.904  0.00  0.00    +0.146 A 
ATOM      9  O   UNL     1       8.328   1.160  -4.990  0.00  0.00    -0.462 OA
ATOM     10  C   UNL     1       9.008   0.768  -6.081  0.00  0.00    +0.199 A 
ATOM     11  C   UNL     1       9.880  -0.196  -5.757  0.00  0.00    -0.005 A 
ATOM     12  C   UNL     1      10.832  -0.905  -6.685  0.00  0.00    +0.047 C 
ATOM     13  C   UNL     1      11.399  -2.235  -3.846  0.00  0.00    +0.044 C 
ATOM     14  O   UNL     1       8.598  -0.357  -0.338  0.00  0.00    -0.422 OA
ATOM     15  C   UNL     1       7.652   0.482   0.111  0.00  0.00    +0.341 A 
ATOM     16  O   UNL     1       7.359   0.468   1.293  0.00  0.00    -0.245 OA
ATOM     17  C   UNL     1       6.615   2.353  -3.016  0.00  0.00    +0.045 C 
ENDROOT
BRANCH   1  18
ATOM     18  C   UNL     1       5.923   2.298  -0.211  0.00  0.00    +0.138 C 
BRANCH  18  20
ATOM     19  N   UNL     1       3.474   2.261   0.135  0.00  0.00    -0.285 N 
ATOM     20  C   UNL     1       4.579   1.620  -0.294  0.00  0.00    +0.222 C 
ATOM     21  O   UNL     1       4.493   0.499  -0.748  0.00  0.00    -0.275 OA
ATOM     22  H   UNL     1       3.536   3.175   0.452  0.00  0.00    +0.155 HD
BRANCH  19  29
ATOM     23  C   UNL     1       3.347  -0.392   1.157  0.00  0.00    +0.045 C 
ATOM     24  C   UNL     1       2.131   0.311   0.613  0.00  0.00    -0.029 A 
ATOM     25  C   UNL     1       0.908  -0.332   0.600  0.00  0.00    +0.005 A 
ATOM     26  C   UNL     1      -0.208   0.312   0.101  0.00  0.00    +0.001 A 
ATOM     27  C   UNL     1      -0.106   1.603  -0.387  0.00  0.00    +0.006 A 
ATOM     28  C   UNL     1       1.113   2.251  -0.377  0.00  0.00    -0.023 A 
ATOM     29  C   UNL     1       2.237   1.606   0.123  0.00  0.00    +0.040 A 
BRANCH  28  30
ATOM     30  C   UNL     1       1.224   3.657  -0.909  0.00  0.00    +0.015 C 
ATOM     31  C   UNL     1       0.806   3.679  -2.381  0.00  0.00    +0.012 C 
ATOM     32  C   UNL     1       0.308   4.581  -0.104  0.00  0.00    +0.012 C 
ENDBRANCH  28  30
ENDBRANCH  19  29
ENDBRANCH  18  20
ENDBRANCH   1  18
TORSDOF 4
