REMARK  Name = ZINC40216100
REMARK  3 active torsions:
REMARK  status: ('A' for Active; 'I' for Inactive)
REMARK    1  A    between atoms: C_6  and  S_7
REMARK    2  A    between atoms: S_7  and  N_10
REMARK    3  A    between atoms: C_14  and  C_16
REMARK                            x       y       z     vdW  Elec       q    Type
REMARK                         _______ _______ _______ _____ _____    ______ ____
ROOT
ATOM      1  C   UNL     1      -0.017   1.378   0.010  0.00  0.00    +0.030 A 
ATOM      2  C   UNL     1       1.165   2.089   0.002  0.00  0.00    +0.026 A 
ATOM      3  C   UNL     1       2.389   1.418  -0.013  0.00  0.00    +0.040 A 
ATOM      4  C   UNL     1       2.397   0.032  -0.021  0.00  0.00    -0.023 A 
ATOM      5  C   UNL     1       1.211  -0.675  -0.013  0.00  0.00    +0.034 A 
ATOM      6  C   UNL     1       0.002  -0.004   0.002  0.00  0.00    +0.105 A 
ATOM      7  C   UNL     1       3.833  -0.441  -0.037  0.00  0.00    +0.056 C 
ATOM      8  C   UNL     1       4.666   0.852  -0.038  0.00  0.00    +0.119 C 
ATOM      9  N   UNL     1       3.686   1.940  -0.023  0.00  0.00    -0.264 N 
ATOM     10  C   UNL     1       3.989   3.253  -0.018  0.00  0.00    +0.286 C 
ATOM     11  O   UNL     1       3.099   4.084  -0.006  0.00  0.00    -0.266 OA
ENDROOT
BRANCH  10  12
ATOM     12  C   UNL     1       5.390   3.681  -0.030  0.00  0.00    +0.191 A 
ATOM     13  C   UNL     1       5.835   4.973  -0.021  0.00  0.00    +0.056 A 
ATOM     14  C   UNL     1       7.237   4.917  -0.037  0.00  0.00    +0.058 A 
ATOM     15  C   UNL     1       7.583   3.610  -0.054  0.00  0.00    +0.171 A 
ATOM     16  O   UNL     1       6.468   2.868  -0.044  0.00  0.00    -0.444 OA
ATOM     17 BR   UNL     1       9.351   2.939  -0.081  0.00  0.00    -0.008 Br
ENDBRANCH  10  12
BRANCH   6  18
ATOM     18  S   UNL     1      -1.510  -0.908   0.012  0.00  0.00    +0.056 S 
ATOM     19  O   UNL     1      -1.215  -2.188   0.553  0.00  0.00    -0.153 OA
ATOM     20  O   UNL     1      -2.492  -0.050   0.577  0.00  0.00    -0.153 OA
BRANCH  18  21
ATOM     21  N   UNL     1      -1.946  -1.151  -1.567  0.00  0.00    -0.204 NA
ATOM     22  H   UNL     1      -2.453  -1.940  -1.814  0.00  0.00    +0.144 HD
ATOM     23  H   UNL     1      -1.695  -0.503  -2.244  0.00  0.00    +0.144 HD
ENDBRANCH  18  21
ENDBRANCH   6  18
TORSDOF 3
