REMARK  Name = ZINC41644344
REMARK  8 active torsions:
REMARK  status: ('A' for Active; 'I' for Inactive)
REMARK    1  A    between atoms: C_1  and  C_2
REMARK    2  A    between atoms: N_8  and  C_9
REMARK    3  A    between atoms: C_9  and  C_11
REMARK    4  A    between atoms: C_9  and  C_12
REMARK    5  A    between atoms: C_12  and  N_13
REMARK    6  A    between atoms: C_14  and  C_16
REMARK    7  A    between atoms: N_18  and  C_19
REMARK    8  A    between atoms: C_24  and  N_25
REMARK                            x       y       z     vdW  Elec       q    Type
REMARK                         _______ _______ _______ _____ _____    ______ ____
ROOT
ATOM      1  C   UNL     1      -1.939   3.496  -0.748  0.00  0.00    +0.303 C 
ATOM      2  O   UNL     1      -2.492   2.583  -1.325  0.00  0.00    -0.265 OA
ATOM      3  N   UNL     1      -2.106   4.763  -1.176  0.00  0.00    -0.276 N 
ATOM      4  H   UNL     1      -1.610   5.485  -0.760  0.00  0.00    +0.155 HD
ENDROOT
BRANCH   3   5
ATOM      5  C   UNL     1      -2.994   5.037  -2.222  0.00  0.00    +0.055 A 
ATOM      6  C   UNL     1      -3.279   4.061  -3.167  0.00  0.00    +0.025 A 
ATOM      7  C   UNL     1      -4.157   4.334  -4.198  0.00  0.00    +0.002 A 
ATOM      8  C   UNL     1      -4.754   5.578  -4.294  0.00  0.00    +0.002 A 
ATOM      9  C   UNL     1      -4.476   6.556  -3.357  0.00  0.00    +0.025 A 
ATOM     10  C   UNL     1      -3.601   6.290  -2.315  0.00  0.00    +0.051 A 
BRANCH  10  11
ATOM     11  N   UNL     1      -3.324   7.276  -1.363  0.00  0.00    -0.328 N 
ATOM     12  C   UNL     1      -2.217   8.221  -1.565  0.00  0.00    +0.105 C 
ATOM     13  C   UNL     1      -2.756   9.648  -1.429  0.00  0.00    +0.019 C 
ATOM     14  C   UNL     1      -3.470   9.794  -0.083  0.00  0.00    +0.003 C 
ATOM     15  C   UNL     1      -4.651   8.823  -0.022  0.00  0.00    +0.019 C 
ATOM     16  C   UNL     1      -4.137   7.390  -0.144  0.00  0.00    +0.105 C 
ENDBRANCH  10  11
ENDBRANCH   3   5
BRANCH   1  18
ATOM     17  N   UNL     1      -0.824   1.944   0.803  0.00  0.00    -0.309 N 
ATOM     18  C   UNL     1      -1.073   3.216   0.436  0.00  0.00    +0.299 C 
ATOM     19  O   UNL     1      -0.595   4.135   1.069  0.00  0.00    -0.265 OA
ATOM     20  H   UNL     1      -1.145   1.210   0.256  0.00  0.00    +0.149 HD
BRANCH  17  21
ATOM     21  C   UNL     1      -0.067   1.669   2.027  0.00  0.00    +0.089 C 
BRANCH  21  22
ATOM     22  C   UNL     1      -0.028   0.159   2.274  0.00  0.00    -0.054 C 
ATOM     23  C   UNL     1       0.827  -0.133   3.509  0.00  0.00    -0.012 C 
BRANCH  22  30
ATOM     24  C   UNL     1      -0.948  -2.393   1.551  0.00  0.00    -0.013 C 
ATOM     25  C   UNL     1       0.500  -1.967   1.301  0.00  0.00    -0.071 C 
ATOM     26  C   UNL     1       1.030  -2.674   0.052  0.00  0.00    -0.016 C 
ATOM     27  C   UNL     1       2.480  -2.245  -0.194  0.00  0.00    -0.003 C 
ATOM     28  C   UNL     1       2.535  -0.720  -0.322  0.00  0.00    -0.019 C 
ATOM     29  C   UNL     1       1.949  -0.085   0.941  0.00  0.00    -0.078 C 
ATOM     30  N   UNL     1       0.555  -0.513   1.105  0.00  0.00    +0.384 N 
ATOM     31  H   UNL     1       0.028  -0.266   0.280  0.00  0.00    -0.081 HD
ENDBRANCH  22  30
ENDBRANCH  21  22
ENDBRANCH  17  21
ENDBRANCH   1  18
TORSDOF 6
