REMARK  Name = ZINC32985236
REMARK  7 active torsions:
REMARK  status: ('A' for Active; 'I' for Inactive)
REMARK    1  A    between atoms: C_1  and  C_2
REMARK    2  A    between atoms: C_2  and  C_3
REMARK    3  A    between atoms: C_6  and  S_9
REMARK    4  A    between atoms: S_9  and  N_12
REMARK    5  A    between atoms: N_12  and  C_13
REMARK    6  A    between atoms: C_19  and  C_35
REMARK    7  A    between atoms: C_21  and  N_23
REMARK                            x       y       z     vdW  Elec       q    Type
REMARK                         _______ _______ _______ _____ _____    ______ ____
ROOT
ATOM      1  C   UNL     1       1.594  14.388  -0.141  0.00  0.00    +0.049 A 
ATOM      2  C   UNL     1       2.148  13.786   0.996  0.00  0.00    +0.026 A 
ATOM      3  C   UNL     1       2.120  12.437   1.158  0.00  0.00    +0.028 A 
ATOM      4  C   UNL     1       1.528  11.623   0.174  0.00  0.00    +0.049 A 
ATOM      5  C   UNL     1       0.965  12.229  -0.977  0.00  0.00    +0.014 A 
ATOM      6  C   UNL     1       1.005  13.618  -1.123  0.00  0.00    +0.035 A 
ATOM      7  C   UNL     1       0.352  11.371  -1.992  0.00  0.00    +0.075 A 
ATOM      8  C   UNL     1       0.366  10.002  -1.762  0.00  0.00    +0.057 A 
ATOM      9  C   UNL     1       0.945   9.508  -0.586  0.00  0.00    +0.100 A 
ATOM     10  N   UNL     1       1.490  10.295   0.314  0.00  0.00    -0.343 N 
ATOM     11  H   UNL     1       1.926   9.823   1.206  0.00  0.00    +0.167 HD
ENDROOT
BRANCH   9  12
ATOM     12  N   UNL     1       0.947   8.137  -0.366  0.00  0.00    -0.314 N 
ATOM     13  C   UNL     1       1.600   7.809   0.909  0.00  0.00    +0.125 C 
ATOM     14  C   UNL     1       1.653   6.289   1.076  0.00  0.00    +0.125 C 
ATOM     15  N   UNL     1       0.288   5.746   1.031  0.00  0.00    -0.314 N 
ATOM     16  C   UNL     1      -0.364   6.073  -0.244  0.00  0.00    +0.125 C 
ATOM     17  C   UNL     1      -0.417   7.594  -0.411  0.00  0.00    +0.125 C 
ATOM     18  C   UNL     1       0.291   4.373   1.251  0.00  0.00    +0.099 A 
ATOM     19  C   UNL     1      -0.911   3.672   1.248  0.00  0.00    +0.042 A 
ATOM     20  C   UNL     1      -0.893   2.306   1.464  0.00  0.00    +0.005 A 
ATOM     21  C   UNL     1       0.329   1.686   1.687  0.00  0.00    +0.018 A 
ATOM     22  C   UNL     1       1.483   2.443   1.676  0.00  0.00    +0.084 A 
ATOM     23  N   UNL     1       1.437   3.745   1.463  0.00  0.00    -0.350 N 
ATOM     24  H   UNL     1       2.381   4.309   1.463  0.00  0.00    +0.166 HD
ENDBRANCH   9  12
BRANCH   7  25
ATOM     25  C   UNL     1      -0.252  11.939  -3.215  0.00  0.00    +0.387 C 
ATOM     26  O   UNL     1      -0.345  13.143  -3.344  0.00  0.00    -0.241 OA
ATOM     27  O   UNL     1      -0.699  11.121  -4.188  0.00  0.00    -0.241 OA
ENDBRANCH   7  25
BRANCH   1  28
ATOM     28  N   UNL     1       1.637  15.776  -0.280  0.00  0.00    -0.216 N 
ATOM     29  H   UNL     1       1.946  16.223  -1.236  0.00  0.00    +0.174 HD
BRANCH  28  30
ATOM     30  S   UNL     1       1.222  16.749   0.994  0.00  0.00    +0.072 S 
ATOM     31  O   UNL     1       1.996  16.317   2.104  0.00  0.00    -0.150 OA
ATOM     32  O   UNL     1       1.259  18.085   0.513  0.00  0.00    -0.150 OA
BRANCH  30  36
ATOM     33  C   UNL     1      -3.099  15.858   2.007  0.00  0.00    -0.048 A 
ATOM     34  C   UNL     1      -2.083  15.220   2.693  0.00  0.00    +0.005 A 
ATOM     35  C   UNL     1      -0.763  15.492   2.383  0.00  0.00    +0.029 A 
ATOM     36  C   UNL     1      -0.460  16.402   1.388  0.00  0.00    +0.109 A 
ATOM     37  C   UNL     1      -1.477  17.044   0.706  0.00  0.00    +0.029 A 
ATOM     38  C   UNL     1      -2.796  16.769   1.012  0.00  0.00    +0.005 A 
BRANCH  33  40
ATOM     39  C   UNL     1      -5.016  16.522   3.433  0.00  0.00    +0.009 C 
ATOM     40  C   UNL     1      -4.538  15.561   2.344  0.00  0.00    +0.032 C 
ENDBRANCH  33  40
ENDBRANCH  30  36
ENDBRANCH  28  30
ENDBRANCH   1  28
TORSDOF 6
