REMARK  Name = ZINC66815574
REMARK  3 active torsions:
REMARK  status: ('A' for Active; 'I' for Inactive)
REMARK    1  A    between atoms: C_6  and  C_7
REMARK    2  A    between atoms: C_17  and  S_19
REMARK    3  A    between atoms: S_19  and  N_22
REMARK                            x       y       z     vdW  Elec       q    Type
REMARK                         _______ _______ _______ _____ _____    ______ ____
ROOT
ATOM      1  C   UNL     1      -1.293  -0.775   0.011  0.00  0.00    +0.166 C 
ATOM      2  C   UNL     1      -1.617  -1.247  -1.411  0.00  0.00    +0.143 C 
ATOM      3  N   UNL     1      -2.778  -2.150  -1.347  0.00  0.00    -0.305 N 
ATOM      4  C   UNL     1      -2.740  -3.257  -0.379  0.00  0.00    +0.135 C 
ATOM      5  C   UNL     1      -2.361  -2.687   0.993  0.00  0.00    +0.179 C 
ATOM      6  O   UNL     1      -1.166  -1.912   0.868  0.00  0.00    -0.369 OA
ATOM      7  C   UNL     1      -3.874  -1.962  -2.174  0.00  0.00    +0.163 A 
ATOM      8  N   UNL     1      -4.060  -1.033  -3.088  0.00  0.00    -0.231 NA
ATOM      9  C   UNL     1      -5.172  -0.990  -3.800  0.00  0.00    +0.149 A 
ATOM     10  C   UNL     1      -6.103  -1.941  -3.546  0.00  0.00    +0.163 A 
ATOM     11  S   UNL     1      -5.288  -2.871  -2.259  0.00  0.00    -0.032 S 
ENDROOT
BRANCH   1  17
ATOM     12  C   UNL     1      -0.017   1.378   0.010  0.00  0.00    +0.008 A 
ATOM     13  C   UNL     1       1.171   2.086   0.002  0.00  0.00    +0.022 A 
ATOM     14  C   UNL     1       2.378   1.412  -0.013  0.00  0.00    +0.059 A 
ATOM     15  C   UNL     1       2.397   0.027  -0.021  0.00  0.00    +0.060 A 
ATOM     16  C   UNL     1       1.208  -0.680  -0.013  0.00  0.00    +0.027 A 
ATOM     17  C   UNL     1       0.002  -0.004   0.002  0.00  0.00    -0.016 A 
ATOM     18 CL   UNL     1       3.912  -0.821  -0.040  0.00  0.00    -0.082 Cl
ATOM     19 CL   UNL     1       3.869   2.301  -0.023  0.00  0.00    -0.082 Cl
ENDBRANCH   1  17
BRANCH  10  20
ATOM     20  S   UNL     1      -7.682  -2.193  -4.287  0.00  0.00    +0.064 S 
ATOM     21  O   UNL     1      -8.464  -2.911  -3.342  0.00  0.00    -0.153 OA
ATOM     22  O   UNL     1      -8.088  -0.938  -4.816  0.00  0.00    -0.153 OA
BRANCH  20  23
ATOM     23  N   UNL     1      -7.460  -3.202  -5.581  0.00  0.00    -0.203 NA
ATOM     24  H   UNL     1      -6.572  -3.530  -5.794  0.00  0.00    +0.144 HD
ATOM     25  H   UNL     1      -8.218  -3.465  -6.127  0.00  0.00    +0.144 HD
ENDBRANCH  20  23
ENDBRANCH  10  20
TORSDOF 3
