REMARK  Name = ZINC42666931
REMARK  12 active torsions:
REMARK  status: ('A' for Active; 'I' for Inactive)
REMARK    1  A    between atoms: C_1  and  C_2
REMARK    2  A    between atoms: C_2  and  C_4
REMARK    3  A    between atoms: C_2  and  N_15
REMARK    4  A    between atoms: N_6  and  C_7
REMARK    5  A    between atoms: C_11  and  S_13
REMARK    6  A    between atoms: S_13  and  C_14
REMARK    7  A    between atoms: N_15  and  C_16
REMARK    8  A    between atoms: C_20  and  N_22
REMARK    9  A    between atoms: C_23  and  C_25
REMARK   10  A    between atoms: C_25  and  C_26
REMARK   11  A    between atoms: C_25  and  C_27
REMARK   12  A    between atoms: C_25  and  C_28
REMARK                            x       y       z     vdW  Elec       q    Type
REMARK                         _______ _______ _______ _____ _____    ______ ____
ROOT
ATOM      1  N   UNL     1       0.807  -0.230  -0.991  0.00  0.00    -0.333 N 
ATOM      2  H   UNL     1       1.768  -0.325  -0.908  0.00  0.00    +0.147 HD
ENDROOT
BRANCH   1   3
ATOM      3  C   UNL     1       0.197  -0.364  -2.240  0.00  0.00    +0.029 A 
ATOM      4  C   UNL     1      -1.181  -0.222  -2.360  0.00  0.00    +0.023 A 
ATOM      5  C   UNL     1      -1.785  -0.354  -3.595  0.00  0.00    +0.004 A 
ATOM      6  C   UNL     1      -1.023  -0.629  -4.715  0.00  0.00    +0.023 A 
ATOM      7  C   UNL     1       0.354  -0.772  -4.601  0.00  0.00    +0.035 A 
ATOM      8  C   UNL     1       0.965  -0.634  -3.363  0.00  0.00    +0.046 A 
BRANCH   7   9
ATOM      9  N   UNL     1       1.125  -1.050  -5.735  0.00  0.00    -0.285 N 
ATOM     10  C   UNL     1       0.789  -0.516  -6.926  0.00  0.00    +0.223 C 
ATOM     11  O   UNL     1      -0.227   0.137  -7.033  0.00  0.00    -0.275 OA
ATOM     12  H   UNL     1       1.901  -1.628  -5.665  0.00  0.00    +0.155 HD
BRANCH  10  13
ATOM     13  C   UNL     1       1.676  -0.731  -8.126  0.00  0.00    +0.039 C 
ATOM     14  C   UNL     1       1.071  -0.024  -9.340  0.00  0.00    +0.020 C 
ATOM     15  C   UNL     1       3.066  -0.156  -7.841  0.00  0.00    +0.020 C 
ATOM     16  C   UNL     1       1.793  -2.229  -8.412  0.00  0.00    +0.020 C 
ENDBRANCH  10  13
ENDBRANCH   7   9
ENDBRANCH   1   3
BRANCH   1  18
ATOM     17  C   UNL     1      -0.233   1.564   0.307  0.00  0.00    +0.038 C 
ATOM     18  C   UNL     1      -0.006   0.055   0.195  0.00  0.00    +0.154 C 
BRANCH  18  19
ATOM     19  C   UNL     1       0.711  -0.438   1.425  0.00  0.00    +0.237 C 
ATOM     20  O   UNL     1       1.794  -0.975   1.322  0.00  0.00    -0.273 OA
ATOM     21  N   UNL     1       0.149  -0.283   2.640  0.00  0.00    -0.284 N 
ATOM     22  H   UNL     1      -0.681   0.211   2.731  0.00  0.00    +0.155 HD
BRANCH  21  23
ATOM     23  C   UNL     1       0.762  -0.834   3.771  0.00  0.00    +0.034 A 
ATOM     24  C   UNL     1       0.668  -0.188   4.997  0.00  0.00    +0.023 A 
ATOM     25  C   UNL     1       1.274  -0.731   6.114  0.00  0.00    +0.003 A 
ATOM     26  C   UNL     1       1.975  -1.918   6.016  0.00  0.00    +0.015 A 
ATOM     27  C   UNL     1       2.073  -2.569   4.792  0.00  0.00    +0.009 A 
ATOM     28  C   UNL     1       1.460  -2.029   3.669  0.00  0.00    +0.038 A 
BRANCH  27  29
ATOM     29  S   UNL     1       2.968  -4.082   4.666  0.00  0.00    -0.129 S 
ATOM     30  C   UNL     1       3.564  -4.380   6.354  0.00  0.00    +0.090 C 
ENDBRANCH  27  29
ENDBRANCH  21  23
ENDBRANCH  18  19
ENDBRANCH   1  18
TORSDOF 7
