REMARK  Name = ZINC28890173
REMARK  9 active torsions:
REMARK  status: ('A' for Active; 'I' for Inactive)
REMARK    1  A    between atoms: C_1  and  C_2
REMARK    2  A    between atoms: C_2  and  O_3
REMARK    3  A    between atoms: O_3  and  C_4
REMARK    4  A    between atoms: C_4  and  C_6
REMARK    5  A    between atoms: C_7  and  C_20
REMARK    6  A    between atoms: C_12  and  C_14
REMARK    7  A    between atoms: C_20  and  S_21
REMARK    8  A    between atoms: S_21  and  C_22
REMARK    9  A    between atoms: C_26  and  C_28
REMARK                            x       y       z     vdW  Elec       q    Type
REMARK                         _______ _______ _______ _____ _____    ______ ____
ROOT
ATOM      1  C   UNL     1      -0.694   1.692   3.586  0.00  0.00    +0.079 C 
ATOM      2  C   UNL     1      -0.317   1.171   4.774  0.00  0.00    +0.034 C 
ATOM      3  N   UNL     1      -0.975   1.496   5.926  0.00  0.00    -0.272 N 
ATOM      4  C   UNL     1      -2.026   2.324   5.973  0.00  0.00    +0.304 C 
ATOM      5  O   UNL     1      -2.549   2.550   7.047  0.00  0.00    -0.252 OA
ATOM      6  N   UNL     1      -2.522   2.917   4.869  0.00  0.00    -0.288 N 
ATOM      7  C   UNL     1      -1.879   2.637   3.574  0.00  0.00    +0.144 C 
ATOM      8  H   UNL     1      -0.647   1.069   6.885  0.00  0.00    +0.156 HD
ATOM      9  H   UNL     1      -3.385   3.596   4.918  0.00  0.00    +0.151 HD
ENDROOT
BRANCH   7  10
ATOM     10  C   UNL     1      -2.923   2.062   2.652  0.00  0.00    -0.023 A 
ATOM     11  C   UNL     1      -3.751   1.047   3.094  0.00  0.00    +0.006 A 
ATOM     12  C   UNL     1      -4.711   0.522   2.249  0.00  0.00    +0.000 A 
ATOM     13  C   UNL     1      -4.838   1.007   0.961  0.00  0.00    +0.000 A 
ATOM     14  C   UNL     1      -4.007   2.018   0.518  0.00  0.00    +0.000 A 
ATOM     15  C   UNL     1      -3.049   2.546   1.364  0.00  0.00    +0.006 A 
ENDBRANCH   7  10
BRANCH   1  16
ATOM     16  C   UNL     1      -0.011   1.360   2.393  0.00  0.00    +0.339 C 
ATOM     17  O   UNL     1       0.802   2.134   1.922  0.00  0.00    -0.245 OA
BRANCH  16  18
ATOM     18  O   UNL     1      -0.260   0.186   1.776  0.00  0.00    -0.462 OA
BRANCH  18  20
ATOM     19  C   UNL     1       0.052  -1.449   0.024  0.00  0.00    +0.048 C 
ATOM     20  C   UNL     1       0.466  -0.083   0.575  0.00  0.00    +0.229 C 
ENDBRANCH  18  20
ENDBRANCH  16  18
ENDBRANCH   1  16
BRANCH   2  21
ATOM     21  C   UNL     1       0.852   0.222   4.830  0.00  0.00    +0.128 C 
BRANCH  21  22
ATOM     22  S   UNL     1       2.293   1.080   5.511  0.00  0.00    -0.081 S 
BRANCH  22  23
ATOM     23  C   UNL     1       3.476  -0.225   5.464  0.00  0.00    +0.185 A 
ATOM     24  N   UNL     1       4.764  -0.144   5.865  0.00  0.00    -0.253 N 
ATOM     25  H   UNL     1       5.157   0.802   6.266  0.00  0.00    +0.191 HD
ATOM     26  N   UNL     1       5.330  -1.411   5.649  0.00  0.00    -0.152 NA
ATOM     27  C   UNL     1       4.385  -2.170   5.142  0.00  0.00    +0.182 A 
ATOM     28  N   UNL     1       3.259  -1.450   5.036  0.00  0.00    -0.201 NA
BRANCH  27  29
ATOM     29  C   UNL     1       4.537  -3.595   4.757  0.00  0.00    +0.021 A 
ATOM     30  C   UNL     1       3.453  -4.297   4.234  0.00  0.00    +0.013 A 
ATOM     31  C   UNL     1       3.601  -5.621   3.873  0.00  0.00    +0.021 A 
ATOM     32  C   UNL     1       4.821  -6.254   4.039  0.00  0.00    +0.041 A 
ATOM     33  C   UNL     1       5.899  -5.562   4.563  0.00  0.00    +0.021 A 
ATOM     34  C   UNL     1       5.763  -4.237   4.922  0.00  0.00    +0.013 A 
ATOM     35 CL   UNL     1       4.998  -7.921   3.587  0.00  0.00    -0.084 Cl
ENDBRANCH  27  29
ENDBRANCH  22  23
ENDBRANCH  21  22
ENDBRANCH   2  21
TORSDOF 8
