REMARK  Name = ZINC16695009
REMARK  6 active torsions:
REMARK  status: ('A' for Active; 'I' for Inactive)
REMARK    1  A    between atoms: C_1  and  C_2
REMARK    2  A    between atoms: N_6  and  C_17
REMARK    3  A    between atoms: N_9  and  C_10
REMARK    4  A    between atoms: C_17  and  N_18
REMARK    5  A    between atoms: N_21  and  C_24
REMARK    6  A    between atoms: C_27  and  O_30
REMARK                            x       y       z     vdW  Elec       q    Type
REMARK                         _______ _______ _______ _____ _____    ______ ____
ROOT
ATOM      1  C   UNL     1       0.002  -0.004   0.002  0.00  0.00    +0.038 C 
ATOM      2  C   UNL     1      -0.019   1.526   0.010  0.00  0.00    +0.166 C 
ATOM      3  C   UNL     1       1.393   2.078  -0.000  0.00  0.00    +0.245 C 
ATOM      4  O   UNL     1       2.251   1.911   0.840  0.00  0.00    -0.273 OA
ATOM      5  N   UNL     1       1.495   2.794  -1.137  0.00  0.00    -0.210 N 
ATOM      6  C   UNL     1       0.357   2.771  -1.839  0.00  0.00    +0.317 C 
ATOM      7  O   UNL     1       0.206   3.343  -2.901  0.00  0.00    -0.252 OA
ATOM      8  N   UNL     1      -0.602   2.043  -1.239  0.00  0.00    -0.243 N 
ENDROOT
BRANCH   8   9
ATOM      9  C   UNL     1      -1.901   1.820  -1.711  0.00  0.00    +0.039 A 
ATOM     10  C   UNL     1      -2.782   1.036  -0.978  0.00  0.00    +0.025 A 
ATOM     11  C   UNL     1      -4.065   0.822  -1.442  0.00  0.00    +0.022 A 
ATOM     12  C   UNL     1      -4.469   1.379  -2.643  0.00  0.00    +0.041 A 
ATOM     13  C   UNL     1      -3.592   2.157  -3.378  0.00  0.00    +0.022 A 
ATOM     14  C   UNL     1      -2.310   2.378  -2.915  0.00  0.00    +0.025 A 
ATOM     15 CL   UNL     1      -6.080   1.102  -3.228  0.00  0.00    -0.084 Cl
ENDBRANCH   8   9
BRANCH   5  16
ATOM     16  C   UNL     1       2.704   3.509  -1.554  0.00  0.00    +0.205 C 
BRANCH  16  17
ATOM     17  N   UNL     1       3.545   2.618  -2.365  0.00  0.00    -0.283 NA
ATOM     18  C   UNL     1       4.340   1.724  -1.512  0.00  0.00    +0.105 C 
ATOM     19  C   UNL     1       5.140   0.761  -2.393  0.00  0.00    +0.120 C 
ATOM     20  N   UNL     1       6.006   1.532  -3.295  0.00  0.00    -0.327 N 
ATOM     21  C   UNL     1       5.211   2.426  -4.148  0.00  0.00    +0.120 C 
ATOM     22  C   UNL     1       4.412   3.389  -3.267  0.00  0.00    +0.105 C 
BRANCH  20  23
ATOM     23  C   UNL     1       6.807   0.683  -4.068  0.00  0.00    +0.030 A 
ATOM     24  C   UNL     1       6.768   0.762  -5.454  0.00  0.00    +0.027 A 
ATOM     25  C   UNL     1       7.562  -0.072  -6.215  0.00  0.00    +0.047 A 
ATOM     26  C   UNL     1       8.392  -0.996  -5.597  0.00  0.00    +0.117 A 
ATOM     27  C   UNL     1       8.428  -1.079  -4.213  0.00  0.00    +0.047 A 
ATOM     28  C   UNL     1       7.638  -0.242  -3.449  0.00  0.00    +0.027 A 
BRANCH  26  29
ATOM     29  O   UNL     1       9.170  -1.821  -6.348  0.00  0.00    -0.507 OA
ATOM     30  H   UNL     1       9.828  -2.554  -5.857  0.00  0.00    +0.292 HD
ENDBRANCH  26  29
ENDBRANCH  20  23
ENDBRANCH  16  17
ENDBRANCH   5  16
TORSDOF 5
