REMARK  Name = ZINC59212893
REMARK  4 active torsions:
REMARK  status: ('A' for Active; 'I' for Inactive)
REMARK    1  A    between atoms: C_10  and  C_12
REMARK    2  A    between atoms: C_12  and  S_13
REMARK    3  A    between atoms: S_13  and  C_14
REMARK    4  A    between atoms: C_17  and  C_19
REMARK                            x       y       z     vdW  Elec       q    Type
REMARK                         _______ _______ _______ _____ _____    ______ ____
ROOT
ATOM      1  C   UNL     1      -0.017   1.373   0.010  0.00  0.00    +0.001 A 
ATOM      2  C   UNL     1       1.171   2.090   0.002  0.00  0.00    +0.002 A 
ATOM      3  C   UNL     1       2.385   1.438  -0.013  0.00  0.00    +0.027 A 
ATOM      4  C   UNL     1       2.426   0.049  -0.021  0.00  0.00    +0.057 A 
ATOM      5  C   UNL     1       1.223  -0.680  -0.014  0.00  0.00    +0.004 A 
ATOM      6  C   UNL     1       0.002  -0.004   0.002  0.00  0.00    +0.010 A 
ATOM      7  C   UNL     1       1.607  -2.090  -0.027  0.00  0.00    -0.018 A 
ATOM      8  C   UNL     1       2.950  -2.144  -0.040  0.00  0.00    +0.031 A 
ATOM      9  N   UNL     1       3.462  -0.870  -0.037  0.00  0.00    -0.283 N 
ATOM     10  C   UNL     1       4.774  -0.560  -0.048  0.00  0.00    +0.242 C 
ATOM     11  O   UNL     1       5.604  -1.443  -0.062  0.00  0.00    -0.271 OA
ATOM     12  C   UNL     1       3.738  -3.434  -0.055  0.00  0.00    +0.054 C 
ATOM     13  C   UNL     1       2.810  -4.577   0.368  0.00  0.00    +0.006 C 
ATOM     14  C   UNL     1       1.519  -4.519  -0.455  0.00  0.00    +0.005 C 
ATOM     15  C   UNL     1       0.701  -3.294  -0.027  0.00  0.00    +0.037 C 
ENDROOT
BRANCH  10  16
ATOM     16  C   UNL     1       5.207   0.883  -0.043  0.00  0.00    +0.178 C 
BRANCH  16  17
ATOM     17  S   UNL     1       7.019   0.969  -0.060  0.00  0.00    -0.056 S 
BRANCH  17  18
ATOM     18  C   UNL     1       7.363   2.697  -0.052  0.00  0.00    +0.278 A 
ATOM     19  N   UNL     1       6.477   3.666  -0.031  0.00  0.00    -0.101 NA
ATOM     20  N   UNL     1       7.083   4.801  -0.032  0.00  0.00    -0.106 NA
ATOM     21  C   UNL     1       8.379   4.603  -0.053  0.00  0.00    +0.250 A 
ATOM     22  O   UNL     1       8.584   3.267  -0.060  0.00  0.00    -0.411 OA
BRANCH  21  23
ATOM     23  C   UNL     1       9.423   5.648  -0.061  0.00  0.00    +0.052 A 
ATOM     24  C   UNL     1      10.773   5.291  -0.091  0.00  0.00    +0.014 A 
ATOM     25  C   UNL     1      11.743   6.271  -0.098  0.00  0.00    +0.001 A 
ATOM     26  C   UNL     1      11.382   7.607  -0.076  0.00  0.00    +0.001 A 
ATOM     27  C   UNL     1      10.047   7.969  -0.047  0.00  0.00    +0.016 A 
ATOM     28  C   UNL     1       9.065   6.998  -0.046  0.00  0.00    +0.030 A 
ATOM     29 BR   UNL     1       7.241   7.494  -0.013  0.00  0.00    -0.050 Br
ENDBRANCH  21  23
ENDBRANCH  17  18
ENDBRANCH  16  17
ENDBRANCH  10  16
TORSDOF 4
