REMARK  Name = ZINC15335331
REMARK  11 active torsions:
REMARK  status: ('A' for Active; 'I' for Inactive)
REMARK    1  A    between atoms: C_1  and  C_2
REMARK    2  A    between atoms: C_2  and  C_3
REMARK    3  A    between atoms: C_6  and  C_9
REMARK    4  A    between atoms: C_9  and  C_11
REMARK    5  A    between atoms: C_9  and  N_14
REMARK    6  A    between atoms: C_11  and  C_12
REMARK    7  A    between atoms: C_11  and  C_13
REMARK    8  A    between atoms: N_14  and  S_15
REMARK    9  A    between atoms: S_15  and  C_18
REMARK   10  A    between atoms: C_21  and  S_24
REMARK   11  A    between atoms: S_24  and  N_27
REMARK                            x       y       z     vdW  Elec       q    Type
REMARK                         _______ _______ _______ _____ _____    ______ ____
ROOT
ATOM      1  S   UNL     1      -7.585  -0.420  -0.297  0.00  0.00    +0.059 S 
ATOM      2  O   UNL     1      -8.242   0.126  -1.433  0.00  0.00    -0.153 OA
ATOM      3  O   UNL     1      -8.274  -1.172   0.693  0.00  0.00    -0.153 OA
ENDROOT
BRANCH   1   4
ATOM      4  C   UNL     1      -6.817   0.928   0.537  0.00  0.00    +0.105 A 
ATOM      5  C   UNL     1      -6.526   0.831   1.885  0.00  0.00    +0.030 A 
ATOM      6  C   UNL     1      -5.924   1.889   2.540  0.00  0.00    +0.030 A 
ATOM      7  C   UNL     1      -5.612   3.044   1.847  0.00  0.00    +0.105 A 
ATOM      8  C   UNL     1      -5.902   3.140   0.498  0.00  0.00    +0.030 A 
ATOM      9  C   UNL     1      -6.501   2.081  -0.157  0.00  0.00    +0.030 A 
BRANCH   7  10
ATOM     10  S   UNL     1      -4.845   4.393   2.681  0.00  0.00    +0.056 S 
ATOM     11  O   UNL     1      -5.153   5.561   1.933  0.00  0.00    -0.153 OA
ATOM     12  O   UNL     1      -5.176   4.260   4.057  0.00  0.00    -0.153 OA
BRANCH  10  13
ATOM     13  N   UNL     1      -3.208   4.174   2.565  0.00  0.00    -0.204 NA
ATOM     14  H   UNL     1      -2.616   4.942   2.549  0.00  0.00    +0.144 HD
ATOM     15  H   UNL     1      -2.841   3.277   2.512  0.00  0.00    +0.144 HD
ENDBRANCH  10  13
ENDBRANCH   7  10
ENDBRANCH   1   4
BRANCH   1  16
ATOM     16  N   UNL     1      -6.375  -1.393  -0.873  0.00  0.00    -0.182 NA
ATOM     17  H   UNL     1      -6.251  -1.499  -1.829  0.00  0.00    +0.149 HD
BRANCH  16  18
ATOM     18  C   UNL     1      -5.492  -2.094   0.062  0.00  0.00    +0.109 C 
BRANCH  18  22
ATOM     19  C   UNL     1      -1.527  -0.545  -0.289  0.00  0.00    -0.048 A 
ATOM     20  C   UNL     1      -2.040  -0.854   0.956  0.00  0.00    +0.004 A 
ATOM     21  C   UNL     1      -3.323  -1.355   1.070  0.00  0.00    +0.005 A 
ATOM     22  C   UNL     1      -4.093  -1.547  -0.062  0.00  0.00    -0.029 A 
ATOM     23  C   UNL     1      -3.580  -1.237  -1.308  0.00  0.00    +0.005 A 
ATOM     24  C   UNL     1      -2.299  -0.731  -1.421  0.00  0.00    +0.004 A 
BRANCH  19  26
ATOM     25  C   UNL     1      -0.167   1.529  -0.327  0.00  0.00    +0.009 C 
ATOM     26  C   UNL     1      -0.128   0.002  -0.413  0.00  0.00    +0.032 C 
ENDBRANCH  19  26
ENDBRANCH  18  22
BRANCH  18  27
ATOM     27  C   UNL     1      -5.485  -3.589  -0.266  0.00  0.00    +0.006 C 
ATOM     28  C   UNL     1      -4.657  -4.337   0.780  0.00  0.00    +0.009 C 
ATOM     29  C   UNL     1      -6.920  -4.120  -0.255  0.00  0.00    +0.009 C 
ENDBRANCH  18  27
ENDBRANCH  16  18
ENDBRANCH   1  16
TORSDOF 8
