REMARK  Name = ZINC22373399
REMARK  10 active torsions:
REMARK  status: ('A' for Active; 'I' for Inactive)
REMARK    1  A    between atoms: C_1  and  C_2
REMARK    2  A    between atoms: C_2  and  C_32
REMARK    3  A    between atoms: C_4  and  N_15
REMARK    4  A    between atoms: C_8  and  O_13
REMARK    5  A    between atoms: O_13  and  C_14
REMARK    6  A    between atoms: C_16  and  C_18
REMARK    7  A    between atoms: C_18  and  N_19
REMARK    8  A    between atoms: N_19  and  C_20
REMARK    9  A    between atoms: N_19  and  S_28
REMARK   10  A    between atoms: S_28  and  C_31
REMARK                            x       y       z     vdW  Elec       q    Type
REMARK                         _______ _______ _______ _____ _____    ______ ____
ROOT
ATOM      1  N   UNL     1      -1.577  -1.782  -2.820  0.00  0.00    -0.307 N 
ATOM      2  C   UNL     1      -0.717  -1.094  -2.044  0.00  0.00    +0.233 C 
ATOM      3  O   UNL     1       0.360  -0.752  -2.486  0.00  0.00    -0.274 OA
ATOM      4  H   UNL     1      -2.553  -2.092  -2.419  0.00  0.00    +0.149 HD
ENDROOT
BRANCH   1   8
ATOM      5  C   UNL     1      -0.332  -3.554  -6.511  0.00  0.00    +0.055 C 
ATOM      6  C   UNL     1      -1.821  -3.514  -6.161  0.00  0.00    +0.107 C 
ATOM      7  C   UNL     1      -1.991  -3.358  -4.644  0.00  0.00    +0.074 C 
ATOM      8  C   UNL     1      -1.211  -2.118  -4.199  0.00  0.00    +0.111 C 
ATOM      9  C   UNL     1      -1.542  -0.957  -5.102  0.00  0.00    +0.018 A 
ATOM     10  C   UNL     1      -1.249   0.326  -4.671  0.00  0.00    +0.054 A 
ATOM     11  C   UNL     1      -1.536   1.416  -5.477  0.00  0.00    +0.121 A 
ATOM     12  C   UNL     1      -2.119   1.221  -6.721  0.00  0.00    +0.049 A 
ATOM     13  C   UNL     1      -2.412  -0.057  -7.150  0.00  0.00    +0.049 A 
ATOM     14  C   UNL     1      -2.126  -1.152  -6.341  0.00  0.00    +0.126 A 
ATOM     15  O   UNL     1      -2.435  -2.394  -6.800  0.00  0.00    -0.486 OA
ATOM     16  C   UNL     1      -2.495  -4.806  -6.625  0.00  0.00    +0.055 C 
BRANCH  11  17
ATOM     17  O   UNL     1      -1.247   2.674  -5.050  0.00  0.00    -0.495 OA
ATOM     18  C   UNL     1      -1.571   3.749  -5.933  0.00  0.00    +0.277 C 
ENDBRANCH  11  17
ENDBRANCH   1   8
BRANCH   2  19
ATOM     19  C   UNL     1      -1.093  -0.748  -0.626  0.00  0.00    +0.226 C 
BRANCH  19  20
ATOM     20  N   UNL     1       0.002  -0.004   0.002  0.00  0.00    -0.199 N 
BRANCH  20  21
ATOM     21  C   UNL     1       1.066  -0.692   0.594  0.00  0.00    +0.054 A 
ATOM     22  C   UNL     1       1.807  -0.091   1.603  0.00  0.00    +0.028 A 
ATOM     23  C   UNL     1       2.857  -0.772   2.187  0.00  0.00    +0.043 A 
ATOM     24  C   UNL     1       3.173  -2.053   1.767  0.00  0.00    +0.159 A 
ATOM     25  C   UNL     1       2.435  -2.655   0.760  0.00  0.00    +0.160 A 
ATOM     26  C   UNL     1       1.379  -1.979   0.176  0.00  0.00    +0.066 A 
ATOM     27  F   UNL     1       2.744  -3.905   0.352  0.00  0.00    -0.202 F 
ATOM     28  F   UNL     1       4.201  -2.716   2.340  0.00  0.00    -0.202 F 
ENDBRANCH  20  21
BRANCH  20  29
ATOM     29  S   UNL     1      -0.020   1.652   0.011  0.00  0.00    +0.043 S 
ATOM     30  O   UNL     1       1.349   2.033   0.000  0.00  0.00    -0.155 OA
ATOM     31  O   UNL     1      -0.880   2.009  -1.062  0.00  0.00    -0.155 OA
ATOM     32  C   UNL     1      -0.781   2.099   1.596  0.00  0.00    +0.218 C 
ENDBRANCH  20  29
ENDBRANCH  19  20
ENDBRANCH   2  19
TORSDOF 6
