REMARK  Name = ZINC35829903
REMARK  9 active torsions:
REMARK  status: ('A' for Active; 'I' for Inactive)
REMARK    1  A    between atoms: C_1  and  C_2
REMARK    2  A    between atoms: C_2  and  C_3
REMARK    3  A    between atoms: C_3  and  N_4
REMARK    4  A    between atoms: N_4  and  C_5
REMARK    5  A    between atoms: C_5  and  C_6
REMARK    6  A    between atoms: C_16  and  C_18
REMARK    7  A    between atoms: N_27  and  C_28
REMARK    8  A    between atoms: C_31  and  C_35
REMARK    9  A    between atoms: C_33  and  C_34
REMARK                            x       y       z     vdW  Elec       q    Type
REMARK                         _______ _______ _______ _____ _____    ______ ____
ROOT
ATOM      1  C   UNL     1      -2.983  -3.592   1.338  0.00  0.00    +0.234 C 
ATOM      2  O   UNL     1      -3.999  -3.194   0.809  0.00  0.00    -0.274 OA
ATOM      3  N   UNL     1      -3.019  -4.058   2.602  0.00  0.00    -0.286 N 
ATOM      4  C   UNL     1      -1.818  -4.621   3.236  0.00  0.00    +0.130 C 
ATOM      5  C   UNL     1      -1.416  -3.744   4.427  0.00  0.00    +0.140 C 
ATOM      6  N   UNL     1      -2.607  -3.442   5.229  0.00  0.00    -0.347 N 
ATOM      7  C   UNL     1      -2.636  -3.010   6.519  0.00  0.00    +0.086 A 
ATOM      8  C   UNL     1      -3.926  -2.842   6.880  0.00  0.00    +0.019 A 
ATOM      9  C   UNL     1      -4.724  -3.187   5.769  0.00  0.00    +0.025 A 
ATOM     10  C   UNL     1      -3.895  -3.552   4.779  0.00  0.00    +0.044 A 
ATOM     11  C   UNL     1      -4.264  -4.013   3.393  0.00  0.00    +0.153 C 
ENDROOT
BRANCH  11  12
ATOM     12  C   UNL     1      -5.234  -3.043   2.770  0.00  0.00    -0.019 A 
ATOM     13  C   UNL     1      -4.823  -1.761   2.455  0.00  0.00    +0.006 A 
ATOM     14  C   UNL     1      -5.712  -0.870   1.883  0.00  0.00    +0.003 A 
ATOM     15  C   UNL     1      -7.013  -1.259   1.627  0.00  0.00    +0.038 A 
ATOM     16  C   UNL     1      -7.425  -2.543   1.941  0.00  0.00    +0.124 A 
ATOM     17  C   UNL     1      -6.532  -3.437   2.508  0.00  0.00    +0.044 A 
ATOM     18  F   UNL     1      -8.697  -2.925   1.691  0.00  0.00    -0.205 F 
ENDBRANCH  11  12
BRANCH   1  19
ATOM     19  C   UNL     1      -1.680  -3.565   0.582  0.00  0.00    +0.205 C 
BRANCH  19  20
ATOM     20  N   UNL     1      -1.904  -3.018  -0.758  0.00  0.00    -0.277 N 
ATOM     21  C   UNL     1      -2.218  -3.842  -1.778  0.00  0.00    +0.307 C 
ATOM     22  O   UNL     1      -2.316  -5.038  -1.585  0.00  0.00    -0.252 OA
ATOM     23  N   UNL     1      -2.425  -3.339  -3.011  0.00  0.00    -0.269 N 
ATOM     24  H   UNL     1      -2.273  -2.397  -3.182  0.00  0.00    +0.156 HD
BRANCH  23  25
ATOM     25  C   UNL     1      -2.858  -4.177  -4.045  0.00  0.00    +0.038 A 
ATOM     26  C   UNL     1      -2.454  -5.506  -4.080  0.00  0.00    +0.024 A 
ATOM     27  C   UNL     1      -2.883  -6.330  -5.101  0.00  0.00    +0.005 A 
ATOM     28  C   UNL     1      -3.715  -5.835  -6.088  0.00  0.00    -0.050 A 
ATOM     29  C   UNL     1      -4.119  -4.513  -6.056  0.00  0.00    +0.008 A 
ATOM     30  C   UNL     1      -3.698  -3.684  -5.034  0.00  0.00    -0.029 A 
ATOM     31  C   UNL     1      -4.144  -2.245  -4.997  0.00  0.00    +0.045 C 
ATOM     32  C   UNL     1      -4.181  -6.737  -7.201  0.00  0.00    +0.044 C 
ENDBRANCH  23  25
BRANCH  20  33
ATOM     33  C   UNL     1      -1.786  -1.577  -0.991  0.00  0.00    +0.109 C 
BRANCH  33  35
ATOM     34  C   UNL     1      -0.221   0.268  -1.616  0.00  0.00    +0.005 C 
ATOM     35  C   UNL     1      -0.344  -1.238  -1.373  0.00  0.00    +0.016 C 
ENDBRANCH  33  35
ENDBRANCH  20  33
ENDBRANCH  19  20
ENDBRANCH   1  19
TORSDOF 6
