REMARK  Name = ZINC19316631
REMARK  13 active torsions:
REMARK  status: ('A' for Active; 'I' for Inactive)
REMARK    1  A    between atoms: C_1  and  C_2
REMARK    2  A    between atoms: C_2  and  C_3
REMARK    3  A    between atoms: C_2  and  N_4
REMARK    4  A    between atoms: N_4  and  C_5
REMARK    5  A    between atoms: N_4  and  C_34
REMARK    6  A    between atoms: C_5  and  C_6
REMARK    7  A    between atoms: C_6  and  N_7
REMARK    8  A    between atoms: C_17  and  S_18
REMARK    9  A    between atoms: S_18  and  C_19
REMARK   10  A    between atoms: C_19  and  C_20
REMARK   11  A    between atoms: N_22  and  C_23
REMARK   12  A    between atoms: C_34  and  C_35
REMARK   13  A    between atoms: C_34  and  C_36
REMARK                            x       y       z     vdW  Elec       q    Type
REMARK                         _______ _______ _______ _____ _____    ______ ____
ROOT
ATOM      1  N   UNL     1       2.632  -2.760  -0.768  0.00  0.00    -0.289 N 
ATOM      2  C   UNL     1       1.499  -2.051  -0.554  0.00  0.00    +0.262 A 
ATOM      3  O   UNL     1       0.504  -2.575  -0.089  0.00  0.00    -0.267 OA
ATOM      4  C   UNL     1       1.516  -0.624  -0.905  0.00  0.00    +0.065 A 
ATOM      5  C   UNL     1       0.400   0.192  -0.724  0.00  0.00    +0.015 A 
ATOM      6  C   UNL     1       0.470   1.514  -1.067  0.00  0.00    +0.001 A 
ATOM      7  C   UNL     1       1.638   2.050  -1.594  0.00  0.00    +0.002 A 
ATOM      8  C   UNL     1       2.745   1.273  -1.783  0.00  0.00    +0.028 A 
ATOM      9  C   UNL     1       2.706  -0.082  -1.442  0.00  0.00    +0.079 A 
ATOM     10  N   UNL     1       3.776  -0.885  -1.611  0.00  0.00    -0.223 NA
ATOM     11  C   UNL     1       3.739  -2.155  -1.291  0.00  0.00    +0.173 A 
ENDROOT
BRANCH   1  12
ATOM     12  C   UNL     1       2.670  -4.186  -0.436  0.00  0.00    +0.109 C 
BRANCH  12  13
ATOM     13  C   UNL     1       3.137  -4.360   1.011  0.00  0.00    -0.056 C 
BRANCH  13  14
ATOM     14  N   UNL     1       3.175  -5.791   1.344  0.00  0.00    +0.384 N 
ATOM     15  H   UNL     1       3.765  -6.302   0.569  0.00  0.00    -0.081 HD
BRANCH  14  17
ATOM     16  C   UNL     1       5.356  -6.027   2.434  0.00  0.00    -0.014 C 
ATOM     17  C   UNL     1       3.839  -6.012   2.636  0.00  0.00    -0.074 C 
ATOM     18  C   UNL     1       3.464  -4.887   3.602  0.00  0.00    -0.014 C 
ENDBRANCH  14  17
BRANCH  14  19
ATOM     19  C   UNL     1       1.825  -6.369   1.340  0.00  0.00    -0.074 C 
ATOM     20  C   UNL     1       1.922  -7.892   1.447  0.00  0.00    -0.014 C 
ATOM     21  C   UNL     1       1.033  -5.824   2.530  0.00  0.00    -0.014 C 
ENDBRANCH  14  19
ENDBRANCH  13  14
ENDBRANCH  12  13
ENDBRANCH   1  12
BRANCH  11  22
ATOM     22  S   UNL     1       5.185  -3.128  -1.548  0.00  0.00    -0.078 S 
BRANCH  22  23
ATOM     23  C   UNL     1       6.293  -1.870  -2.230  0.00  0.00    +0.173 C 
BRANCH  23  24
ATOM     24  C   UNL     1       7.632  -2.492  -2.535  0.00  0.00    +0.224 C 
ATOM     25  O   UNL     1       7.818  -3.670  -2.313  0.00  0.00    -0.275 OA
ATOM     26  N   UNL     1       8.622  -1.740  -3.054  0.00  0.00    -0.308 N 
ATOM     27  H   UNL     1       8.453  -0.671  -3.256  0.00  0.00    +0.149 HD
BRANCH  26  28
ATOM     28  C   UNL     1       9.923  -2.344  -3.351  0.00  0.00    +0.110 C 
ATOM     29  C   UNL     1      10.620  -1.539  -4.450  0.00  0.00    +0.068 C 
ATOM     30  C   UNL     1      12.080  -2.002  -4.535  0.00  0.00    +0.231 C 
ATOM     31  O   UNL     1      12.731  -1.667  -3.308  0.00  0.00    -0.492 OA
ATOM     32  C   UNL     1      12.116  -2.015  -2.148  0.00  0.00    +0.125 A 
ATOM     33  C   UNL     1      10.772  -2.344  -2.105  0.00  0.00    +0.014 A 
ATOM     34  C   UNL     1      10.184  -2.683  -0.898  0.00  0.00    +0.009 A 
ATOM     35  C   UNL     1      10.933  -2.696   0.263  0.00  0.00    +0.001 A 
ATOM     36  C   UNL     1      12.276  -2.371   0.223  0.00  0.00    +0.004 A 
ATOM     37  C   UNL     1      12.867  -2.031  -0.978  0.00  0.00    +0.046 A 
ENDBRANCH  26  28
ENDBRANCH  23  24
ENDBRANCH  22  23
ENDBRANCH  11  22
TORSDOF 9
