REMARK  Name = ZINC04476754
REMARK  5 active torsions:
REMARK  status: ('A' for Active; 'I' for Inactive)
REMARK    1  A    between atoms: C_1  and  C_2
REMARK    2  A    between atoms: C_2  and  C_18
REMARK    3  A    between atoms: N_5  and  C_9
REMARK    4  A    between atoms: C_9  and  C_10
REMARK    5  A    between atoms: C_10  and  C_12
REMARK                            x       y       z     vdW  Elec       q    Type
REMARK                         _______ _______ _______ _____ _____    ______ ____
ROOT
ATOM      1  C   UNL     1      -4.471   6.703  -1.052  0.00  0.00    +0.047 C 
ATOM      2  C   UNL     1      -4.341   5.252  -0.582  0.00  0.00    +0.135 C 
ATOM      3  C   UNL     1      -3.039   4.651  -1.073  0.00  0.00    +0.251 C 
ATOM      4  O   UNL     1      -2.691   4.498  -2.224  0.00  0.00    -0.272 OA
ATOM      5  N   UNL     1      -2.350   4.321   0.037  0.00  0.00    -0.216 N 
ATOM      6  C   UNL     1      -3.025   4.633   1.149  0.00  0.00    +0.310 C 
ATOM      7  O   UNL     1      -2.606   4.433   2.272  0.00  0.00    -0.252 OA
ATOM      8  N   UNL     1      -4.220   5.191   0.885  0.00  0.00    -0.281 N 
ATOM      9  H   UNL     1      -4.874   5.494   1.533  0.00  0.00    +0.152 HD
ENDROOT
BRANCH   2  10
ATOM     10  C   UNL     1      -5.517   4.435  -1.052  0.00  0.00    -0.014 A 
ATOM     11  C   UNL     1      -5.480   3.817  -2.288  0.00  0.00    +0.006 A 
ATOM     12  C   UNL     1      -6.556   3.062  -2.716  0.00  0.00    +0.001 A 
ATOM     13  C   UNL     1      -7.674   2.935  -1.914  0.00  0.00    +0.015 A 
ATOM     14  C   UNL     1      -7.714   3.558  -0.680  0.00  0.00    +0.018 A 
ATOM     15  C   UNL     1      -6.635   4.308  -0.249  0.00  0.00    +0.021 A 
ATOM     16 BR   UNL     1      -9.244   3.384   0.418  0.00  0.00    -0.050 Br
ENDBRANCH   2  10
BRANCH   5  17
ATOM     17  C   UNL     1      -1.022   3.701   0.027  0.00  0.00    +0.199 C 
BRANCH  17  18
ATOM     18  C   UNL     1      -1.167   2.201   0.020  0.00  0.00    +0.197 C 
ATOM     19  O   UNL     1      -2.272   1.698   0.022  0.00  0.00    -0.289 OA
BRANCH  18  20
ATOM     20  C   UNL     1      -0.017   1.380   0.010  0.00  0.00    +0.084 A 
ATOM     21  C   UNL     1       0.002  -0.004   0.002  0.00  0.00    +0.030 A 
ATOM     22  C   UNL     1       1.343  -0.393  -0.013  0.00  0.00    +0.020 A 
ATOM     23  C   UNL     1       2.103   0.731  -0.014  0.00  0.00    +0.083 A 
ATOM     24  N   UNL     1       1.293   1.810  -0.001  0.00  0.00    -0.358 N 
ATOM     25  H   UNL     1       1.585   2.735   0.001  0.00  0.00    +0.165 HD
ENDBRANCH  18  20
ENDBRANCH  17  18
ENDBRANCH   5  17
TORSDOF 4
