REMARK  Name = ZINC13500066
REMARK  11 active torsions:
REMARK  status: ('A' for Active; 'I' for Inactive)
REMARK    1  A    between atoms: C_1  and  C_2
REMARK    2  A    between atoms: C_2  and  C_3
REMARK    3  A    between atoms: C_3  and  C_4
REMARK    4  A    between atoms: C_4  and  C_6
REMARK    5  A    between atoms: C_4  and  N_75
REMARK    6  A    between atoms: N_10  and  C_11
REMARK    7  A    between atoms: C_17  and  C_18
REMARK    8  A    between atoms: C_17  and  N_75
REMARK    9  A    between atoms: C_22  and  C_31
REMARK   10  A    between atoms: C_24  and  C_30
REMARK   11  A    between atoms: C_32  and  N_75
REMARK                            x       y       z     vdW  Elec       q    Type
REMARK                         _______ _______ _______ _____ _____    ______ ____
ROOT
ATOM      1  N   UNL     1      -1.489   7.867  -0.940  0.00  0.00    +0.391 N 
ATOM      2  H   UNL     1      -0.791   7.336  -1.473  0.00  0.00    -0.080 HD
ENDROOT
BRANCH   1   3
ATOM      3  C   UNL     1      -2.828   7.297  -1.200  0.00  0.00    -0.067 C 
ATOM      4  C   UNL     1      -3.933   8.165  -0.564  0.00  0.00    -0.015 C 
ATOM      5  C   UNL     1      -4.980   7.139  -0.063  0.00  0.00    -0.002 C 
ATOM      6  C   UNL     1      -4.099   5.976   0.457  0.00  0.00    -0.002 C 
ATOM      7  C   UNL     1      -2.933   5.906  -0.551  0.00  0.00    -0.015 C 
ENDBRANCH   1   3
BRANCH   1   8
ATOM      8  C   UNL     1      -1.449   9.280  -1.372  0.00  0.00    +0.003 C 
BRANCH   8   9
ATOM      9  C   UNL     1      -2.284   9.446  -2.615  0.00  0.00    +0.138 A 
ATOM     10  N   UNL     1      -2.326   8.634  -3.644  0.00  0.00    -0.115 NA
ATOM     11  N   UNL     1      -3.157   9.119  -4.500  0.00  0.00    -0.023 NA
ATOM     12  N   UNL     1      -3.640  10.224  -4.048  0.00  0.00    -0.044 NA
ATOM     13  N   UNL     1      -3.127  10.459  -2.889  0.00  0.00    -0.228 N 
BRANCH  13  14
ATOM     14  C   UNL     1      -3.408  11.613  -2.030  0.00  0.00    +0.111 C 
ATOM     15  C   UNL     1      -4.898  11.640  -1.685  0.00  0.00    +0.027 C 
ATOM     16  C   UNL     1      -5.192  12.845  -0.788  0.00  0.00    +0.002 C 
ATOM     17  C   UNL     1      -4.815  14.132  -1.525  0.00  0.00    +0.000 C 
ATOM     18  C   UNL     1      -3.325  14.105  -1.870  0.00  0.00    +0.002 C 
ATOM     19  C   UNL     1      -3.032  12.900  -2.767  0.00  0.00    +0.027 C 
ENDBRANCH  13  14
ENDBRANCH   8   9
BRANCH   8  20
ATOM     20  C   UNL     1       0.002   9.657  -1.677  0.00  0.00    -0.008 C 
BRANCH  20  22
ATOM     21  C   UNL     1       2.348   9.584  -0.822  0.00  0.00    +0.004 C 
ATOM     22  C   UNL     1       0.912   9.121  -0.570  0.00  0.00    -0.005 C 
ENDBRANCH  20  22
ENDBRANCH   8  20
ENDBRANCH   1   8
BRANCH   1  23
ATOM     23  C   UNL     1      -1.169   7.770   0.500  0.00  0.00    -0.036 C 
BRANCH  23  24
ATOM     24  C   UNL     1      -2.046   8.699   1.300  0.00  0.00    +0.001 A 
ATOM     25  C   UNL     1      -3.058   8.194   2.049  0.00  0.00    +0.017 A 
ATOM     26  C   UNL     1      -3.892   9.123   2.814  0.00  0.00    -0.001 A 
ATOM     27  C   UNL     1      -4.950   8.662   3.604  0.00  0.00    +0.013 A 
ATOM     28  C   UNL     1      -5.710   9.555   4.306  0.00  0.00    -0.050 A 
ATOM     29  C   UNL     1      -5.441  10.916   4.242  0.00  0.00    +0.008 A 
ATOM     30  C   UNL     1      -4.406  11.392   3.466  0.00  0.00    -0.026 A 
ATOM     31  C   UNL     1      -3.616  10.502   2.747  0.00  0.00    +0.052 A 
ATOM     32  N   UNL     1      -2.572  10.950   1.966  0.00  0.00    -0.322 N 
ATOM     33  H   UNL     1      -2.383  11.901   1.921  0.00  0.00    +0.169 HD
ATOM     34  C   UNL     1      -1.812  10.090   1.267  0.00  0.00    +0.251 A 
ATOM     35  O   UNL     1      -0.896  10.522   0.588  0.00  0.00    -0.268 OA
ATOM     36  C   UNL     1      -4.129  12.872   3.401  0.00  0.00    +0.046 C 
ATOM     37  C   UNL     1      -6.850   9.059   5.157  0.00  0.00    +0.044 C 
ENDBRANCH  23  24
ENDBRANCH   1  23
TORSDOF 8
