REMARK  Name = ZINC40798094
REMARK  5 active torsions:
REMARK  status: ('A' for Active; 'I' for Inactive)
REMARK    1  A    between atoms: C_1  and  C_2
REMARK    2  A    between atoms: C_10  and  N_24
REMARK    3  A    between atoms: C_11  and  O_15
REMARK    4  A    between atoms: O_15  and  C_16
REMARK    5  A    between atoms: C_20  and  C_22
REMARK                            x       y       z     vdW  Elec       q    Type
REMARK                         _______ _______ _______ _____ _____    ______ ____
ROOT
ATOM      1  C   UNL     1      -0.684   1.496  -0.192  0.00  0.00    +0.045 C 
ATOM      2  C   UNL     1      -0.542   0.000  -0.075  0.00  0.00    -0.032 A 
ATOM      3  C   UNL     1      -0.425  -0.598   1.173  0.00  0.00    +0.008 A 
ATOM      4  C   UNL     1      -0.297  -1.973   1.236  0.00  0.00    +0.044 A 
ATOM      5  C   UNL     1      -0.288  -2.707   0.054  0.00  0.00    +0.124 A 
ATOM      6  N   UNL     1      -0.402  -2.100  -1.117  0.00  0.00    -0.240 NA
ATOM      7  C   UNL     1      -0.532  -0.789  -1.207  0.00  0.00    +0.116 A 
ATOM      8  N   UNL     1      -0.159  -4.091   0.103  0.00  0.00    -0.283 N 
ATOM      9  C   UNL     1      -0.266  -4.841  -1.063  0.00  0.00    +0.152 A 
ATOM     10  C   UNL     1      -0.238  -6.238  -1.014  0.00  0.00    +0.128 A 
ATOM     11  C   UNL     1      -0.349  -6.941  -2.213  0.00  0.00    +0.246 A 
ATOM     12  N   UNL     1      -0.476  -6.262  -3.349  0.00  0.00    -0.199 NA
ATOM     13  C   UNL     1      -0.497  -4.944  -3.353  0.00  0.00    +0.227 A 
ATOM     14  N   UNL     1      -0.401  -4.241  -2.242  0.00  0.00    -0.218 NA
ATOM     15  H   UNL     1       0.006  -4.534   0.951  0.00  0.00    +0.155 HD
ENDROOT
BRANCH  10  16
ATOM     16  N   UNL     1      -0.102  -6.913   0.208  0.00  0.00    -0.351 N 
ATOM     17  H   UNL     1      -0.026  -6.411   1.034  0.00  0.00    +0.143 HD
ATOM     18  H   UNL     1      -0.085  -7.883   0.227  0.00  0.00    +0.143 HD
ENDBRANCH  10  16
BRANCH  11  19
ATOM     19  O   UNL     1      -0.327  -8.297  -2.220  0.00  0.00    -0.436 OA
BRANCH  19  20
ATOM     20  C   UNL     1      -0.317  -8.929  -3.424  0.00  0.00    +0.131 A 
ATOM     21  C   UNL     1       0.816  -8.883  -4.223  0.00  0.00    +0.048 A 
ATOM     22  C   UNL     1       0.825  -9.526  -5.445  0.00  0.00    +0.024 A 
ATOM     23  C   UNL     1      -0.296 -10.215  -5.873  0.00  0.00    +0.044 A 
ATOM     24  C   UNL     1      -1.427 -10.262  -5.078  0.00  0.00    -0.029 A 
ATOM     25  C   UNL     1      -1.438  -9.625  -3.852  0.00  0.00    +0.051 A 
ATOM     26  C   UNL     1      -2.647 -11.013  -5.547  0.00  0.00    +0.045 C 
ATOM     27 CL   UNL     1      -0.283 -11.022  -7.410  0.00  0.00    -0.083 Cl
ENDBRANCH  19  20
ENDBRANCH  11  19
TORSDOF 3
