REMARK  Name = ZINC35765576
REMARK  7 active torsions:
REMARK  status: ('A' for Active; 'I' for Inactive)
REMARK    1  A    between atoms: C_1  and  C_2
REMARK    2  A    between atoms: C_2  and  N_3
REMARK    3  A    between atoms: N_3  and  C_4
REMARK    4  A    between atoms: N_3  and  C_9
REMARK    5  A    between atoms: C_9  and  C_11
REMARK    6  A    between atoms: C_9  and  C_13
REMARK    7  A    between atoms: C_11  and  N_12
REMARK                            x       y       z     vdW  Elec       q    Type
REMARK                         _______ _______ _______ _____ _____    ______ ____
ROOT
ATOM      1  C   UNL     1       1.718  -0.086  -1.064  0.00  0.00    -0.055 C 
ENDROOT
BRANCH   1   2
ATOM      2  C   UNL     1       2.394   1.192  -0.637  0.00  0.00    -0.058 A 
ATOM      3  C   UNL     1       3.075   1.243   0.565  0.00  0.00    +0.051 A 
ATOM      4  C   UNL     1       3.698   2.416   0.960  0.00  0.00    +0.168 A 
ATOM      5  C   UNL     1       3.635   3.542   0.143  0.00  0.00    +0.180 A 
ATOM      6  C   UNL     1       2.950   3.484  -1.060  0.00  0.00    +0.063 A 
ATOM      7  C   UNL     1       2.336   2.307  -1.451  0.00  0.00    +0.021 A 
ATOM      8 BR   UNL     1       2.862   5.011  -2.173  0.00  0.00    -0.046 Br
ATOM      9  O   UNL     1       4.319   4.558   0.747  0.00  0.00    -0.451 OA
ATOM     10  C   UNL     1       4.453   4.164   2.126  0.00  0.00    +0.466 C 
ATOM     11  O   UNL     1       4.421   2.725   2.075  0.00  0.00    -0.453 OA
ENDBRANCH   1   2
BRANCH   1  12
ATOM     12  N   UNL     1       0.278   0.005  -0.784  0.00  0.00    +0.385 N 
ATOM     13  H   UNL     1      -0.197  -0.778  -1.208  0.00  0.00    -0.081 HD
BRANCH  12  14
ATOM     14  C   UNL     1       0.059  -0.018   0.668  0.00  0.00    -0.068 C 
ATOM     15  C   UNL     1       0.615  -1.326   1.266  0.00  0.00    -0.015 C 
ATOM     16  C   UNL     1      -0.398  -1.697   2.377  0.00  0.00    -0.002 C 
ATOM     17  C   UNL     1      -1.756  -1.299   1.748  0.00  0.00    -0.002 C 
ATOM     18  C   UNL     1      -1.448   0.000   0.975  0.00  0.00    -0.015 C 
ENDBRANCH  12  14
BRANCH  12  20
ATOM     19  C   UNL     1      -1.050   0.956  -2.609  0.00  0.00    -0.017 C 
ATOM     20  C   UNL     1      -0.251   1.258  -1.340  0.00  0.00    -0.081 C 
ENDBRANCH  12  20
ENDBRANCH   1  12
BRANCH   1  21
ATOM     21  C   UNL     1       1.933  -0.301  -2.563  0.00  0.00    -0.098 C 
BRANCH  21  22
ATOM     22  N   UNL     1       1.726  -1.718  -2.890  0.00  0.00    +0.377 N 
ATOM     23  H   UNL     1       1.749  -1.839  -3.891  0.00  0.00    -0.090 HD
ATOM     24  H   UNL     1       2.457  -2.271  -2.467  0.00  0.00    -0.090 HD
ATOM     25  H   UNL     1       0.830  -2.017  -2.535  0.00  0.00    -0.090 HD
ENDBRANCH  21  22
ENDBRANCH   1  21
TORSDOF 6
