REMARK  Name = ZINC01990665
REMARK  8 active torsions:
REMARK  status: ('A' for Active; 'I' for Inactive)
REMARK    1  A    between atoms: C_1  and  C_2
REMARK    2  A    between atoms: C_2  and  C_3
REMARK    3  A    between atoms: C_3  and  C_4
REMARK    4  A    between atoms: C_4  and  O_5
REMARK    5  A    between atoms: O_5  and  C_6
REMARK    6  A    between atoms: C_11  and  C_12
REMARK    7  A    between atoms: C_13  and  C_14
REMARK    8  A    between atoms: N_16  and  C_17
REMARK                            x       y       z     vdW  Elec       q    Type
REMARK                         _______ _______ _______ _____ _____    ______ ____
ROOT
ATOM      1  C   UNL     1      -1.970   2.423   3.542  0.00  0.00    +0.016 C 
ATOM      2  C   UNL     1      -2.541   2.830   4.696  0.00  0.00    +0.068 C 
ENDROOT
BRANCH   1   8
ATOM      3  C   UNL     1      -0.173   1.151   2.376  0.00  0.00    +0.128 A 
ATOM      4  C   UNL     1       0.963   0.359   2.419  0.00  0.00    +0.046 A 
ATOM      5  C   UNL     1       1.502  -0.015   3.635  0.00  0.00    +0.004 A 
ATOM      6  C   UNL     1       0.913   0.397   4.820  0.00  0.00    +0.001 A 
ATOM      7  C   UNL     1      -0.216   1.186   4.798  0.00  0.00    +0.011 A 
ATOM      8  C   UNL     1      -0.769   1.577   3.574  0.00  0.00    +0.017 A 
BRANCH   3   9
ATOM      9  O   UNL     1      -0.703   1.520   1.182  0.00  0.00    -0.491 OA
BRANCH   9  10
ATOM     10  C   UNL     1      -0.038   1.054   0.006  0.00  0.00    +0.229 C 
BRANCH  10  11
ATOM     11  C   UNL     1      -0.774   1.566  -1.233  0.00  0.00    +0.041 C 
BRANCH  11  13
ATOM     12  C   UNL     1      -0.799   1.579  -3.731  0.00  0.00    +0.004 C 
ATOM     13  C   UNL     1      -0.062   1.067  -2.492  0.00  0.00    -0.000 C 
ENDBRANCH  11  13
ENDBRANCH  10  11
ENDBRANCH   9  10
ENDBRANCH   3   9
ENDBRANCH   1   8
BRANCH   2  14
ATOM     14  C   UNL     1      -3.735   3.672   4.664  0.00  0.00    +0.241 C 
ATOM     15  O   UNL     1      -4.216   4.006   3.597  0.00  0.00    -0.270 OA
ATOM     16  N   UNL     1      -4.305   4.078   5.816  0.00  0.00    -0.281 N 
ATOM     17  H   UNL     1      -3.962   3.759   6.666  0.00  0.00    +0.155 HD
BRANCH  16  18
ATOM     18  C   UNL     1      -5.390   4.959   5.787  0.00  0.00    +0.048 A 
ATOM     19  C   UNL     1      -6.322   4.882   4.761  0.00  0.00    +0.024 A 
ATOM     20  C   UNL     1      -7.395   5.751   4.737  0.00  0.00    +0.002 A 
ATOM     21  C   UNL     1      -7.537   6.704   5.729  0.00  0.00    +0.001 A 
ATOM     22  C   UNL     1      -6.609   6.787   6.751  0.00  0.00    +0.017 A 
ATOM     23  C   UNL     1      -5.536   5.918   6.783  0.00  0.00    +0.039 A 
ATOM     24 BR   UNL     1      -4.266   6.032   8.180  0.00  0.00    -0.048 Br
ENDBRANCH  16  18
ENDBRANCH   2  14
TORSDOF 7
