REMARK  Name = ZINC04460486
REMARK  8 active torsions:
REMARK  status: ('A' for Active; 'I' for Inactive)
REMARK    1  A    between atoms: C_1  and  C_2
REMARK    2  A    between atoms: C_2  and  N_57
REMARK    3  A    between atoms: C_5  and  C_6
REMARK    4  A    between atoms: C_11  and  C_12
REMARK    5  A    between atoms: C_16  and  C_24
REMARK    6  A    between atoms: C_18  and  C_22
REMARK    7  A    between atoms: C_19  and  N_21
REMARK    8  A    between atoms: C_29  and  C_30
REMARK                            x       y       z     vdW  Elec       q    Type
REMARK                         _______ _______ _______ _____ _____    ______ ____
ROOT
ATOM      1  C   UNL     1       1.193   6.476  -4.230  0.00  0.00    -0.039 C 
ATOM      2  C   UNL     1       2.143   6.586  -3.057  0.00  0.00    -0.021 C 
ATOM      3  C   UNL     1       3.332   7.203  -3.178  0.00  0.00    +0.013 C 
ATOM      4  C   UNL     1       1.717   5.990  -1.774  0.00  0.00    +0.130 C 
ATOM      5  C   UNL     1       0.457   5.581  -1.622  0.00  0.00    -0.031 C 
ATOM      6  C   UNL     1      -0.543   5.686  -2.744  0.00  0.00    -0.042 C 
ATOM      7  C   UNL     1      -0.000   4.989  -0.310  0.00  0.00    +0.092 C 
ATOM      8  C   UNL     1       0.963   5.339   0.788  0.00  0.00    +0.098 C 
ATOM      9  C   UNL     1       2.218   5.765   0.499  0.00  0.00    +0.199 C 
ATOM     10  O   UNL     1       2.628   5.884  -0.775  0.00  0.00    -0.441 OA
ATOM     11  N   UNL     1      -0.161   6.743  -3.695  0.00  0.00    +0.385 N 
ATOM     12  H   UNL     1      -0.154   7.646  -3.205  0.00  0.00    -0.081 HD
ENDROOT
BRANCH   3  13
ATOM     13  C   UNL     1       3.798   7.649  -4.503  0.00  0.00    -0.022 A 
ATOM     14  C   UNL     1       3.594   6.843  -5.627  0.00  0.00    +0.008 A 
ATOM     15  C   UNL     1       4.033   7.267  -6.863  0.00  0.00    +0.001 A 
ATOM     16  C   UNL     1       4.676   8.486  -6.993  0.00  0.00    +0.000 A 
ATOM     17  C   UNL     1       4.883   9.288  -5.885  0.00  0.00    +0.004 A 
ATOM     18  C   UNL     1       4.443   8.881  -4.643  0.00  0.00    -0.043 A 
ATOM     19  C   UNL     1       4.663   9.759  -3.438  0.00  0.00    +0.044 C 
ENDBRANCH   3  13
BRANCH   7  20
ATOM     20  C   UNL     1      -0.082   3.490  -0.442  0.00  0.00    -0.032 A 
ATOM     21  C   UNL     1       1.025   2.770  -0.853  0.00  0.00    +0.005 A 
ATOM     22  C   UNL     1       0.951   1.395  -0.973  0.00  0.00    +0.000 A 
ATOM     23  C   UNL     1      -0.231   0.739  -0.683  0.00  0.00    +0.000 A 
ATOM     24  C   UNL     1      -1.340   1.459  -0.278  0.00  0.00    +0.003 A 
ATOM     25  C   UNL     1      -1.263   2.833  -0.152  0.00  0.00    -0.046 A 
ATOM     26  C   UNL     1      -2.470   3.617   0.296  0.00  0.00    +0.044 C 
ENDBRANCH   7  20
BRANCH   9  27
ATOM     27  N   UNL     1       3.079   6.078   1.521  0.00  0.00    -0.328 N 
ATOM     28  H   UNL     1       2.789   5.995   2.443  0.00  0.00    +0.145 HD
ATOM     29  H   UNL     1       3.978   6.383   1.321  0.00  0.00    +0.145 HD
ENDBRANCH   9  27
BRANCH  11  31
ATOM     30  C   UNL     1      -0.855   8.046  -5.649  0.00  0.00    -0.017 C 
ATOM     31  C   UNL     1      -1.141   6.803  -4.803  0.00  0.00    -0.081 C 
ENDBRANCH  11  31
BRANCH   8  32
ATOM     32  C   UNL     1       0.551   5.223   2.154  0.00  0.00    +0.101 C 
ATOM     33  N   UNL     1       0.225   5.130   3.239  0.00  0.00    -0.191 NA
ENDBRANCH   8  32
TORSDOF 5
