REMARK  Name = ZINC40727411
REMARK  8 active torsions:
REMARK  status: ('A' for Active; 'I' for Inactive)
REMARK    1  A    between atoms: C_1  and  C_2
REMARK    2  A    between atoms: C_2  and  C_3
REMARK    3  A    between atoms: C_2  and  C_4
REMARK    4  A    between atoms: C_7  and  O_10
REMARK    5  A    between atoms: O_10  and  C_11
REMARK    6  A    between atoms: C_12  and  N_25
REMARK    7  A    between atoms: C_13  and  N_17
REMARK    8  A    between atoms: N_17  and  C_18
REMARK                            x       y       z     vdW  Elec       q    Type
REMARK                         _______ _______ _______ _____ _____    ______ ____
ROOT
ATOM      1  C   UNL     1      -5.780  -2.410  -1.194  0.00  0.00    +0.246 A 
ATOM      2  C   UNL     1      -7.067  -2.945  -1.211  0.00  0.00    +0.128 A 
ATOM      3  C   UNL     1      -7.472  -3.655  -2.344  0.00  0.00    +0.151 A 
ATOM      4  N   UNL     1      -6.619  -3.794  -3.356  0.00  0.00    -0.218 NA
ATOM      5  C   UNL     1      -5.410  -3.273  -3.298  0.00  0.00    +0.227 A 
ATOM      6  N   UNL     1      -4.993  -2.591  -2.250  0.00  0.00    -0.199 NA
ENDROOT
BRANCH   2   7
ATOM      7  N   UNL     1      -7.934  -2.773  -0.121  0.00  0.00    -0.351 N 
ATOM      8  H   UNL     1      -7.639  -2.278   0.659  0.00  0.00    +0.143 HD
ATOM      9  H   UNL     1      -8.827  -3.150  -0.147  0.00  0.00    +0.143 HD
ENDBRANCH   2   7
BRANCH   3  10
ATOM     10  N   UNL     1      -8.745  -4.209  -2.413  0.00  0.00    -0.298 N 
ATOM     11  H   UNL     1      -9.387  -4.040  -1.706  0.00  0.00    +0.154 HD
BRANCH  10  12
ATOM     12  C   UNL     1      -9.101  -5.009  -3.502  0.00  0.00    +0.032 A 
ATOM     13  C   UNL     1     -10.414  -5.021  -3.958  0.00  0.00    +0.024 A 
ATOM     14  C   UNL     1     -10.762  -5.812  -5.035  0.00  0.00    +0.016 A 
ATOM     15  C   UNL     1      -9.806  -6.593  -5.659  0.00  0.00    +0.013 A 
ATOM     16  C   UNL     1      -8.499  -6.584  -5.207  0.00  0.00    +0.016 A 
ATOM     17  C   UNL     1      -8.143  -5.790  -4.135  0.00  0.00    +0.024 A 
ATOM     18  I   UNL     1     -10.340  -7.793  -7.292  0.00  0.00    -0.044 I 
ENDBRANCH  10  12
ENDBRANCH   3  10
BRANCH   1  19
ATOM     19  O   UNL     1      -5.338  -1.712  -0.118  0.00  0.00    -0.436 OA
BRANCH  19  23
ATOM     20  C   UNL     1      -1.643   0.104  -0.369  0.00  0.00    -0.045 A 
ATOM     21  C   UNL     1      -2.714   0.618  -1.077  0.00  0.00    +0.007 A 
ATOM     22  C   UNL     1      -3.952   0.012  -0.994  0.00  0.00    +0.046 A 
ATOM     23  C   UNL     1      -4.121  -1.114  -0.201  0.00  0.00    +0.130 A 
ATOM     24  C   UNL     1      -3.044  -1.628   0.507  0.00  0.00    +0.046 A 
ATOM     25  C   UNL     1      -1.807  -1.021   0.417  0.00  0.00    +0.007 A 
BRANCH  20  27
ATOM     26  C   UNL     1       0.180   0.763  -1.916  0.00  0.00    +0.012 C 
ATOM     27  C   UNL     1      -0.293   0.768  -0.461  0.00  0.00    +0.013 C 
ATOM     28  C   UNL     1      -0.400   2.211   0.036  0.00  0.00    +0.012 C 
ENDBRANCH  20  27
ENDBRANCH  19  23
ENDBRANCH   1  19
TORSDOF 6
