REMARK  Name = ZINC36267675
REMARK  5 active torsions:
REMARK  status: ('A' for Active; 'I' for Inactive)
REMARK    1  A    between atoms: C_3  and  S_14
REMARK    2  A    between atoms: C_6  and  N_7
REMARK    3  A    between atoms: N_7  and  C_8
REMARK    4  A    between atoms: C_11  and  N_13
REMARK    5  A    between atoms: S_14  and  C_17
REMARK                            x       y       z     vdW  Elec       q    Type
REMARK                         _______ _______ _______ _____ _____    ______ ____
ROOT
ATOM      1  C   UNL     1      -0.017   1.385   0.010  0.00  0.00    +0.025 A 
ATOM      2  C   UNL     1       1.171   2.090   0.002  0.00  0.00    +0.029 A 
ATOM      3  C   UNL     1       2.377   1.415  -0.013  0.00  0.00    +0.098 A 
ATOM      4  C   UNL     1       2.400   0.032  -0.021  0.00  0.00    +0.029 A 
ATOM      5  C   UNL     1       1.216  -0.679  -0.014  0.00  0.00    +0.025 A 
ATOM      6  C   UNL     1       0.002  -0.004   0.002  0.00  0.00    +0.027 A 
ENDROOT
BRANCH   3   7
ATOM      7  S   UNL     1       3.890   2.319  -0.024  0.00  0.00    +0.091 S 
ATOM      8  O   UNL     1       4.828   1.448  -0.641  0.00  0.00    -0.161 OA
ATOM      9  O   UNL     1       3.562   3.567  -0.618  0.00  0.00    -0.161 OA
BRANCH   7  10
ATOM     10  C   UNL     1       4.308   2.549   1.726  0.00  0.00    +0.526 C 
ATOM     11  F   UNL     1       4.456   1.300   2.338  0.00  0.00    -0.150 F 
ATOM     12  F   UNL     1       5.506   3.264   1.829  0.00  0.00    -0.150 F 
ATOM     13  F   UNL     1       3.284   3.261   2.360  0.00  0.00    -0.150 F 
ENDBRANCH   7  10
ENDBRANCH   3   7
BRANCH   6  14
ATOM     14  N   UNL     1      -1.197  -0.720   0.010  0.00  0.00    -0.343 N 
ATOM     15  H   UNL     1      -2.044  -0.248   0.021  0.00  0.00    +0.146 HD
BRANCH  14  16
ATOM     16  C   UNL     1      -1.175  -2.185   0.002  0.00  0.00    +0.054 C 
ATOM     17  C   UNL     1      -2.154  -2.901  -0.931  0.00  0.00    +0.006 C 
ATOM     18  C   UNL     1      -2.390  -2.913   0.582  0.00  0.00    -0.053 C 
BRANCH  18  19
ATOM     19  N   UNL     1      -3.488  -2.090   1.104  0.00  0.00    +0.381 N 
ATOM     20  H   UNL     1      -3.854  -1.508   0.365  0.00  0.00    -0.090 HD
ATOM     21  H   UNL     1      -4.221  -2.689   1.454  0.00  0.00    -0.090 HD
ATOM     22  H   UNL     1      -3.145  -1.506   1.852  0.00  0.00    -0.090 HD
ENDBRANCH  18  19
ENDBRANCH  14  16
ENDBRANCH   6  14
TORSDOF 5
