REMARK  Name = ZINC11094907
REMARK  16 active torsions:
REMARK  status: ('A' for Active; 'I' for Inactive)
REMARK    1  A    between atoms: C_1  and  C_2
REMARK    2  A    between atoms: C_3  and  N_15
REMARK    3  A    between atoms: N_6  and  C_9
REMARK    4  A    between atoms: N_7  and  C_8
REMARK    5  A    between atoms: C_16  and  C_18
REMARK    6  A    between atoms: C_18  and  C_20
REMARK    7  A    between atoms: C_18  and  N_71
REMARK    8  A    between atoms: C_21  and  C_23
REMARK    9  A    between atoms: C_21  and  C_33
REMARK   10  A    between atoms: C_21  and  N_71
REMARK   11  A    between atoms: C_26  and  C_29
REMARK   12  A    between atoms: C_29  and  C_30
REMARK   13  A    between atoms: C_30  and  C_31
REMARK   14  A    between atoms: C_30  and  C_32
REMARK   15  A    between atoms: C_33  and  C_34
REMARK   16  A    between atoms: C_33  and  C_35
REMARK                            x       y       z     vdW  Elec       q    Type
REMARK                         _______ _______ _______ _____ _____    ______ ____
ROOT
ATOM      1  C   UNL     1      -4.070   4.986   5.779  0.00  0.00    +0.014 C 
ATOM      2  C   UNL     1      -3.459   5.506   7.082  0.00  0.00    -0.004 C 
ENDROOT
BRANCH   1   4
ATOM      3  N   UNL     1      -5.817   6.735   5.694  0.00  0.00    -0.281 N 
ATOM      4  C   UNL     1      -4.793   6.109   5.081  0.00  0.00    +0.203 C 
ATOM      5  O   UNL     1      -4.454   6.449   3.967  0.00  0.00    -0.277 OA
ATOM      6  H   UNL     1      -6.041   6.514   6.612  0.00  0.00    +0.155 HD
BRANCH   3   9
ATOM      7  C   UNL     1      -8.844   6.603   5.211  0.00  0.00    +0.067 C 
ATOM      8  C   UNL     1      -7.894   7.686   4.770  0.00  0.00    +0.059 A 
ATOM      9  C   UNL     1      -6.563   7.710   5.002  0.00  0.00    +0.121 A 
ATOM     10  C   UNL     1      -6.041   8.941   4.406  0.00  0.00    +0.293 A 
ATOM     11  O   UNL     1      -4.882   9.316   4.415  0.00  0.00    -0.264 OA
ATOM     12  N   UNL     1      -7.087   9.579   3.843  0.00  0.00    -0.216 N 
ATOM     13  N   UNL     1      -8.236   8.811   4.067  0.00  0.00    -0.282 N 
ATOM     14  C   UNL     1      -9.588   9.156   3.621  0.00  0.00    +0.171 C 
BRANCH  12  15
ATOM     15  C   UNL     1      -7.035  10.798   3.160  0.00  0.00    +0.067 A 
ATOM     16  C   UNL     1      -7.640  10.926   1.917  0.00  0.00    +0.028 A 
ATOM     17  C   UNL     1      -7.590  12.133   1.247  0.00  0.00    +0.002 A 
ATOM     18  C   UNL     1      -6.930  13.211   1.809  0.00  0.00    +0.000 A 
ATOM     19  C   UNL     1      -6.322  13.085   3.045  0.00  0.00    +0.002 A 
ATOM     20  C   UNL     1      -6.373  11.882   3.722  0.00  0.00    +0.028 A 
ENDBRANCH  12  15
ENDBRANCH   3   9
ENDBRANCH   1   4
BRANCH   1  21
ATOM     21  N   UNL     1      -2.998   4.480   4.900  0.00  0.00    +0.391 N 
ATOM     22  H   UNL     1      -2.142   5.024   5.062  0.00  0.00    -0.084 HD
ATOM     23  H   UNL     1      -3.288   4.582   3.920  0.00  0.00    -0.084 HD
BRANCH  21  24
ATOM     24  C   UNL     1      -2.732   3.057   5.184  0.00  0.00    -0.037 C 
BRANCH  24  25
ATOM     25  C   UNL     1      -3.642   2.199   4.344  0.00  0.00    -0.061 A 
ATOM     26  C   UNL     1      -4.211   1.060   4.883  0.00  0.00    +0.002 A 
ATOM     27  C   UNL     1      -5.046   0.273   4.113  0.00  0.00    +0.004 A 
ATOM     28  C   UNL     1      -5.313   0.625   2.803  0.00  0.00    -0.047 A 
ATOM     29  C   UNL     1      -4.740   1.760   2.262  0.00  0.00    +0.004 A 
ATOM     30  C   UNL     1      -3.908   2.550   3.034  0.00  0.00    +0.002 A 
BRANCH  28  31
ATOM     31  C   UNL     1      -6.223  -0.234   1.963  0.00  0.00    +0.038 C 
BRANCH  31  32
ATOM     32  C   UNL     1      -7.666   0.251   2.117  0.00  0.00    -0.013 C 
ATOM     33  C   UNL     1      -7.795   1.662   1.541  0.00  0.00    +0.007 C 
ATOM     34  C   UNL     1      -8.605  -0.695   1.365  0.00  0.00    +0.007 C 
ENDBRANCH  31  32
ENDBRANCH  28  31
ENDBRANCH  24  25
BRANCH  24  35
ATOM     35  C   UNL     1      -1.275   2.741   4.844  0.00  0.00    -0.027 C 
ATOM     36  C   UNL     1      -0.966   1.290   5.221  0.00  0.00    +0.006 C 
ATOM     37  C   UNL     1      -1.047   2.938   3.344  0.00  0.00    +0.006 C 
ENDBRANCH  24  35
ENDBRANCH  21  24
ENDBRANCH   1  21
TORSDOF 9
