REMARK  Name = ZINC14807394
REMARK  5 active torsions:
REMARK  status: ('A' for Active; 'I' for Inactive)
REMARK    1  A    between atoms: C_6  and  C_7
REMARK    2  A    between atoms: C_9  and  C_12
REMARK    3  A    between atoms: C_12  and  O_13
REMARK    4  A    between atoms: O_13  and  C_14
REMARK    5  A    between atoms: C_14  and  C_16
REMARK                            x       y       z     vdW  Elec       q    Type
REMARK                         _______ _______ _______ _____ _____    ______ ____
ROOT
ATOM      1  C   UNL     1       7.205  -3.556   0.450  0.00  0.00    +0.114 A 
ATOM      2  C   UNL     1       5.899  -3.495   1.013  0.00  0.00    +0.079 A 
ATOM      3  C   UNL     1       5.082  -3.460  -0.064  0.00  0.00    +0.175 A 
ATOM      4  O   UNL     1       5.871  -3.490  -1.147  0.00  0.00    -0.356 OA
ATOM      5  N   UNL     1       7.042  -3.543  -0.850  0.00  0.00    -0.078 NA
ENDROOT
BRANCH   1  11
ATOM      6  C   UNL     1       8.500  -3.616   2.580  0.00  0.00    +0.011 A 
ATOM      7  C   UNL     1       9.699  -3.677   3.261  0.00  0.00    +0.020 A 
ATOM      8  C   UNL     1      10.893  -3.727   2.562  0.00  0.00    +0.041 A 
ATOM      9  C   UNL     1      10.890  -3.722   1.177  0.00  0.00    +0.020 A 
ATOM     10  C   UNL     1       9.696  -3.667   0.488  0.00  0.00    +0.011 A 
ATOM     11  C   UNL     1       8.492  -3.616   1.187  0.00  0.00    +0.004 A 
ATOM     12 CL   UNL     1      12.398  -3.795   3.424  0.00  0.00    -0.084 Cl
ENDBRANCH   1  11
BRANCH   3  13
ATOM     13  C   UNL     1       3.577  -3.393  -0.049  0.00  0.00    +0.309 C 
BRANCH  13  14
ATOM     14  O   UNL     1       3.154  -2.004  -0.038  0.00  0.00    -0.452 OA
BRANCH  14  15
ATOM     15  C   UNL     1       1.826  -1.768  -0.024  0.00  0.00    +0.356 C 
ATOM     16  O   UNL     1       1.043  -2.699  -0.021  0.00  0.00    -0.243 OA
BRANCH  15  17
ATOM     17  C   UNL     1       1.326  -0.391  -0.013  0.00  0.00    +0.125 A 
ATOM     18  C   UNL     1       0.002  -0.004   0.002  0.00  0.00    +0.049 A 
ATOM     19  C   UNL     1      -0.017   1.394   0.010  0.00  0.00    +0.036 A 
ATOM     20  C   UNL     1       1.267   1.827  -0.000  0.00  0.00    +0.098 A 
ATOM     21  N   UNL     1       2.093   0.752  -0.014  0.00  0.00    -0.355 N 
ATOM     22  H   UNL     1       3.062   0.784  -0.022  0.00  0.00    +0.166 HD
ATOM     23 BR   UNL     1      -1.560   2.486   0.023  0.00  0.00    -0.049 Br
ENDBRANCH  15  17
ENDBRANCH  14  15
ENDBRANCH  13  14
ENDBRANCH   3  13
TORSDOF 5
