REMARK  Name = ZINC45866158
REMARK  5 active torsions:
REMARK  status: ('A' for Active; 'I' for Inactive)
REMARK    1  A    between atoms: C_1  and  C_2
REMARK    2  A    between atoms: C_4  and  O_5
REMARK    3  A    between atoms: C_14  and  C_16
REMARK    4  A    between atoms: C_17  and  C_18
REMARK    5  A    between atoms: C_21  and  N_24
REMARK                            x       y       z     vdW  Elec       q    Type
REMARK                         _______ _______ _______ _____ _____    ______ ____
ROOT
ATOM      1  C   UNL     1      -3.609   1.369   1.605  0.00  0.00    +0.045 C 
ATOM      2  C   UNL     1      -3.705  -0.123   1.791  0.00  0.00    -0.033 A 
ATOM      3  C   UNL     1      -4.743  -0.839   1.228  0.00  0.00    +0.091 A 
ATOM      4  C   UNL     1      -4.814  -2.212   1.410  0.00  0.00    +0.285 A 
ATOM      5  O   UNL     1      -3.894  -2.869   2.125  0.00  0.00    -0.425 OA
ATOM      6  C   UNL     1      -2.860  -2.219   2.697  0.00  0.00    +0.141 A 
ATOM      7  C   UNL     1      -2.734  -0.820   2.540  0.00  0.00    +0.021 A 
ATOM      8  C   UNL     1      -1.654  -0.138   3.130  0.00  0.00    +0.013 A 
ATOM      9  C   UNL     1      -0.728  -0.826   3.847  0.00  0.00    +0.024 A 
ATOM     10  C   UNL     1      -0.842  -2.220   4.005  0.00  0.00    +0.037 A 
ATOM     11  C   UNL     1      -1.916  -2.909   3.434  0.00  0.00    +0.070 A 
ATOM     12  N   UNL     1       0.086  -2.894   4.721  0.00  0.00    -0.282 N 
ATOM     13  C   UNL     1       0.049  -4.223   4.774  0.00  0.00    +0.241 C 
ATOM     14  O   UNL     1       0.067  -4.876   3.741  0.00  0.00    -0.270 OA
ATOM     15  H   UNL     1       0.778  -2.409   5.196  0.00  0.00    +0.155 HD
ENDROOT
BRANCH   4  16
ATOM     16  O   UNL     1      -5.831  -2.899   0.854  0.00  0.00    -0.480 OA
ATOM     17  H   UNL     1      -5.806  -3.850   1.030  0.00  0.00    +0.295 HD
ENDBRANCH   4  16
BRANCH  13  18
ATOM     18  C   UNL     1      -0.015  -4.905   6.073  0.00  0.00    +0.068 C 
ATOM     19  C   UNL     1      -0.052  -6.250   6.127  0.00  0.00    +0.013 C 
BRANCH  19  20
ATOM     20  C   UNL     1      -0.115  -6.933   7.428  0.00  0.00    -0.025 A 
ATOM     21  C   UNL     1      -0.142  -6.186   8.611  0.00  0.00    +0.010 A 
ATOM     22  C   UNL     1      -0.201  -6.829   9.827  0.00  0.00    +0.025 A 
ATOM     23  C   UNL     1      -0.233  -8.220   9.880  0.00  0.00    +0.051 A 
ATOM     24  C   UNL     1      -0.206  -8.966   8.706  0.00  0.00    +0.025 A 
ATOM     25  C   UNL     1      -0.154  -8.330   7.486  0.00  0.00    +0.010 A 
BRANCH  23  26
ATOM     26  N   UNL     1      -0.292  -8.866  11.113  0.00  0.00    -0.207 N 
ATOM     27  C   UNL     1       0.164  -8.342  12.413  0.00  0.00    +0.133 C 
ATOM     28  C   UNL     1      -0.664  -8.942  13.565  0.00  0.00    +0.045 C 
ATOM     29  C   UNL     1      -0.746 -10.467  13.253  0.00  0.00    +0.190 C 
ATOM     30  S   UNL     1      -0.903 -10.396  11.422  0.00  0.00    +0.046 S 
ATOM     31  O   UNL     1      -2.269 -10.346  11.034  0.00  0.00    -0.155 OA
ATOM     32  O   UNL     1       0.005 -11.299  10.806  0.00  0.00    -0.155 OA
ENDBRANCH  23  26
ENDBRANCH  19  20
ENDBRANCH  13  18
TORSDOF 4
