REMARK  Name = ZINC65490794
REMARK  8 active torsions:
REMARK  status: ('A' for Active; 'I' for Inactive)
REMARK    1  A    between atoms: C_4  and  C_7
REMARK    2  A    between atoms: C_9  and  C_21
REMARK    3  A    between atoms: N_11  and  C_14
REMARK    4  A    between atoms: C_14  and  C_15
REMARK    5  A    between atoms: C_24  and  C_27
REMARK    6  A    between atoms: C_28  and  C_29
REMARK    7  A    between atoms: C_29  and  C_30
REMARK    8  A    between atoms: C_30  and  O_31
REMARK                            x       y       z     vdW  Elec       q    Type
REMARK                         _______ _______ _______ _____ _____    ______ ____
ROOT
ATOM      1  C   UNL     1       3.732  -0.734   0.040  0.00  0.00    +0.073 C 
ATOM      2  C   UNL     1       4.076  -1.185  -1.392  0.00  0.00    -0.014 C 
ATOM      3  N   UNL     1       4.112  -2.667  -1.345  0.00  0.00    +0.398 N 
ATOM      4  C   UNL     1       4.387  -2.986   0.079  0.00  0.00    +0.007 C 
ATOM      5  N   UNL     1       3.591  -1.980   0.831  0.00  0.00    -0.327 NA
ATOM      6  H   UNL     1       3.951  -1.857   1.765  0.00  0.00    +0.120 HD
ATOM      7  H   UNL     1       3.222  -3.050  -1.627  0.00  0.00    -0.078 HD
ENDROOT
BRANCH   1  11
ATOM      8  C   UNL     1       0.061   1.450   0.056  0.00  0.00    +0.000 A 
ATOM      9  C   UNL     1       1.267   2.124   0.111  0.00  0.00    +0.000 A 
ATOM     10  C   UNL     1       2.455   1.418   0.106  0.00  0.00    +0.005 A 
ATOM     11  C   UNL     1       2.437   0.037   0.047  0.00  0.00    -0.032 A 
ATOM     12  C   UNL     1       1.232  -0.637  -0.007  0.00  0.00    +0.005 A 
ATOM     13  C   UNL     1       0.044   0.069  -0.004  0.00  0.00    +0.000 A 
ENDBRANCH   1  11
BRANCH   2  14
ATOM     14  C   UNL     1       5.421  -0.643  -1.801  0.00  0.00    -0.059 A 
ATOM     15  C   UNL     1       6.536  -0.913  -1.029  0.00  0.00    +0.003 A 
ATOM     16  C   UNL     1       7.771  -0.419  -1.398  0.00  0.00    +0.017 A 
ATOM     17  C   UNL     1       7.893   0.354  -2.553  0.00  0.00    +0.025 A 
ATOM     18  C   UNL     1       6.763   0.623  -3.328  0.00  0.00    +0.017 A 
ATOM     19  C   UNL     1       5.536   0.119  -2.950  0.00  0.00    +0.003 A 
BRANCH  17  20
ATOM     20  C   UNL     1       9.171   0.870  -2.942  0.00  0.00    -0.066 C 
ATOM     21  C   UNL     1      10.218   1.293  -3.260  0.00  0.00    -0.095 C 
BRANCH  21  22
ATOM     22  C   UNL     1      11.532   1.823  -3.660  0.00  0.00    +0.117 C 
BRANCH  22  23
ATOM     23  C   UNL     1      11.385   2.630  -4.952  0.00  0.00    +0.168 C 
BRANCH  23  24
ATOM     24  O   UNL     1      12.661   3.144  -5.340  0.00  0.00    -0.394 OA
ATOM     25  H   UNL     1      12.643   3.667  -6.153  0.00  0.00    +0.209 HD
ENDBRANCH  23  24
ENDBRANCH  22  23
ENDBRANCH  21  22
ENDBRANCH  17  20
ENDBRANCH   2  14
BRANCH   3  26
ATOM     26  C   UNL     1       5.189  -3.180  -2.203  0.00  0.00    +0.003 C 
BRANCH  26  27
ATOM     27  C   UNL     1       5.109  -4.684  -2.263  0.00  0.00    +0.135 A 
ATOM     28  H   UNL     1       5.655  -7.641  -1.454  0.00  0.00    +0.190 HD
ATOM     29  N   UNL     1       4.414  -5.387  -3.156  0.00  0.00    -0.222 NA
ATOM     30  C   UNL     1       4.560  -6.667  -2.925  0.00  0.00    +0.216 A 
ATOM     31  N   UNL     1       5.367  -6.808  -1.859  0.00  0.00    -0.265 N 
ATOM     32  N   UNL     1       5.714  -5.510  -1.451  0.00  0.00    -0.160 NA
ENDBRANCH  26  27
ENDBRANCH   3  26
TORSDOF 8
