REMARK  Name = ZINC09631555
REMARK  5 active torsions:
REMARK  status: ('A' for Active; 'I' for Inactive)
REMARK    1  A    between atoms: N_7  and  S_8
REMARK    2  A    between atoms: S_8  and  C_11
REMARK    3  A    between atoms: C_14  and  C_17
REMARK    4  A    between atoms: C_20  and  C_22
REMARK    5  A    between atoms: N_23  and  N_24
REMARK                            x       y       z     vdW  Elec       q    Type
REMARK                         _______ _______ _______ _____ _____    ______ ____
ROOT
ATOM      1  C   UNL     1       5.197   1.332   0.853  0.00  0.00    +0.109 A 
ATOM      2  C   UNL     1       4.690   2.613   0.726  0.00  0.00    +0.029 A 
ATOM      3  C   UNL     1       4.909   3.547   1.717  0.00  0.00    +0.013 A 
ATOM      4  C   UNL     1       5.654   3.200   2.847  0.00  0.00    +0.017 A 
ATOM      5  C   UNL     1       6.168   1.906   2.966  0.00  0.00    +0.013 A 
ATOM      6  C   UNL     1       5.936   0.981   1.969  0.00  0.00    +0.029 A 
ENDROOT
BRANCH   4   7
ATOM      7  C   UNL     1       5.897   4.195   3.909  0.00  0.00    +0.136 A 
ATOM      8  C   UNL     1       5.451   5.483   3.909  0.00  0.00    +0.050 A 
ATOM      9  C   UNL     1       5.902   6.076   5.096  0.00  0.00    +0.051 A 
ATOM     10  C   UNL     1       6.612   5.111   5.777  0.00  0.00    +0.148 A 
ATOM     11  O   UNL     1       6.592   3.980   5.043  0.00  0.00    -0.454 OA
BRANCH  10  12
ATOM     12  C   UNL     1       7.269   5.283   7.074  0.00  0.00    +0.176 C 
ATOM     13  N   UNL     1       7.912   4.288   7.615  0.00  0.00    -0.186 NA
BRANCH  13  14
ATOM     14  N   UNL     1       8.540   4.452   8.856  0.00  0.00    -0.220 N 
ATOM     15  C   UNL     1       9.227   3.390   9.434  0.00  0.00    +0.157 A 
ATOM     16  C   UNL     1       9.854   3.561  10.665  0.00  0.00    +0.084 A 
ATOM     17  C   UNL     1      10.530   2.494  11.230  0.00  0.00    +0.045 A 
ATOM     18  C   UNL     1      10.565   1.290  10.537  0.00  0.00    +0.061 A 
ATOM     19  C   UNL     1       9.924   1.192   9.317  0.00  0.00    +0.133 A 
ATOM     20  N   UNL     1       9.283   2.226   8.805  0.00  0.00    -0.236 NA
ATOM     21 CL   UNL     1      11.405  -0.078  11.198  0.00  0.00    -0.082 Cl
ATOM     22 CL   UNL     1       9.784   5.091  11.483  0.00  0.00    -0.080 Cl
ATOM     23  H   UNL     1       8.496   5.306   9.313  0.00  0.00    +0.176 HD
ENDBRANCH  13  14
ENDBRANCH  10  12
ENDBRANCH   4   7
BRANCH   1  24
ATOM     24  S   UNL     1       4.907   0.144  -0.415  0.00  0.00    +0.075 S 
ATOM     25  O   UNL     1       5.951  -0.816  -0.319  0.00  0.00    -0.150 OA
ATOM     26  O   UNL     1       4.653   0.876  -1.607  0.00  0.00    -0.150 OA
BRANCH  24  33
ATOM     27  C   UNL     1      -0.017   1.382   0.010  0.00  0.00    +0.039 A 
ATOM     28  C   UNL     1       1.192   2.061   0.002  0.00  0.00    +0.116 A 
ATOM     29  N   UNL     1       2.320   1.371  -0.013  0.00  0.00    -0.222 NA
ATOM     30  C   UNL     1       2.303   0.046  -0.020  0.00  0.00    +0.235 A 
ATOM     31  N   UNL     1       1.165  -0.633  -0.013  0.00  0.00    -0.222 NA
ATOM     32  C   UNL     1       0.002  -0.004   0.002  0.00  0.00    +0.116 A 
ATOM     33  N   UNL     1       3.502  -0.645  -0.035  0.00  0.00    -0.184 N 
ATOM     34  H   UNL     1       3.519  -1.591   0.177  0.00  0.00    +0.177 HD
ENDBRANCH  24  33
ENDBRANCH   1  24
TORSDOF 5
