REMARK  Name = ZINC13646930
REMARK  6 active torsions:
REMARK  status: ('A' for Active; 'I' for Inactive)
REMARK    1  A    between atoms: C_1  and  C_2
REMARK    2  A    between atoms: C_2  and  C_23
REMARK    3  A    between atoms: N_3  and  N_4
REMARK    4  A    between atoms: C_5  and  C_7
REMARK    5  A    between atoms: C_9  and  C_13
REMARK    6  A    between atoms: C_28  and  O_29
REMARK                            x       y       z     vdW  Elec       q    Type
REMARK                         _______ _______ _______ _____ _____    ______ ____
ROOT
ATOM      1  C   UNL     1      -0.035   0.087   4.783  0.00  0.00    +0.122 A 
ATOM      2  C   UNL     1      -0.072  -0.462   6.050  0.00  0.00    +0.062 A 
ATOM      3  C   UNL     1       0.063   0.628   6.931  0.00  0.00    +0.094 A 
ATOM      4  N   UNL     1       0.169   1.719   6.200  0.00  0.00    -0.173 NA
ATOM      5  N   UNL     1       0.121   1.435   4.949  0.00  0.00    -0.272 N 
ATOM      6  H   UNL     1       0.183   2.082   4.228  0.00  0.00    +0.189 HD
ENDROOT
BRANCH   3   7
ATOM      7  C   UNL     1       0.082   0.560   8.412  0.00  0.00    +0.010 A 
ATOM      8  C   UNL     1       0.877  -0.368   9.059  0.00  0.00    +0.011 A 
ATOM      9  C   UNL     1       0.901  -0.437  10.447  0.00  0.00    +0.001 A 
ATOM     10  C   UNL     1       0.145   0.403  11.207  0.00  0.00    +0.008 A 
ATOM     11  C   UNL     1      -0.678   1.361  10.591  0.00  0.00    -0.017 A 
ATOM     12  C   UNL     1      -0.709   1.449   9.178  0.00  0.00    -0.009 A 
ATOM     13  C   UNL     1      -1.527   2.409   8.564  0.00  0.00    +0.009 A 
ATOM     14  C   UNL     1      -2.275   3.248   9.333  0.00  0.00    +0.001 A 
ATOM     15  C   UNL     1      -2.241   3.167  10.723  0.00  0.00    +0.001 A 
ATOM     16  C   UNL     1      -1.469   2.239  11.352  0.00  0.00    +0.008 A 
ENDBRANCH   3   7
BRANCH   1  18
ATOM     17  N   UNL     1      -0.077   0.039   2.341  0.00  0.00    -0.201 N 
ATOM     18  C   UNL     1      -0.136  -0.637   3.506  0.00  0.00    +0.281 C 
ATOM     19  O   UNL     1      -0.273  -1.846   3.502  0.00  0.00    -0.267 OA
ATOM     20  H   UNL     1       0.032   1.002   2.345  0.00  0.00    +0.178 HD
BRANCH  17  23
ATOM     21  C   UNL     1       0.052   1.498   0.009  0.00  0.00    +0.068 C 
ATOM     22  C   UNL     1      -0.117   0.000   0.004  0.00  0.00    +0.067 C 
ATOM     23  N   UNL     1      -0.174  -0.651   1.126  0.00  0.00    -0.184 NA
BRANCH  22  24
ATOM     24  C   UNL     1      -0.219  -0.725  -1.275  0.00  0.00    +0.039 A 
ATOM     25  C   UNL     1      -0.153  -0.030  -2.484  0.00  0.00    +0.013 A 
ATOM     26  C   UNL     1      -0.249  -0.714  -3.677  0.00  0.00    +0.001 A 
ATOM     27  C   UNL     1      -0.410  -2.090  -3.682  0.00  0.00    +0.004 A 
ATOM     28  C   UNL     1      -0.477  -2.789  -2.492  0.00  0.00    +0.046 A 
ATOM     29  C   UNL     1      -0.377  -2.118  -1.285  0.00  0.00    +0.126 A 
BRANCH  29  30
ATOM     30  O   UNL     1      -0.436  -2.806  -0.115  0.00  0.00    -0.506 OA
ATOM     31  H   UNL     1      -1.331  -2.905   0.237  0.00  0.00    +0.292 HD
ENDBRANCH  29  30
ENDBRANCH  22  24
ENDBRANCH  17  23
ENDBRANCH   1  18
TORSDOF 5
