REMARK  Name = ZINC07982118
REMARK  6 active torsions:
REMARK  status: ('A' for Active; 'I' for Inactive)
REMARK    1  A    between atoms: C_1  and  C_2
REMARK    2  A    between atoms: C_2  and  C_4
REMARK    3  A    between atoms: C_2  and  N_14
REMARK    4  A    between atoms: C_4  and  C_6
REMARK    5  A    between atoms: C_4  and  O_13
REMARK    6  A    between atoms: C_9  and  O_12
REMARK                            x       y       z     vdW  Elec       q    Type
REMARK                         _______ _______ _______ _____ _____    ______ ____
ROOT
ATOM      1  N   UNL     1       1.406   1.632   2.440  0.00  0.00    -0.323 N 
ATOM      2  C   UNL     1       2.136   1.823   3.599  0.00  0.00    +0.131 A 
ATOM      3  C   UNL     1       1.533   2.424   4.740  0.00  0.00    +0.051 A 
ATOM      4  C   UNL     1       0.159   2.900   4.906  0.00  0.00    -0.025 A 
ATOM      5  C   UNL     1      -0.165   3.428   6.103  0.00  0.00    -0.004 A 
ATOM      6  S   UNL     1       1.316   3.321   7.072  0.00  0.00    -0.073 S 
ATOM      7  C   UNL     1       2.371   2.563   5.864  0.00  0.00    +0.114 A 
ATOM      8  N   UNL     1       3.629   2.167   5.840  0.00  0.00    -0.228 NA
ATOM      9  C   UNL     1       4.134   1.621   4.751  0.00  0.00    +0.224 A 
ATOM     10  N   UNL     1       3.405   1.454   3.661  0.00  0.00    -0.220 NA
ATOM     11  C   UNL     1      -1.492   3.985   6.521  0.00  0.00    +0.043 C 
ATOM     12  C   UNL     1      -2.342   4.208   5.261  0.00  0.00    +0.005 C 
ATOM     13  C   UNL     1      -2.272   2.950   4.392  0.00  0.00    +0.005 C 
ATOM     14  C   UNL     1      -0.875   2.815   3.786  0.00  0.00    +0.037 C 
ATOM     15  H   UNL     1       0.504   1.982   2.371  0.00  0.00    +0.148 HD
ENDROOT
BRANCH   1  17
ATOM     16  C   UNL     1       1.788  -0.601   1.519  0.00  0.00    +0.031 C 
ATOM     17  C   UNL     1       1.996   0.901   1.315  0.00  0.00    +0.102 C 
BRANCH  17  18
ATOM     18  C   UNL     1       1.321   1.337   0.013  0.00  0.00    +0.164 C 
BRANCH  18  19
ATOM     19  C   UNL     1       2.009   0.678  -1.154  0.00  0.00    -0.017 A 
ATOM     20  C   UNL     1       1.642  -0.598  -1.540  0.00  0.00    +0.010 A 
ATOM     21  C   UNL     1       2.267  -1.202  -2.614  0.00  0.00    +0.046 A 
ATOM     22  C   UNL     1       3.271  -0.532  -3.298  0.00  0.00    +0.117 A 
ATOM     23  C   UNL     1       3.641   0.747  -2.905  0.00  0.00    +0.046 A 
ATOM     24  C   UNL     1       3.009   1.349  -1.834  0.00  0.00    +0.010 A 
BRANCH  22  25
ATOM     25  O   UNL     1       3.892  -1.126  -4.350  0.00  0.00    -0.507 OA
ATOM     26  H   UNL     1       4.674  -1.641  -4.106  0.00  0.00    +0.292 HD
ENDBRANCH  22  25
ENDBRANCH  18  19
BRANCH  18  27
ATOM     27  O   UNL     1      -0.055   0.950   0.037  0.00  0.00    -0.385 OA
ATOM     28  H   UNL     1      -0.193  -0.003   0.125  0.00  0.00    +0.210 HD
ENDBRANCH  18  27
ENDBRANCH  17  18
ENDBRANCH   1  17
TORSDOF 5
