REMARK  Name = ZINC35340231
REMARK  6 active torsions:
REMARK  status: ('A' for Active; 'I' for Inactive)
REMARK    1  A    between atoms: C_1  and  N_2
REMARK    2  A    between atoms: N_2  and  S_3
REMARK    3  A    between atoms: S_3  and  C_6
REMARK    4  A    between atoms: C_9  and  O_13
REMARK    5  A    between atoms: C_10  and  N_12
REMARK    6  A    between atoms: O_13  and  C_14
REMARK                            x       y       z     vdW  Elec       q    Type
REMARK                         _______ _______ _______ _____ _____    ______ ____
ROOT
ATOM      1  C   UNL     1       2.702  -1.052  -1.857  0.00  0.00    +0.107 A 
ATOM      2  C   UNL     1       3.203  -0.019  -2.627  0.00  0.00    +0.032 A 
ATOM      3  C   UNL     1       4.464   0.490  -2.372  0.00  0.00    +0.050 A 
ATOM      4  C   UNL     1       5.229  -0.037  -1.344  0.00  0.00    +0.149 A 
ATOM      5  C   UNL     1       4.724  -1.079  -0.568  0.00  0.00    +0.069 A 
ATOM      6  C   UNL     1       3.457  -1.579  -0.826  0.00  0.00    +0.055 A 
ENDROOT
BRANCH   1   7
ATOM      7  S   UNL     1       1.095  -1.694  -2.187  0.00  0.00    +0.058 S 
ATOM      8  O   UNL     1       1.073  -3.019  -1.673  0.00  0.00    -0.153 OA
ATOM      9  O   UNL     1       0.812  -1.401  -3.548  0.00  0.00    -0.153 OA
BRANCH   7  11
ATOM     10  C   UNL     1      -0.169   0.610  -1.550  0.00  0.00    +0.127 C 
ATOM     11  N   UNL     1       0.022  -0.817  -1.281  0.00  0.00    -0.193 NA
ATOM     12  H   UNL     1      -0.481  -1.248  -0.572  0.00  0.00    +0.148 HD
ENDBRANCH   7  11
ENDBRANCH   1   7
BRANCH   5  13
ATOM     13  N   UNL     1       5.493  -1.615   0.471  0.00  0.00    -0.355 N 
ATOM     14  H   UNL     1       6.378  -1.261   0.652  0.00  0.00    +0.142 HD
ATOM     15  H   UNL     1       5.140  -2.340   1.011  0.00  0.00    +0.142 HD
ENDBRANCH   5  13
BRANCH   4  16
ATOM     16  O   UNL     1       6.469   0.461  -1.093  0.00  0.00    -0.454 OA
BRANCH  16  17
ATOM     17  C   UNL     1       6.916   1.482  -1.871  0.00  0.00    +0.130 A 
ATOM     18  C   UNL     1       6.671   2.797  -1.501  0.00  0.00    +0.046 A 
ATOM     19  C   UNL     1       7.127   3.833  -2.293  0.00  0.00    +0.005 A 
ATOM     20  C   UNL     1       7.826   3.561  -3.454  0.00  0.00    +0.020 A 
ATOM     21  C   UNL     1       8.072   2.251  -3.826  0.00  0.00    +0.044 A 
ATOM     22  C   UNL     1       7.622   1.211  -3.034  0.00  0.00    +0.066 A 
ATOM     23 CL   UNL     1       8.949   1.913  -5.286  0.00  0.00    -0.083 Cl
ENDBRANCH  16  17
ENDBRANCH   4  16
TORSDOF 5
