REMARK  Name = ZINC25589202
REMARK  9 active torsions:
REMARK  status: ('A' for Active; 'I' for Inactive)
REMARK    1  A    between atoms: C_1  and  C_2
REMARK    2  A    between atoms: C_2  and  C_3
REMARK    3  A    between atoms: C_4  and  C_25
REMARK    4  A    between atoms: C_5  and  N_24
REMARK    5  A    between atoms: C_7  and  S_9
REMARK    6  A    between atoms: S_9  and  C_10
REMARK    7  A    between atoms: C_10  and  C_12
REMARK    8  A    between atoms: C_10  and  C_13
REMARK    9  A    between atoms: N_15  and  C_16
REMARK                            x       y       z     vdW  Elec       q    Type
REMARK                         _______ _______ _______ _____ _____    ______ ____
ROOT
ATOM      1  C   UNL     1      -1.177  -1.986   0.004  0.00  0.00    +0.055 A 
ATOM      2  C   UNL     1       0.025  -2.691  -0.012  0.00  0.00    +0.043 A 
ATOM      3  C   UNL     1       1.227  -1.958  -0.020  0.00  0.00    +0.129 A 
ATOM      4  N   UNL     1       1.169  -0.631  -0.013  0.00  0.00    -0.207 NA
ATOM      5  C   UNL     1       0.002  -0.004   0.002  0.00  0.00    +0.191 A 
ATOM      6  N   UNL     1      -1.148  -0.663   0.015  0.00  0.00    -0.226 NA
ENDROOT
BRANCH   2   7
ATOM      7  C   UNL     1       0.038  -4.173  -0.020  0.00  0.00    -0.013 A 
ATOM      8  C   UNL     1      -0.482  -4.871  -1.109  0.00  0.00    +0.010 A 
ATOM      9  C   UNL     1      -0.463  -6.251  -1.113  0.00  0.00    +0.020 A 
ATOM     10  C   UNL     1       0.061  -6.942  -0.034  0.00  0.00    +0.041 A 
ATOM     11  C   UNL     1       0.573  -6.254   1.052  0.00  0.00    +0.020 A 
ATOM     12  C   UNL     1       0.564  -4.874   1.064  0.00  0.00    +0.010 A 
ATOM     13 CL   UNL     1       0.075  -8.678  -0.043  0.00  0.00    -0.084 Cl
ENDBRANCH   2   7
BRANCH   3  14
ATOM     14  N   UNL     1       2.447  -2.609  -0.035  0.00  0.00    -0.343 N 
ATOM     15  H   UNL     1       3.381  -2.028  -0.041  0.00  0.00    +0.144 HD
ATOM     16  H   UNL     1       2.484  -3.709  -0.042  0.00  0.00    +0.144 HD
ENDBRANCH   3  14
BRANCH   1  18
ATOM     17  C   UNL     1      -2.924  -2.977   1.458  0.00  0.00    +0.010 C 
ATOM     18  C   UNL     1      -2.493  -2.721   0.013  0.00  0.00    +0.053 C 
ENDBRANCH   1  18
BRANCH   5  19
ATOM     19  S   UNL     1      -0.022   1.758   0.012  0.00  0.00    -0.074 S 
BRANCH  19  20
ATOM     20  C   UNL     1       1.756   2.096  -0.004  0.00  0.00    +0.137 C 
ATOM     21  C   UNL     1       2.359   1.600  -1.319  0.00  0.00    +0.029 C 
BRANCH  20  22
ATOM     22  C   UNL     1       1.986   3.580   0.126  0.00  0.00    +0.226 C 
ATOM     23  O   UNL     1       1.094   4.357  -0.141  0.00  0.00    -0.275 OA
ATOM     24  N   UNL     1       3.183   4.043   0.538  0.00  0.00    -0.310 N 
ATOM     25  H   UNL     1       3.992   3.338   0.780  0.00  0.00    +0.149 HD
BRANCH  24  26
ATOM     26  C   UNL     1       3.406   5.485   0.664  0.00  0.00    +0.095 C 
ATOM     27  C   UNL     1       2.902   5.962   2.037  0.00  0.00    +0.046 C 
ATOM     28  C   UNL     1       3.428   7.407   2.271  0.00  0.00    +0.168 C 
ATOM     29  S   UNL     1       5.141   7.253   1.610  0.00  0.00    -0.029 S 
ATOM     30  O   UNL     1       6.019   6.913   2.674  0.00  0.00    -0.174 OA
ATOM     31  O   UNL     1       5.429   8.386   0.801  0.00  0.00    -0.174 OA
ATOM     32  C   UNL     1       4.918   5.785   0.525  0.00  0.00    +0.188 C 
ENDBRANCH  24  26
ENDBRANCH  20  22
ENDBRANCH  19  20
ENDBRANCH   5  19
TORSDOF 7
