REMARK  Name = ZINC63589438
REMARK  12 active torsions:
REMARK  status: ('A' for Active; 'I' for Inactive)
REMARK    1  A    between atoms: C_1  and  C_2
REMARK    2  A    between atoms: C_5  and  C_9
REMARK    3  A    between atoms: C_9  and  N_11
REMARK    4  A    between atoms: C_12  and  N_24
REMARK    5  A    between atoms: N_13  and  C_14
REMARK    6  A    between atoms: C_16  and  O_22
REMARK    7  A    between atoms: C_18  and  O_20
REMARK    8  A    between atoms: O_20  and  C_21
REMARK    9  A    between atoms: O_22  and  C_23
REMARK   10  A    between atoms: N_24  and  C_25
REMARK   11  A    between atoms: C_25  and  C_26
REMARK   12  A    between atoms: C_26  and  C_27
REMARK                            x       y       z     vdW  Elec       q    Type
REMARK                         _______ _______ _______ _____ _____    ______ ____
ROOT
ATOM      1  N   UNL     1      -0.484  -5.250   0.820  0.00  0.00    -0.141 NA
ATOM      2  C   UNL     1       0.450  -6.175   0.977  0.00  0.00    +0.216 C 
ATOM      3  N   UNL     1       0.995  -6.788  -0.115  0.00  0.00    -0.326 N 
ATOM      4  H   UNL     1       1.250  -7.722  -0.070  0.00  0.00    +0.169 HD
ENDROOT
BRANCH   3   5
ATOM      5  C   UNL     1       1.185  -6.067  -1.298  0.00  0.00    +0.049 A 
ATOM      6  C   UNL     1       1.209  -4.679  -1.270  0.00  0.00    +0.071 A 
ATOM      7  C   UNL     1       1.398  -3.966  -2.444  0.00  0.00    +0.126 A 
ATOM      8  C   UNL     1       1.562  -4.638  -3.646  0.00  0.00    +0.091 A 
ATOM      9  C   UNL     1       1.538  -6.024  -3.675  0.00  0.00    +0.126 A 
ATOM     10  C   UNL     1       1.355  -6.739  -2.501  0.00  0.00    +0.071 A 
BRANCH   9  11
ATOM     11  O   UNL     1       1.700  -6.682  -4.853  0.00  0.00    -0.495 OA
ATOM     12  C   UNL     1       1.890  -5.883  -6.022  0.00  0.00    +0.277 C 
ENDBRANCH   9  11
BRANCH   7  13
ATOM     13  O   UNL     1       1.421  -2.607  -2.417  0.00  0.00    -0.495 OA
ATOM     14  C   UNL     1       1.508  -1.935  -3.675  0.00  0.00    +0.277 C 
ENDBRANCH   7  13
ENDBRANCH   3   5
BRANCH   1  15
ATOM     15  C   UNL     1      -1.206  -5.211  -0.308  0.00  0.00    +0.270 C 
ATOM     16  O   UNL     1      -1.095  -6.101  -1.133  0.00  0.00    -0.268 OA
BRANCH  15  21
ATOM     17  C   UNL     1      -4.833  -0.842  -1.263  0.00  0.00    +0.047 C 
ATOM     18  C   UNL     1      -3.884  -1.985  -1.012  0.00  0.00    -0.015 A 
ATOM     19  C   UNL     1      -3.678  -2.937  -1.994  0.00  0.00    +0.007 A 
ATOM     20  C   UNL     1      -2.810  -3.986  -1.771  0.00  0.00    +0.013 A 
ATOM     21  C   UNL     1      -2.138  -4.087  -0.552  0.00  0.00    +0.042 A 
ATOM     22  C   UNL     1      -2.349  -3.125   0.435  0.00  0.00    +0.051 A 
ATOM     23  C   UNL     1      -3.217  -2.075   0.199  0.00  0.00    +0.127 A 
ATOM     24  F   UNL     1      -3.419  -1.139   1.151  0.00  0.00    -0.205 F 
ENDBRANCH  15  21
ENDBRANCH   1  15
BRANCH   2  25
ATOM     25  N   UNL     1       0.868  -6.517   2.230  0.00  0.00    -0.252 NA
BRANCH  25  26
ATOM     26  C   UNL     1       1.982  -7.452   2.401  0.00  0.00    +0.149 C 
BRANCH  26  27
ATOM     27  C   UNL     1       2.176  -7.748   3.889  0.00  0.00    +0.056 C 
BRANCH  27  28
ATOM     28  C   UNL     1       3.395  -8.614   4.074  0.00  0.00    -0.040 C 
ATOM     29  C   UNL     1       4.650  -8.201   4.366  0.00  0.00    -0.001 A 
ATOM     30  C   UNL     1       5.232  -6.872   4.588  0.00  0.00    +0.010 A 
ATOM     31  C   UNL     1       6.552  -6.773   4.868  0.00  0.00    +0.001 A 
ATOM     32  C   UNL     1       7.375  -7.904   4.951  0.00  0.00    +0.002 A 
ATOM     33  C   UNL     1       6.912  -9.158   4.759  0.00  0.00    +0.026 A 
ATOM     34  C   UNL     1       5.540  -9.380   4.460  0.00  0.00    +0.043 A 
ATOM     35  N   UNL     1       4.862 -10.479   4.235  0.00  0.00    -0.380 N 
ATOM     36  C   UNL     1       3.463 -10.122   3.979  0.00  0.00    +0.144 C 
ATOM     37  H   UNL     1       5.225 -11.379   4.241  0.00  0.00    +0.160 HD
ENDBRANCH  27  28
ENDBRANCH  26  27
ENDBRANCH  25  26
ENDBRANCH   2  25
TORSDOF 9
