REMARK  Name = ZINC20765119
REMARK  6 active torsions:
REMARK  status: ('A' for Active; 'I' for Inactive)
REMARK    1  A    between atoms: C_1  and  C_2
REMARK    2  A    between atoms: C_2  and  C_3
REMARK    3  A    between atoms: C_2  and  N_4
REMARK    4  A    between atoms: C_11  and  C_25
REMARK    5  A    between atoms: C_14  and  C_16
REMARK    6  A    between atoms: C_30  and  O_31
REMARK                            x       y       z     vdW  Elec       q    Type
REMARK                         _______ _______ _______ _____ _____    ______ ____
ROOT
ATOM      1  N   UNL     1       0.690  -0.478  -1.207  0.00  0.00    +0.381 N 
ATOM      2  C   UNL     1       2.063   0.039  -1.220  0.00  0.00    -0.075 C 
ATOM      3  C   UNL     1       2.760  -0.386  -2.515  0.00  0.00    +0.027 C 
ATOM      4  C   UNL     1       2.790  -1.916  -2.592  0.00  0.00    +0.109 C 
ATOM      5  C   UNL     1       1.354  -2.445  -2.507  0.00  0.00    +0.027 C 
ATOM      6  C   UNL     1       0.709  -1.945  -1.213  0.00  0.00    -0.075 C 
ATOM      7  N   UNL     1       3.381  -2.325  -3.873  0.00  0.00    -0.286 NA
ATOM      8  C   UNL     1       3.595  -3.782  -3.892  0.00  0.00    +0.095 C 
ATOM      9  C   UNL     1       4.690  -4.118  -2.875  0.00  0.00    +0.079 C 
ATOM     10  C   UNL     1       4.404  -3.411  -1.579  0.00  0.00    +0.047 C 
ATOM     11  N   UNL     1       3.570  -2.445  -1.478  0.00  0.00    -0.266 NA
ATOM     12  H   UNL     1       2.802  -2.034  -4.647  0.00  0.00    +0.125 HD
ATOM     13  H   UNL     1       0.199  -0.145  -2.023  0.00  0.00    -0.081 HD
ENDROOT
BRANCH  10  14
ATOM     14  C   UNL     1       5.117  -3.852  -0.367  0.00  0.00    -0.000 A 
ATOM     15  C   UNL     1       6.039  -4.900  -0.439  0.00  0.00    +0.013 A 
ATOM     16  C   UNL     1       6.705  -5.311   0.696  0.00  0.00    +0.050 A 
ATOM     17  C   UNL     1       6.463  -4.687   1.912  0.00  0.00    +0.166 A 
ATOM     18  C   UNL     1       5.544  -3.640   1.991  0.00  0.00    +0.167 A 
ATOM     19  C   UNL     1       4.878  -3.220   0.856  0.00  0.00    +0.059 A 
ATOM     20  O   UNL     1       5.491  -3.204   3.283  0.00  0.00    -0.453 OA
ATOM     21  C   UNL     1       6.078  -4.258   4.069  0.00  0.00    +0.466 C 
ATOM     22  O   UNL     1       6.984  -4.903   3.155  0.00  0.00    -0.453 OA
ENDBRANCH  10  14
BRANCH   8  23
ATOM     23  C   UNL     1       4.028  -4.214  -5.269  0.00  0.00    +0.012 A 
ATOM     24  C   UNL     1       4.660  -3.317  -6.109  0.00  0.00    +0.024 A 
ATOM     25  C   UNL     1       5.059  -3.713  -7.373  0.00  0.00    +0.018 A 
ATOM     26  C   UNL     1       4.825  -5.008  -7.799  0.00  0.00    +0.019 A 
ATOM     27  C   UNL     1       4.194  -5.909  -6.963  0.00  0.00    +0.047 A 
ATOM     28  C   UNL     1       3.798  -5.515  -5.693  0.00  0.00    +0.122 A 
ATOM     29 BR   UNL     1       5.923  -2.482  -8.519  0.00  0.00    -0.050 Br
BRANCH  28  30
ATOM     30  O   UNL     1       3.182  -6.401  -4.867  0.00  0.00    -0.506 OA
ATOM     31  H   UNL     1       2.218  -6.412  -4.952  0.00  0.00    +0.292 HD
ENDBRANCH  28  30
ENDBRANCH   8  23
BRANCH   1  33
ATOM     32  C   UNL     1      -0.019   1.526   0.010  0.00  0.00    -0.014 C 
ATOM     33  C   UNL     1       0.002  -0.004   0.002  0.00  0.00    -0.075 C 
ATOM     34  C   UNL     1      -1.433  -0.534   0.013  0.00  0.00    -0.014 C 
ENDBRANCH   1  33
TORSDOF 4
