REMARK  Name = ZINC67062414
REMARK  6 active torsions:
REMARK  status: ('A' for Active; 'I' for Inactive)
REMARK    1  A    between atoms: C_1  and  C_2
REMARK    2  A    between atoms: C_2  and  C_3
REMARK    3  A    between atoms: C_3  and  C_5
REMARK    4  A    between atoms: C_3  and  N_15
REMARK    5  A    between atoms: N_18  and  C_19
REMARK    6  A    between atoms: C_19  and  C_20
REMARK                            x       y       z     vdW  Elec       q    Type
REMARK                         _______ _______ _______ _____ _____    ______ ____
ROOT
ATOM      1  N   UNL     1      -0.098  -0.087  -2.402  0.00  0.00    -0.290 N 
ATOM      2  C   UNL     1       0.084   1.125  -2.963  0.00  0.00    +0.300 C 
ATOM      3  O   UNL     1       0.886   1.903  -2.483  0.00  0.00    -0.253 OA
ATOM      4  N   UNL     1      -0.624   1.475  -4.055  0.00  0.00    -0.295 N 
ATOM      5  H   UNL     1      -0.737  -0.708  -2.784  0.00  0.00    +0.151 HD
ATOM      6  H   UNL     1      -1.264   0.855  -4.437  0.00  0.00    +0.151 HD
ENDROOT
BRANCH   1   7
ATOM      7  C   UNL     1       0.672  -0.467  -1.215  0.00  0.00    +0.140 C 
BRANCH   7   8
ATOM      8  C   UNL     1       0.776  -1.969  -1.143  0.00  0.00    +0.129 A 
ATOM      9  N   UNL     1       0.325  -2.828  -2.097  0.00  0.00    -0.340 N 
ATOM     10  H   UNL     1      -0.113  -2.585  -2.928  0.00  0.00    +0.167 HD
ATOM     11  C   UNL     1       0.605  -4.108  -1.663  0.00  0.00    +0.066 A 
ATOM     12  C   UNL     1       0.392  -5.375  -2.188  0.00  0.00    +0.028 A 
ATOM     13  C   UNL     1       0.804  -6.485  -1.481  0.00  0.00    +0.002 A 
ATOM     14  C   UNL     1       1.430  -6.343  -0.251  0.00  0.00    +0.002 A 
ATOM     15  C   UNL     1       1.647  -5.104   0.282  0.00  0.00    +0.030 A 
ATOM     16  C   UNL     1       1.238  -3.965  -0.417  0.00  0.00    +0.089 A 
ATOM     17  N   UNL     1       1.315  -2.633  -0.163  0.00  0.00    -0.231 NA
ENDBRANCH   7   8
BRANCH   7  19
ATOM     18  C   UNL     1      -0.028   1.585   0.026  0.00  0.00    +0.006 C 
ATOM     19  C   UNL     1      -0.033   0.056   0.039  0.00  0.00    +0.027 C 
ENDBRANCH   7  19
ENDBRANCH   1   7
BRANCH   4  20
ATOM     20  C   UNL     1      -0.427   2.793  -4.664  0.00  0.00    +0.142 C 
BRANCH  20  21
ATOM     21  C   UNL     1      -1.332   2.933  -5.862  0.00  0.00    -0.014 A 
ATOM     22  C   UNL     1      -0.896   2.539  -7.120  0.00  0.00    +0.010 A 
ATOM     23  C   UNL     1      -1.757   2.684  -8.192  0.00  0.00    +0.042 A 
ATOM     24  C   UNL     1      -3.024   3.217  -7.975  0.00  0.00    +0.099 A 
ATOM     25  N   UNL     1      -3.403   3.580  -6.760  0.00  0.00    -0.349 N 
ATOM     26  C   UNL     1      -2.604   3.448  -5.718  0.00  0.00    +0.089 A 
ATOM     27  N   UNL     1      -3.900   3.369  -9.044  0.00  0.00    -0.317 N 
ATOM     28  C   UNL     1      -5.285   3.805  -8.821  0.00  0.00    +0.106 C 
ATOM     29  C   UNL     1      -5.567   5.023  -9.706  0.00  0.00    +0.019 C 
ATOM     30  C   UNL     1      -5.244   4.676 -11.161  0.00  0.00    +0.003 C 
ATOM     31  C   UNL     1      -3.760   4.322 -11.286  0.00  0.00    +0.019 C 
ATOM     32  C   UNL     1      -3.456   3.102 -10.419  0.00  0.00    +0.106 C 
ATOM     33  H   UNL     1      -4.291   3.949  -6.632  0.00  0.00    +0.167 HD
ENDBRANCH  20  21
ENDBRANCH   4  20
TORSDOF 5
