REMARK  Name = ZINC63530459
REMARK  7 active torsions:
REMARK  status: ('A' for Active; 'I' for Inactive)
REMARK    1  A    between atoms: C_1  and  N_2
REMARK    2  A    between atoms: N_5  and  C_8
REMARK    3  A    between atoms: C_8  and  C_9
REMARK    4  A    between atoms: C_9  and  N_10
REMARK    5  A    between atoms: C_11  and  C_13
REMARK    6  A    between atoms: C_15  and  S_23
REMARK    7  A    between atoms: S_23  and  C_24
REMARK                            x       y       z     vdW  Elec       q    Type
REMARK                         _______ _______ _______ _____ _____    ______ ____
ROOT
ATOM      1  C   UNL     1       0.225  -7.565   3.489  0.00  0.00    +0.204 C 
ATOM      2  C   UNL     1       1.394  -8.369   2.964  0.00  0.00    +0.030 C 
ATOM      3  C   UNL     1       1.913  -9.041   4.066  0.00  0.00    +0.010 A 
ATOM      4  C   UNL     1       2.995  -9.936   4.213  0.00  0.00    +0.011 A 
ATOM      5  C   UNL     1       3.281 -10.452   5.436  0.00  0.00    +0.001 A 
ATOM      6  C   UNL     1       2.528 -10.120   6.563  0.00  0.00    +0.002 A 
ATOM      7  C   UNL     1       1.475  -9.268   6.494  0.00  0.00    +0.026 A 
ATOM      8  C   UNL     1       1.117  -8.688   5.251  0.00  0.00    +0.044 A 
ATOM      9  N   UNL     1       0.151  -7.846   4.926  0.00  0.00    -0.369 N 
ATOM     10  H   UNL     1      -0.502  -7.473   5.539  0.00  0.00    +0.161 HD
ENDROOT
BRANCH   1  12
ATOM     11  N   UNL     1       0.214  -5.552   2.050  0.00  0.00    -0.312 N 
ATOM     12  C   UNL     1       0.462  -6.094   3.259  0.00  0.00    +0.241 C 
ATOM     13  O   UNL     1       0.875  -5.398   4.162  0.00  0.00    -0.273 OA
ATOM     14  H   UNL     1      -0.117  -6.109   1.328  0.00  0.00    +0.149 HD
BRANCH  11  15
ATOM     15  C   UNL     1       0.445  -4.123   1.827  0.00  0.00    +0.119 C 
BRANCH  15  16
ATOM     16  C   UNL     1       0.088  -3.768   0.383  0.00  0.00    +0.103 C 
BRANCH  16  21
ATOM     17  C   UNL     1       1.611   1.350  -1.416  0.00  0.00    -0.096 C 
ATOM     18  N   UNL     1       1.411  -0.094  -1.237  0.00  0.00    +0.379 N 
ATOM     19  C   UNL     1      -0.024  -0.401  -1.303  0.00  0.00    -0.064 C 
ATOM     20  C   UNL     1      -0.232  -1.908  -1.135  0.00  0.00    +0.066 C 
ATOM     21  N   UNL     1       0.319  -2.334   0.159  0.00  0.00    -0.304 NA
ATOM     22  C   UNL     1       1.750  -2.011   0.250  0.00  0.00    +0.066 C 
ATOM     23  C   UNL     1       1.941  -0.503   0.071  0.00  0.00    -0.064 C 
ATOM     24  H   UNL     1       1.895  -0.594  -1.967  0.00  0.00    -0.082 HD
ENDBRANCH  16  21
ENDBRANCH  15  16
ENDBRANCH  11  15
ENDBRANCH   1  12
BRANCH   2  25
ATOM     25  S   UNL     1       1.942  -8.436   1.399  0.00  0.00    -0.091 S 
BRANCH  25  26
ATOM     26  C   UNL     1       0.650  -9.259   0.529  0.00  0.00    +0.013 A 
ATOM     27  C   UNL     1      -0.430  -9.789   1.225  0.00  0.00    +0.016 A 
ATOM     28  C   UNL     1      -1.441 -10.434   0.541  0.00  0.00    +0.021 A 
ATOM     29  C   UNL     1      -1.380 -10.553  -0.837  0.00  0.00    +0.041 A 
ATOM     30  C   UNL     1      -0.306 -10.027  -1.533  0.00  0.00    +0.021 A 
ATOM     31  C   UNL     1       0.705  -9.375  -0.855  0.00  0.00    +0.016 A 
ATOM     32 CL   UNL     1      -2.653 -11.366  -1.693  0.00  0.00    -0.084 Cl
ENDBRANCH  25  26
ENDBRANCH   2  25
TORSDOF 6
