REMARK  Name = ZINC39869846
REMARK  6 active torsions:
REMARK  status: ('A' for Active; 'I' for Inactive)
REMARK    1  A    between atoms: C_4  and  N_10
REMARK    2  A    between atoms: C_5  and  C_7
REMARK    3  A    between atoms: N_10  and  C_11
REMARK    4  A    between atoms: C_16  and  C_17
REMARK    5  A    between atoms: C_20  and  C_22
REMARK    6  A    between atoms: C_26  and  N_28
REMARK                            x       y       z     vdW  Elec       q    Type
REMARK                         _______ _______ _______ _____ _____    ______ ____
ROOT
ATOM      1  C   UNL     1       4.800   0.086  -0.149  0.00  0.00    +0.175 C 
ATOM      2  N   UNL     1       4.957   1.400  -0.154  0.00  0.00    -0.152 NA
ATOM      3  C   UNL     1       6.165   1.912  -0.271  0.00  0.00    +0.276 C 
ATOM      4  O   UNL     1       6.359   3.113  -0.280  0.00  0.00    -0.267 OA
ATOM      5  C   UNL     1       7.283   0.923  -0.391  0.00  0.00    +0.082 C 
ATOM      6  C   UNL     1       8.655   1.157  -0.527  0.00  0.00    +0.066 C 
ATOM      7  S   UNL     1       6.459  -0.542  -0.314  0.00  0.00    -0.050 S 
ENDROOT
BRANCH   6   8
ATOM      8  C   UNL     1       9.138   2.460  -0.565  0.00  0.00    +0.130 A 
ATOM      9  C   UNL     1      10.543   2.864  -0.708  0.00  0.00    +0.050 A 
ATOM     10  C   UNL     1      10.553   4.222  -0.696  0.00  0.00    +0.050 A 
ATOM     11  C   UNL     1       9.214   4.657  -0.551  0.00  0.00    +0.136 A 
ATOM     12  O   UNL     1       8.401   3.589  -0.482  0.00  0.00    -0.455 OA
BRANCH  11  13
ATOM     13  C   UNL     1       8.794   6.010  -0.493  0.00  0.00    +0.019 A 
ATOM     14  C   UNL     1       9.738   7.051  -0.588  0.00  0.00    +0.012 A 
ATOM     15  C   UNL     1       9.323   8.350  -0.531  0.00  0.00    +0.003 A 
ATOM     16  C   UNL     1       7.976   8.648  -0.381  0.00  0.00    +0.033 A 
ATOM     17  C   UNL     1       7.037   7.631  -0.287  0.00  0.00    +0.127 A 
ATOM     18  C   UNL     1       7.429   6.324  -0.347  0.00  0.00    +0.044 A 
BRANCH  17  19
ATOM     19  N   UNL     1       5.603   7.964  -0.127  0.00  0.00    +0.056 N 
ATOM     20  O   UNL     1       5.221   9.223  -0.074  0.00  0.00    -0.126 OA
ATOM     21  O   UNL     1       4.710   7.001  -0.038  0.00  0.00    -0.126 OA
ENDBRANCH  17  19
ENDBRANCH  11  13
ENDBRANCH   6   8
BRANCH   1  22
ATOM     22  N   UNL     1       3.641  -0.620  -0.038  0.00  0.00    -0.191 NA
BRANCH  22  26
ATOM     23  C   UNL     1      -0.026   1.340  -0.300  0.00  0.00    +0.001 A 
ATOM     24  C   UNL     1       1.104   1.892  -0.882  0.00  0.00    +0.002 A 
ATOM     25  C   UNL     1       2.320   1.246  -0.797  0.00  0.00    +0.026 A 
ATOM     26  C   UNL     1       2.418   0.033  -0.125  0.00  0.00    +0.068 A 
ATOM     27  C   UNL     1       1.275  -0.528   0.466  0.00  0.00    +0.059 A 
ATOM     28  C   UNL     1       0.052   0.138   0.371  0.00  0.00    +0.015 A 
BRANCH  27  29
ATOM     29  C   UNL     1       1.366  -1.815   1.182  0.00  0.00    +0.243 C 
ATOM     30  O   UNL     1       2.433  -2.393   1.262  0.00  0.00    -0.270 OA
ATOM     31  N   UNL     1       0.266  -2.350   1.748  0.00  0.00    -0.325 N 
ATOM     32  H   UNL     1      -0.586  -1.889   1.684  0.00  0.00    +0.145 HD
ATOM     33  H   UNL     1       0.325  -3.196   2.219  0.00  0.00    +0.145 HD
ENDBRANCH  27  29
ENDBRANCH  22  26
ENDBRANCH   1  22
TORSDOF 6
