REMARK  Name = ZINC63505607
REMARK  7 active torsions:
REMARK  status: ('A' for Active; 'I' for Inactive)
REMARK    1  A    between atoms: C_1  and  C_2
REMARK    2  A    between atoms: C_2  and  O_3
REMARK    3  A    between atoms: O_3  and  C_4
REMARK    4  A    between atoms: C_4  and  C_6
REMARK    5  A    between atoms: C_15  and  N_17
REMARK    6  A    between atoms: N_20  and  N_21
REMARK    7  A    between atoms: C_22  and  C_24
REMARK                            x       y       z     vdW  Elec       q    Type
REMARK                         _______ _______ _______ _____ _____    ______ ____
ROOT
ATOM      1  N   UNL     1      -3.945  -0.473   1.048  0.00  0.00    -0.282 N 
ATOM      2  C   UNL     1      -4.274   0.799   0.747  0.00  0.00    +0.317 C 
ATOM      3  O   UNL     1      -4.677   1.076  -0.367  0.00  0.00    -0.251 OA
ATOM      4  N   UNL     1      -4.158   1.764   1.680  0.00  0.00    -0.218 N 
ATOM      5  H   UNL     1      -3.624  -0.693   1.936  0.00  0.00    +0.152 HD
ATOM      6  H   UNL     1      -4.394   2.680   1.464  0.00  0.00    +0.174 HD
ENDROOT
BRANCH   1  15
ATOM      7  C   UNL     1      -2.847  -2.417   0.016  0.00  0.00    +0.067 C 
ATOM      8  C   UNL     1      -3.014  -3.716   0.016  0.00  0.00    -0.044 C 
ATOM      9  C   UNL     1      -1.893  -4.750   0.119  0.00  0.00    +0.032 C 
ATOM     10  C   UNL     1      -2.522  -6.106  -0.216  0.00  0.00    +0.004 C 
ATOM     11  C   UNL     1      -3.635  -6.472   0.754  0.00  0.00    +0.002 C 
ATOM     12  C   UNL     1      -4.528  -5.287   1.111  0.00  0.00    +0.018 C 
ATOM     13  C   UNL     1      -4.458  -4.241  -0.003  0.00  0.00    +0.075 C 
ATOM     14  S   UNL     1      -5.387  -2.733   0.488  0.00  0.00    -0.126 S 
ATOM     15  C   UNL     1      -4.072  -1.522   0.033  0.00  0.00    +0.170 C 
BRANCH   7  16
ATOM     16  C   UNL     1      -1.497  -1.837   0.006  0.00  0.00    +0.338 C 
ATOM     17  O   UNL     1      -0.523  -2.564  -0.007  0.00  0.00    -0.245 OA
BRANCH  16  18
ATOM     18  O   UNL     1      -1.339  -0.499   0.012  0.00  0.00    -0.462 OA
BRANCH  18  20
ATOM     19  C   UNL     1      -0.019   1.526   0.010  0.00  0.00    +0.048 C 
ATOM     20  C   UNL     1       0.002  -0.004   0.002  0.00  0.00    +0.229 C 
ENDBRANCH  18  20
ENDBRANCH  16  18
ENDBRANCH   7  16
ENDBRANCH   1  15
BRANCH   4  21
ATOM     21  N   UNL     1      -3.694   1.446   2.963  0.00  0.00    -0.231 N 
ATOM     22  C   UNL     1      -3.578   2.411   3.897  0.00  0.00    +0.258 C 
ATOM     23  O   UNL     1      -3.874   3.555   3.626  0.00  0.00    -0.272 OA
ATOM     24  H   UNL     1      -3.457   0.530   3.180  0.00  0.00    +0.173 HD
BRANCH  22  25
ATOM     25  C   UNL     1      -3.079   2.068   5.277  0.00  0.00    +0.217 C 
ATOM     26  C   UNL     1      -4.204   1.496   6.111  0.00  0.00    +0.026 C 
ATOM     27  C   UNL     1      -4.351   2.316   7.139  0.00  0.00    +0.036 A 
ATOM     28  C   UNL     1      -3.382   3.436   7.065  0.00  0.00    +0.074 A 
ATOM     29  N   UNL     1      -2.642   3.281   5.972  0.00  0.00    -0.266 NA
ATOM     30  C   UNL     1      -3.500   4.371   8.175  0.00  0.00    +0.035 A 
ATOM     31  C   UNL     1      -4.421   4.162   9.124  0.00  0.00    +0.048 A 
ATOM     32  S   UNL     1      -5.249   2.663   8.632  0.00  0.00    -0.095 S 
ENDBRANCH  22  25
ENDBRANCH   4  21
TORSDOF 6
