REMARK  Name = ZINC66929748
REMARK  6 active torsions:
REMARK  status: ('A' for Active; 'I' for Inactive)
REMARK    1  A    between atoms: C_1  and  C_2
REMARK    2  A    between atoms: C_3  and  N_22
REMARK    3  A    between atoms: C_5  and  C_7
REMARK    4  A    between atoms: N_9  and  C_10
REMARK    5  A    between atoms: C_10  and  C_11
REMARK    6  A    between atoms: C_11  and  O_21
REMARK                            x       y       z     vdW  Elec       q    Type
REMARK                         _______ _______ _______ _____ _____    ______ ____
ROOT
ATOM      1  C   UNL     1       1.231  -6.311  -1.506  0.00  0.00    +0.251 C 
ATOM      2  O   UNL     1       0.410  -5.954  -0.681  0.00  0.00    -0.270 OA
ATOM      3  N   UNL     1       2.544  -6.108  -1.281  0.00  0.00    -0.308 N 
ATOM      4  H   UNL     1       3.199  -6.392  -1.939  0.00  0.00    +0.149 HD
ENDROOT
BRANCH   1   9
ATOM      5  C   UNL     1       0.659  -8.820  -6.428  0.00  0.00    +0.054 C 
ATOM      6  C   UNL     1       0.537  -8.152  -5.082  0.00  0.00    +0.018 A 
ATOM      7  C   UNL     1      -0.595  -7.882  -4.386  0.00  0.00    +0.137 A 
ATOM      8  C   UNL     1      -0.496  -7.262  -3.164  0.00  0.00    +0.053 A 
ATOM      9  C   UNL     1       0.791  -6.962  -2.743  0.00  0.00    +0.076 A 
ATOM     10  S   UNL     1       1.772  -7.581  -4.098  0.00  0.00    -0.087 S 
BRANCH   7  11
ATOM     11  N   UNL     1      -1.920  -8.248  -4.936  0.00  0.00    +0.057 N 
ATOM     12  O   UNL     1      -2.924  -8.003  -4.308  0.00  0.00    -0.126 OA
ATOM     13  O   UNL     1      -1.998  -8.793  -6.012  0.00  0.00    -0.126 OA
ENDBRANCH   7  11
ENDBRANCH   1   9
BRANCH   3  14
ATOM     14  C   UNL     1       2.984  -5.457  -0.044  0.00  0.00    +0.144 C 
BRANCH  14  15
ATOM     15  C   UNL     1       4.512  -5.467   0.022  0.00  0.00    +0.107 C 
ATOM     16  C   UNL     1       5.011  -6.907  -0.079  0.00  0.00    +0.041 C 
ATOM     17  C   UNL     1       6.518  -6.918   0.207  0.00  0.00    +0.008 C 
ATOM     18  C   UNL     1       6.729  -6.609   1.688  0.00  0.00    +0.035 C 
ATOM     19  C   UNL     1       5.978  -5.364   2.081  0.00  0.00    -0.041 A 
ATOM     20  C   UNL     1       4.958  -4.842   1.318  0.00  0.00    -0.011 A 
ATOM     21  C   UNL     1       4.301  -3.693   1.740  0.00  0.00    +0.007 A 
ATOM     22  C   UNL     1       4.665  -3.070   2.916  0.00  0.00    +0.000 A 
ATOM     23  C   UNL     1       5.692  -3.592   3.680  0.00  0.00    +0.000 A 
ATOM     24  C   UNL     1       6.344  -4.734   3.263  0.00  0.00    +0.004 A 
BRANCH  15  25
ATOM     25  O   UNL     1       5.036  -4.711  -1.071  0.00  0.00    -0.382 OA
ATOM     26  H   UNL     1       4.755  -3.785  -1.080  0.00  0.00    +0.211 HD
ENDBRANCH  15  25
ENDBRANCH  14  15
ENDBRANCH   3  14
TORSDOF 5
