REMARK  Name = ZINC01921465
REMARK  6 active torsions:
REMARK  status: ('A' for Active; 'I' for Inactive)
REMARK    1  A    between atoms: C_1  and  N_37
REMARK    2  A    between atoms: C_4  and  C_7
REMARK    3  A    between atoms: C_4  and  O_20
REMARK    4  A    between atoms: C_8  and  C_9
REMARK    5  A    between atoms: C_9  and  O_10
REMARK    6  A    between atoms: O_10  and  C_11
REMARK                            x       y       z     vdW  Elec       q    Type
REMARK                         _______ _______ _______ _____ _____    ______ ____
ROOT
ATOM      1  C   UNL     1      -5.285   5.409  -0.847  0.00  0.00    -0.064 C 
ATOM      2  C   UNL     1      -4.271   4.840  -1.013  0.00  0.00    -0.059 C 
ENDROOT
BRANCH   1   6
ATOM      3  C   UNL     1      -8.844   3.174  -2.725  0.00  0.00    -0.096 C 
ATOM      4  C   UNL     1      -7.486   5.178  -2.755  0.00  0.00    -0.075 C 
ATOM      5  C   UNL     1      -7.176   6.469  -1.995  0.00  0.00    +0.029 C 
ATOM      6  C   UNL     1      -6.556   6.122  -0.639  0.00  0.00    +0.123 C 
ATOM      7  C   UNL     1      -7.523   5.227   0.141  0.00  0.00    +0.029 C 
ATOM      8  C   UNL     1      -7.823   3.971  -0.680  0.00  0.00    -0.075 C 
ATOM      9  N   UNL     1      -8.440   4.373  -1.962  0.00  0.00    +0.378 N 
ATOM     10  H   UNL     1      -9.273   4.940  -1.767  0.00  0.00    -0.082 HD
BRANCH   6  11
ATOM     11  O   UNL     1      -6.314   7.322   0.098  0.00  0.00    -0.377 OA
ATOM     12  H   UNL     1      -5.923   7.177   0.970  0.00  0.00    +0.211 HD
ENDBRANCH   6  11
ENDBRANCH   1   6
BRANCH   2  13
ATOM     13  C   UNL     1      -3.001   4.127  -1.222  0.00  0.00    +0.317 C 
BRANCH  13  14
ATOM     14  O   UNL     1      -2.423   3.803   0.045  0.00  0.00    -0.477 OA
BRANCH  14  15
ATOM     15  C   UNL     1      -1.237   3.138   0.030  0.00  0.00    +0.150 A 
ATOM     16  C   UNL     1      -1.219   1.750   0.017  0.00  0.00    +0.062 A 
ATOM     17  C   UNL     1      -0.013   1.076   0.008  0.00  0.00    +0.034 A 
ATOM     18  C   UNL     1       1.176   1.783   0.000  0.00  0.00    +0.020 A 
ATOM     19  C   UNL     1       1.161   3.167   0.008  0.00  0.00    +0.034 A 
ATOM     20  C   UNL     1      -0.044   3.845   0.023  0.00  0.00    +0.062 A 
ATOM     21 BR   UNL     1      -0.064   5.736   0.033  0.00  0.00    -0.046 Br
ATOM     22 BR   UNL     1       2.825   0.858  -0.021  0.00  0.00    -0.050 Br
ATOM     23 BR   UNL     1      -2.844   0.782   0.020  0.00  0.00    -0.046 Br
ENDBRANCH  14  15
ENDBRANCH  13  14
ENDBRANCH   2  13
TORSDOF 5
