REMARK  Name = ZINC63194294
REMARK  5 active torsions:
REMARK  status: ('A' for Active; 'I' for Inactive)
REMARK    1  A    between atoms: C_1  and  C_2
REMARK    2  A    between atoms: C_2  and  C_4
REMARK    3  A    between atoms: C_2  and  N_21
REMARK    4  A    between atoms: N_10  and  S_11
REMARK    5  A    between atoms: S_11  and  C_14
REMARK                            x       y       z     vdW  Elec       q    Type
REMARK                         _______ _______ _______ _____ _____    ______ ____
ROOT
ATOM      1  C   UNL     1       0.136   1.317   2.190  0.00  0.00    +0.065 C 
ATOM      2  C   UNL     1       0.478  -0.154   2.448  0.00  0.00    +0.019 C 
ATOM      3  C   UNL     1      -0.170  -0.601   3.760  0.00  0.00    +0.003 C 
ATOM      4  C   UNL     1      -1.691  -0.472   3.650  0.00  0.00    +0.017 C 
ATOM      5  C   UNL     1      -2.058   0.995   3.405  0.00  0.00    +0.110 C 
ATOM      6  N   UNL     1      -1.324   1.479   2.227  0.00  0.00    -0.175 NA
ENDROOT
BRANCH   6   7
ATOM      7  S   UNL     1      -2.127   2.190   0.965  0.00  0.00    +0.063 S 
ATOM      8  O   UNL     1      -1.396   1.871  -0.211  0.00  0.00    -0.153 OA
ATOM      9  O   UNL     1      -3.500   1.862   1.121  0.00  0.00    -0.153 OA
BRANCH   7  10
ATOM     10  C   UNL     1      -1.997   3.934   1.181  0.00  0.00    +0.132 A 
ATOM     11  C   UNL     1      -1.437   4.724   0.193  0.00  0.00    +0.057 A 
ATOM     12  C   UNL     1      -1.353   6.063   0.392  0.00  0.00    +0.081 A 
ATOM     13  S   UNL     1      -2.079   6.242   2.013  0.00  0.00    -0.063 S 
ATOM     14  C   UNL     1      -2.450   4.523   2.316  0.00  0.00    +0.106 A 
ATOM     15 CL   UNL     1      -3.196   3.793   3.703  0.00  0.00    -0.074 Cl
ATOM     16 CL   UNL     1      -0.707   7.285  -0.658  0.00  0.00    -0.076 Cl
ENDBRANCH   7  10
ENDBRANCH   6   7
BRANCH   1  18
ATOM     17  C   UNL     1       2.178   1.935   0.889  0.00  0.00    -0.013 C 
ATOM     18  C   UNL     1       0.663   1.732   0.815  0.00  0.00    -0.059 C 
BRANCH  18  19
ATOM     19  N   UNL     1       0.357   0.681  -0.165  0.00  0.00    +0.381 N 
ATOM     20  H   UNL     1       1.168   0.094  -0.292  0.00  0.00    -0.090 HD
ATOM     21  H   UNL     1      -0.413   0.123   0.171  0.00  0.00    -0.090 HD
ATOM     22  H   UNL     1       0.107   1.105  -1.046  0.00  0.00    -0.090 HD
ENDBRANCH  18  19
ENDBRANCH   1  18
TORSDOF 4
