REMARK  Name = ZINC36221474
REMARK  5 active torsions:
REMARK  status: ('A' for Active; 'I' for Inactive)
REMARK    1  A    between atoms: C_1  and  C_2
REMARK    2  A    between atoms: C_6  and  N_9
REMARK    3  A    between atoms: C_7  and  C_8
REMARK    4  A    between atoms: C_18  and  N_21
REMARK    5  A    between atoms: N_21  and  N_22
REMARK                            x       y       z     vdW  Elec       q    Type
REMARK                         _______ _______ _______ _____ _____    ______ ____
ROOT
ATOM      1  N   UNL     1       0.276  -2.811   2.379  0.00  0.00    -0.327 N 
ATOM      2  C   UNL     1      -0.962  -3.007   3.147  0.00  0.00    +0.124 C 
ATOM      3  C   UNL     1      -1.159  -4.509   3.384  0.00  0.00    +0.125 C 
ATOM      4  N   UNL     1       0.094  -5.071   3.905  0.00  0.00    -0.312 N 
ATOM      5  C   UNL     1       1.332  -4.876   3.137  0.00  0.00    +0.125 C 
ATOM      6  C   UNL     1       1.529  -3.378   2.897  0.00  0.00    +0.124 C 
ATOM      7  C   UNL     1       0.110  -5.777   5.106  0.00  0.00    +0.121 A 
ATOM      8  C   UNL     1      -1.092  -6.146   5.702  0.00  0.00    +0.045 A 
ATOM      9  C   UNL     1      -1.066  -6.846   6.894  0.00  0.00    +0.029 A 
ATOM     10  C   UNL     1       0.172  -7.157   7.455  0.00  0.00    +0.059 A 
ATOM     11  C   UNL     1       1.329  -6.756   6.804  0.00  0.00    +0.137 A 
ATOM     12  N   UNL     1       1.267  -6.093   5.665  0.00  0.00    -0.238 NA
ENDROOT
BRANCH   1  18
ATOM     13  C   UNL     1       0.677   1.456  -0.026  0.00  0.00    +0.044 C 
ATOM     14  C   UNL     1       0.452  -0.034  -0.021  0.00  0.00    -0.046 A 
ATOM     15  C   UNL     1       0.230  -0.703  -1.211  0.00  0.00    +0.004 A 
ATOM     16  C   UNL     1       0.023  -2.070  -1.212  0.00  0.00    +0.002 A 
ATOM     17  C   UNL     1       0.038  -2.772  -0.022  0.00  0.00    +0.023 A 
ATOM     18  C   UNL     1       0.261  -2.104   1.175  0.00  0.00    +0.033 A 
ATOM     19  C   UNL     1       0.473  -0.731   1.171  0.00  0.00    -0.027 A 
ATOM     20  C   UNL     1       0.721  -0.002   2.466  0.00  0.00    +0.046 C 
ENDBRANCH   1  18
BRANCH  10  21
ATOM     21  N   UNL     1       0.247  -7.864   8.661  0.00  0.00    -0.282 N 
ATOM     22  H   UNL     1      -0.566  -8.141   9.112  0.00  0.00    +0.166 HD
BRANCH  21  23
ATOM     23  N   UNL     1       1.464  -8.164   9.203  0.00  0.00    -0.256 NA
ATOM     24  H   UNL     1       1.359  -8.674  10.068  0.00  0.00    +0.140 HD
ATOM     25  H   UNL     1       2.035  -8.677   8.548  0.00  0.00    +0.140 HD
ENDBRANCH  21  23
ENDBRANCH  10  21
TORSDOF 3
