REMARK  Name = ZINC13138502
REMARK  11 active torsions:
REMARK  status: ('A' for Active; 'I' for Inactive)
REMARK    1  A    between atoms: C_1  and  C_2
REMARK    2  A    between atoms: C_2  and  C_3
REMARK    3  A    between atoms: C_4  and  C_29
REMARK    4  A    between atoms: N_14  and  C_15
REMARK    5  A    between atoms: N_19  and  C_27
REMARK    6  A    between atoms: N_22  and  C_25
REMARK    7  A    between atoms: C_25  and  C_26
REMARK    8  A    between atoms: C_27  and  C_28
REMARK    9  A    between atoms: C_29  and  O_31
REMARK   10  A    between atoms: O_31  and  C_32
REMARK   11  A    between atoms: C_32  and  C_33
REMARK                            x       y       z     vdW  Elec       q    Type
REMARK                         _______ _______ _______ _____ _____    ______ ____
ROOT
ATOM      1  C   UNL     1      -2.245   1.217   0.000  0.00  0.00    +0.025 C 
ATOM      2  C   UNL     1      -1.128   2.014   0.091  0.00  0.00    +0.116 C 
ATOM      3  C   UNL     1      -1.236   3.472   0.174  0.00  0.00    +0.139 C 
ATOM      4  N   UNL     1      -2.069   4.208  -0.478  0.00  0.00    -0.230 NA
ATOM      5  C   UNL     1      -3.000   3.793  -1.385  0.00  0.00    +0.087 A 
ATOM      6  C   UNL     1      -3.216   4.554  -2.536  0.00  0.00    +0.030 A 
ATOM      7  C   UNL     1      -4.182   4.174  -3.448  0.00  0.00    +0.002 A 
ATOM      8  C   UNL     1      -4.942   3.042  -3.226  0.00  0.00    +0.002 A 
ATOM      9  C   UNL     1      -4.726   2.270  -2.096  0.00  0.00    +0.025 A 
ATOM     10  C   UNL     1      -3.748   2.629  -1.185  0.00  0.00    +0.057 A 
ATOM     11  N   UNL     1      -3.479   1.781  -0.095  0.00  0.00    -0.315 N 
ATOM     12  N   UNL     1      -0.364   4.118   1.029  0.00  0.00    -0.304 N 
ATOM     13  H   UNL     1      -4.161   1.602   0.572  0.00  0.00    +0.152 HD
ATOM     14  H   UNL     1       0.281   3.606   1.541  0.00  0.00    +0.153 HD
ENDROOT
BRANCH  12  15
ATOM     15  C   UNL     1      -0.411   5.470   1.152  0.00  0.00    +0.091 C 
ATOM     16  C   UNL     1       0.526   6.125   1.925  0.00  0.00    +0.113 C 
ATOM     17  C   UNL     1       1.502   5.383   2.746  0.00  0.00    +0.258 C 
ATOM     18  O   UNL     1       1.506   4.167   2.764  0.00  0.00    -0.269 OA
ATOM     19  N   UNL     1       2.393   6.091   3.471  0.00  0.00    -0.249 N 
ATOM     20  C   UNL     1       2.395   7.431   3.465  0.00  0.00    +0.149 C 
ATOM     21  S   UNL     1       3.558   8.244   4.423  0.00  0.00    -0.018 S 
ATOM     22  N   UNL     1       1.535   8.169   2.749  0.00  0.00    -0.249 N 
ATOM     23  C   UNL     1       0.593   7.598   1.972  0.00  0.00    +0.258 C 
ATOM     24  O   UNL     1      -0.182   8.279   1.326  0.00  0.00    -0.269 OA
BRANCH  22  25
ATOM     25  C   UNL     1       1.622   9.630   2.812  0.00  0.00    +0.112 C 
ATOM     26  C   UNL     1       0.732  10.145   3.945  0.00  0.00    +0.025 C 
ENDBRANCH  22  25
BRANCH  19  27
ATOM     27  C   UNL     1       3.376   5.377   4.290  0.00  0.00    +0.112 C 
ATOM     28  C   UNL     1       2.798   5.135   5.686  0.00  0.00    +0.025 C 
ENDBRANCH  19  27
ENDBRANCH  12  15
BRANCH   1  30
ATOM     29  C   UNL     1      -2.404  -0.813   1.416  0.00  0.00    +0.010 C 
ATOM     30  C   UNL     1      -2.103  -0.283   0.013  0.00  0.00    +0.048 C 
ENDBRANCH   1  30
BRANCH   2  31
ATOM     31  C   UNL     1       0.196   1.393   0.099  0.00  0.00    +0.344 C 
ATOM     32  O   UNL     1       0.863   1.368  -0.918  0.00  0.00    -0.245 OA
BRANCH  31  33
ATOM     33  O   UNL     1       0.680   0.851   1.236  0.00  0.00    -0.461 OA
BRANCH  33  34
ATOM     34  C   UNL     1       1.982   0.266   1.173  0.00  0.00    +0.229 C 
ATOM     35  C   UNL     1       2.358  -0.291   2.548  0.00  0.00    +0.048 C 
ENDBRANCH  33  34
ENDBRANCH  31  33
ENDBRANCH   2  31
TORSDOF 7
