REMARK  Name = ZINC12604799
REMARK  11 active torsions:
REMARK  status: ('A' for Active; 'I' for Inactive)
REMARK    1  A    between atoms: C_1  and  C_2
REMARK    2  A    between atoms: C_2  and  C_3
REMARK    3  A    between atoms: C_3  and  C_4
REMARK    4  A    between atoms: C_4  and  C_5
REMARK    5  A    between atoms: C_5  and  C_6
REMARK    6  A    between atoms: C_6  and  N_7
REMARK    7  A    between atoms: C_8  and  C_27
REMARK    8  A    between atoms: C_11  and  S_12
REMARK    9  A    between atoms: S_12  and  C_13
REMARK   10  A    between atoms: C_13  and  C_14
REMARK   11  A    between atoms: N_16  and  C_17
REMARK                            x       y       z     vdW  Elec       q    Type
REMARK                         _______ _______ _______ _____ _____    ______ ____
ROOT
ATOM      1  N   UNL     1       2.173  -4.402  -3.787  0.00  0.00    -0.302 N 
ATOM      2  C   UNL     1       1.586  -4.886  -4.934  0.00  0.00    +0.167 A 
ATOM      3  N   UNL     1       2.550  -5.359  -5.689  0.00  0.00    -0.128 NA
ATOM      4  N   UNL     1       3.684  -5.207  -5.103  0.00  0.00    -0.122 NA
ATOM      5  C   UNL     1       3.515  -4.622  -3.940  0.00  0.00    +0.192 A 
ENDROOT
BRANCH   2   6
ATOM      6  C   UNL     1       0.145  -4.876  -5.253  0.00  0.00    +0.044 A 
ATOM      7  C   UNL     1      -0.871  -5.247  -4.432  0.00  0.00    +0.095 A 
ATOM      8  N   UNL     1      -2.064  -5.101  -5.079  0.00  0.00    -0.360 N 
ATOM      9  H   UNL     1      -2.932  -5.302  -4.695  0.00  0.00    +0.165 HD
ATOM     10  C   UNL     1      -1.857  -4.625  -6.356  0.00  0.00    +0.047 A 
ATOM     11  C   UNL     1      -0.472  -4.456  -6.523  0.00  0.00    +0.010 A 
ATOM     12  C   UNL     1       0.032  -3.977  -7.730  0.00  0.00    +0.011 A 
ATOM     13  C   UNL     1      -0.834  -3.666  -8.755  0.00  0.00    +0.001 A 
ATOM     14  C   UNL     1      -2.203  -3.828  -8.590  0.00  0.00    +0.002 A 
ATOM     15  C   UNL     1      -2.715  -4.309  -7.405  0.00  0.00    +0.026 A 
ENDBRANCH   2   6
BRANCH   1  16
ATOM     16  C   UNL     1       1.503  -3.776  -2.645  0.00  0.00    +0.126 C 
BRANCH  16  17
ATOM     17  C   UNL     1       1.336  -2.279  -2.909  0.00  0.00    +0.022 C 
BRANCH  17  18
ATOM     18  C   UNL     1       0.636  -1.625  -1.717  0.00  0.00    +0.002 C 
BRANCH  18  19
ATOM     19  C   UNL     1       0.469  -0.127  -1.981  0.00  0.00    -0.000 C 
BRANCH  19  21
ATOM     20  C   UNL     1      -0.398   2.024  -1.052  0.00  0.00    +0.004 C 
ATOM     21  C   UNL     1      -0.231   0.527  -0.788  0.00  0.00    -0.003 C 
ENDBRANCH  19  21
ENDBRANCH  18  19
ENDBRANCH  17  18
ENDBRANCH  16  17
ENDBRANCH   1  16
BRANCH   5  22
ATOM     22  S   UNL     1       4.780  -4.203  -2.788  0.00  0.00    -0.077 S 
BRANCH  22  23
ATOM     23  C   UNL     1       6.308  -4.758  -3.592  0.00  0.00    +0.173 C 
BRANCH  23  24
ATOM     24  C   UNL     1       7.485  -4.455  -2.700  0.00  0.00    +0.224 C 
ATOM     25  O   UNL     1       7.310  -3.917  -1.628  0.00  0.00    -0.275 OA
ATOM     26  N   UNL     1       8.731  -4.782  -3.095  0.00  0.00    -0.309 N 
ATOM     27  H   UNL     1       8.871  -5.212  -3.953  0.00  0.00    +0.149 HD
BRANCH  26  28
ATOM     28  C   UNL     1       9.875  -4.487  -2.228  0.00  0.00    +0.035 C 
ATOM     29  C   UNL     1       9.950  -2.980  -1.977  0.00  0.00    +0.029 C 
ATOM     30  C   UNL     1      11.144  -2.672  -1.072  0.00  0.00    -0.008 C 
ATOM     31  C   UNL     1      12.433  -3.141  -1.751  0.00  0.00    +0.007 C 
ATOM     32  C   UNL     1      12.358  -4.648  -2.001  0.00  0.00    -0.008 C 
ATOM     33  C   UNL     1      11.164  -4.956  -2.907  0.00  0.00    +0.029 C 
ATOM     34  C   UNL     1      12.189  -5.379  -0.668  0.00  0.00    +0.007 C 
ATOM     35  C   UNL     1      10.900  -4.911   0.011  0.00  0.00    -0.008 C 
ATOM     36  C   UNL     1      10.975  -3.403   0.261  0.00  0.00    +0.007 C 
ATOM     37  C   UNL     1       9.706  -5.218  -0.895  0.00  0.00    +0.029 C 
ENDBRANCH  26  28
ENDBRANCH  23  24
ENDBRANCH  22  23
ENDBRANCH   5  22
TORSDOF 10
