REMARK  Name = ZINC05461795
REMARK  10 active torsions:
REMARK  status: ('A' for Active; 'I' for Inactive)
REMARK    1  A    between atoms: C_1  and  C_2
REMARK    2  A    between atoms: C_2  and  O_3
REMARK    3  A    between atoms: O_3  and  C_4
REMARK    4  A    between atoms: C_7  and  C_12
REMARK    5  A    between atoms: C_9  and  O_10
REMARK    6  A    between atoms: O_10  and  C_11
REMARK    7  A    between atoms: C_19  and  N_31
REMARK    8  A    between atoms: C_20  and  C_29
REMARK    9  A    between atoms: C_21  and  C_23
REMARK   10  A    between atoms: C_26  and  C_28
REMARK                            x       y       z     vdW  Elec       q    Type
REMARK                         _______ _______ _______ _____ _____    ______ ____
ROOT
ATOM      1  C   UNL     1       0.959  -6.462  -1.859  0.00  0.00    +0.074 A 
ATOM      2  C   UNL     1       1.525  -7.157  -0.843  0.00  0.00    +0.054 A 
ATOM      3  C   UNL     1       1.596  -8.511  -1.225  0.00  0.00    +0.245 A 
ATOM      4  N   UNL     1       1.093  -8.626  -2.421  0.00  0.00    -0.135 NA
ATOM      5  N   UNL     1       0.676  -7.357  -2.852  0.00  0.00    -0.273 N 
ATOM      6  H   UNL     1       0.263  -7.151  -3.705  0.00  0.00    +0.189 HD
ATOM      7  O   UNL     1       2.123  -9.463  -0.408  0.00  0.00    -0.421 OA
ATOM      8  C   UNL     1       2.823  -9.044   0.665  0.00  0.00    +0.201 C 
ATOM      9  C   UNL     1       2.823  -7.777   1.130  0.00  0.00    +0.099 C 
ATOM     10  C   UNL     1       2.022  -6.669   0.494  0.00  0.00    +0.108 C 
ENDROOT
BRANCH   1  14
ATOM     11  C   UNL     1       0.197  -2.278  -1.936  0.00  0.00    +0.162 A 
ATOM     12  C   UNL     1       1.434  -2.750  -1.525  0.00  0.00    +0.050 A 
ATOM     13  C   UNL     1       1.685  -4.107  -1.499  0.00  0.00    +0.014 A 
ATOM     14  C   UNL     1       0.692  -5.007  -1.886  0.00  0.00    +0.004 A 
ATOM     15  C   UNL     1      -0.554  -4.533  -2.299  0.00  0.00    +0.059 A 
ATOM     16  C   UNL     1      -0.800  -3.172  -2.318  0.00  0.00    +0.162 A 
BRANCH  16  17
ATOM     17  O   UNL     1      -2.015  -2.707  -2.716  0.00  0.00    -0.491 OA
ATOM     18  C   UNL     1      -2.990  -3.680  -3.094  0.00  0.00    +0.277 C 
ENDBRANCH  16  17
BRANCH  11  19
ATOM     19  O   UNL     1      -0.046  -0.941  -1.960  0.00  0.00    -0.489 OA
BRANCH  19  21
ATOM     20  C   UNL     1       0.565   1.377  -1.647  0.00  0.00    +0.048 C 
ATOM     21  C   UNL     1       1.021  -0.081  -1.555  0.00  0.00    +0.226 C 
ENDBRANCH  19  21
ENDBRANCH  11  19
ENDBRANCH   1  14
BRANCH  10  22
ATOM     22  C   UNL     1       0.851  -6.317   1.375  0.00  0.00    +0.003 A 
ATOM     23  C   UNL     1       0.585  -5.154   2.018  0.00  0.00    +0.012 A 
ATOM     24  C   UNL     1      -0.564  -5.057   2.780  0.00  0.00    +0.011 A 
ATOM     25  C   UNL     1      -1.391  -6.127   2.862  0.00  0.00    -0.013 A 
ATOM     26  S   UNL     1      -0.551  -7.322   1.836  0.00  0.00    -0.097 S 
ATOM     27  C   UNL     1      -2.687  -6.270   3.618  0.00  0.00    +0.051 C 
ENDBRANCH  10  22
BRANCH   8  28
ATOM     28  N   UNL     1       3.588  -9.969   1.330  0.00  0.00    -0.328 N 
ATOM     29  H   UNL     1       3.612 -10.889   1.024  0.00  0.00    +0.145 HD
ATOM     30  H   UNL     1       4.104  -9.703   2.107  0.00  0.00    +0.145 HD
ENDBRANCH   8  28
BRANCH   9  31
ATOM     31  C   UNL     1       3.619  -7.471   2.281  0.00  0.00    +0.101 C 
ATOM     32  N   UNL     1       4.251  -7.229   3.193  0.00  0.00    -0.191 NA
ENDBRANCH   9  31
TORSDOF 7
