REMARK  Name = ZINC19914064
REMARK  3 active torsions:
REMARK  status: ('A' for Active; 'I' for Inactive)
REMARK    1  A    between atoms: C_1  and  N_2
REMARK    2  A    between atoms: C_5  and  C_6
REMARK    3  A    between atoms: C_16  and  C_22
REMARK                            x       y       z     vdW  Elec       q    Type
REMARK                         _______ _______ _______ _____ _____    ______ ____
ROOT
ATOM      1  C   UNL     1       2.746   5.556   1.193  0.00  0.00    +0.105 C 
ATOM      2  N   UNL     1       2.685   4.100   1.007  0.00  0.00    -0.300 NA
ATOM      3  C   UNL     1       3.777   3.633   0.134  0.00  0.00    +0.120 C 
ATOM      4  C   UNL     1       3.747   2.118   0.146  0.00  0.00    -0.015 C 
ATOM      5  C   UNL     1       4.880   1.396   0.209  0.00  0.00    +0.014 C 
ATOM      6  C   UNL     1       2.423   1.468   0.086  0.00  0.00    +0.020 C 
ATOM      7  C   UNL     1       1.321   2.209   0.250  0.00  0.00    +0.072 C 
ATOM      8  C   UNL     1       1.381   3.692   0.476  0.00  0.00    +0.096 C 
ATOM      9  C   UNL     1      -0.021   1.509   0.197  0.00  0.00    +0.112 C 
ATOM     10  N   UNL     1      -0.013   0.056  -0.039  0.00  0.00    -0.319 N 
ATOM     11  C   UNL     1       1.172  -0.567  -0.192  0.00  0.00    +0.135 C 
ATOM     12  S   UNL     1       1.190  -2.256  -0.470  0.00  0.00    -0.019 S 
ATOM     13  N   UNL     1       2.336   0.094  -0.133  0.00  0.00    -0.300 N 
ATOM     14  H   UNL     1      -0.962  -0.498  -0.088  0.00  0.00    +0.148 HD
ATOM     15  H   UNL     1       3.251  -0.501  -0.269  0.00  0.00    +0.154 HD
ENDROOT
BRANCH   5  16
ATOM     16  C   UNL     1       6.187   2.065   0.098  0.00  0.00    -0.025 A 
ATOM     17  C   UNL     1       6.328   3.202  -0.703  0.00  0.00    +0.011 A 
ATOM     18  C   UNL     1       7.553   3.827  -0.799  0.00  0.00    +0.039 A 
ATOM     19  C   UNL     1       8.646   3.324  -0.111  0.00  0.00    +0.123 A 
ATOM     20  C   UNL     1       8.515   2.194   0.681  0.00  0.00    +0.039 A 
ATOM     21  C   UNL     1       7.293   1.563   0.789  0.00  0.00    +0.011 A 
ATOM     22  F   UNL     1       9.846   3.938  -0.213  0.00  0.00    -0.205 F 
ENDBRANCH   5  16
BRANCH   9  23
ATOM     23  C   UNL     1      -0.728   1.762   1.503  0.00  0.00    -0.026 A 
ATOM     24  C   UNL     1      -0.520   0.916   2.576  0.00  0.00    +0.008 A 
ATOM     25  C   UNL     1      -1.164   1.151   3.777  0.00  0.00    +0.038 A 
ATOM     26  C   UNL     1      -2.026   2.227   3.900  0.00  0.00    +0.123 A 
ATOM     27  C   UNL     1      -2.239   3.070   2.823  0.00  0.00    +0.038 A 
ATOM     28  C   UNL     1      -1.589   2.837   1.625  0.00  0.00    +0.008 A 
ATOM     29  F   UNL     1      -2.661   2.453   5.071  0.00  0.00    -0.205 F 
ENDBRANCH   9  23
TORSDOF 2
