REMARK  Name = ZINC38659953
REMARK  16 active torsions:
REMARK  status: ('A' for Active; 'I' for Inactive)
REMARK    1  A    between atoms: C_1  and  C_2
REMARK    2  A    between atoms: C_2  and  C_4
REMARK    3  A    between atoms: C_2  and  O_31
REMARK    4  A    between atoms: C_4  and  O_6
REMARK    5  A    between atoms: O_6  and  C_7
REMARK    6  A    between atoms: C_14  and  N_30
REMARK    7  A    between atoms: C_15  and  C_28
REMARK    8  A    between atoms: C_16  and  C_18
REMARK    9  A    between atoms: C_20  and  O_26
REMARK   10  A    between atoms: C_23  and  O_24
REMARK   11  A    between atoms: O_24  and  C_25
REMARK   12  A    between atoms: O_26  and  C_27
REMARK   13  A    between atoms: O_31  and  C_32
REMARK   14  A    between atoms: C_35  and  C_38
REMARK   15  A    between atoms: C_38  and  C_39
REMARK   16  A    between atoms: C_38  and  C_40
REMARK                            x       y       z     vdW  Elec       q    Type
REMARK                         _______ _______ _______ _____ _____    ______ ____
ROOT
ATOM      1  C   UNL     1      -3.569  -1.322  -0.307  0.00  0.00    +0.135 A 
ATOM      2  C   UNL     1      -3.678  -1.658   1.035  0.00  0.00    +0.047 A 
ATOM      3  C   UNL     1      -4.800  -2.321   1.492  0.00  0.00    +0.012 A 
ATOM      4  C   UNL     1      -5.819  -2.653   0.616  0.00  0.00    +0.008 A 
ATOM      5  C   UNL     1      -5.715  -2.320  -0.726  0.00  0.00    +0.138 A 
ATOM      6  C   UNL     1      -4.590  -1.648  -1.185  0.00  0.00    +0.093 A 
ATOM      7  O   UNL     1      -6.702  -2.637  -1.599  0.00  0.00    -0.441 OA
ATOM      8  C   UNL     1      -7.595  -3.590  -1.284  0.00  0.00    +0.199 C 
ATOM      9  C   UNL     1      -7.800  -3.987  -0.006  0.00  0.00    +0.098 C 
ATOM     10  C   UNL     1      -7.034  -3.376   1.134  0.00  0.00    +0.102 C 
ENDROOT
BRANCH  10  11
ATOM     11  C   UNL     1      -7.920  -2.402   1.865  0.00  0.00    +0.010 A 
ATOM     12  C   UNL     1      -8.443  -1.310   1.200  0.00  0.00    +0.053 A 
ATOM     13  C   UNL     1      -9.259  -0.413   1.873  0.00  0.00    +0.121 A 
ATOM     14  C   UNL     1      -9.551  -0.613   3.215  0.00  0.00    +0.049 A 
ATOM     15  C   UNL     1      -9.028  -1.705   3.880  0.00  0.00    +0.049 A 
ATOM     16  C   UNL     1      -8.216  -2.604   3.205  0.00  0.00    +0.124 A 
BRANCH  16  17
ATOM     17  O   UNL     1      -7.706  -3.682   3.858  0.00  0.00    -0.495 OA
ATOM     18  C   UNL     1      -8.051  -3.829   5.237  0.00  0.00    +0.277 C 
ENDBRANCH  16  17
BRANCH  13  19
ATOM     19  O   UNL     1      -9.774   0.662   1.219  0.00  0.00    -0.495 OA
ATOM     20  C   UNL     1     -10.606   1.544   1.974  0.00  0.00    +0.277 C 
ENDBRANCH  13  19
ENDBRANCH  10  11
BRANCH   8  21
ATOM     21  N   UNL     1      -8.322  -4.180  -2.289  0.00  0.00    -0.328 N 
ATOM     22  H   UNL     1      -8.187  -3.906  -3.210  0.00  0.00    +0.145 HD
ATOM     23  H   UNL     1      -8.970  -4.870  -2.078  0.00  0.00    +0.145 HD
ENDBRANCH   8  21
BRANCH   9  24
ATOM     24  C   UNL     1      -8.765  -5.009   0.266  0.00  0.00    +0.101 C 
ATOM     25  N   UNL     1      -9.532  -5.819   0.481  0.00  0.00    -0.191 NA
ENDBRANCH   9  24
BRANCH   1  26
ATOM     26  O   UNL     1      -2.466  -0.670  -0.758  0.00  0.00    -0.423 OA
BRANCH  26  27
ATOM     27  C   UNL     1      -1.338  -1.379  -0.925  0.00  0.00    +0.353 C 
ATOM     28  O   UNL     1      -1.339  -2.571  -0.725  0.00  0.00    -0.246 OA
BRANCH  27  30
ATOM     29  C   UNL     1       0.379   0.286  -0.272  0.00  0.00    +0.064 C 
ATOM     30  C   UNL     1      -0.071  -0.689  -1.361  0.00  0.00    +0.279 C 
BRANCH  30  31
ATOM     31  O   UNL     1       0.951  -1.664  -1.579  0.00  0.00    -0.478 OA
BRANCH  31  32
ATOM     32  C   UNL     1       1.967  -1.316  -2.412  0.00  0.00    +0.122 A 
ATOM     33  C   UNL     1       2.965  -2.232  -2.712  0.00  0.00    +0.046 A 
ATOM     34  C   UNL     1       3.997  -1.876  -3.558  0.00  0.00    +0.007 A 
ATOM     35  C   UNL     1       4.036  -0.607  -4.106  0.00  0.00    -0.045 A 
ATOM     36  C   UNL     1       3.044   0.308  -3.808  0.00  0.00    +0.007 A 
ATOM     37  C   UNL     1       2.007  -0.045  -2.967  0.00  0.00    +0.046 A 
BRANCH  35  38
ATOM     38  C   UNL     1       5.164  -0.221  -5.029  0.00  0.00    +0.013 C 
ATOM     39  C   UNL     1       4.594   0.165  -6.395  0.00  0.00    +0.012 C 
ATOM     40  C   UNL     1       5.922   0.969  -4.437  0.00  0.00    +0.012 C 
ENDBRANCH  35  38
ENDBRANCH  31  32
ENDBRANCH  30  31
ENDBRANCH  27  30
ENDBRANCH  26  27
ENDBRANCH   1  26
TORSDOF 11
