REMARK  Name = ZINC61104540
REMARK  10 active torsions:
REMARK  status: ('A' for Active; 'I' for Inactive)
REMARK    1  A    between atoms: C_1  and  C_2
REMARK    2  A    between atoms: C_2  and  C_3
REMARK    3  A    between atoms: C_2  and  C_4
REMARK    4  A    between atoms: C_2  and  C_5
REMARK    5  A    between atoms: C_8  and  C_11
REMARK    6  A    between atoms: C_11  and  C_14
REMARK    7  A    between atoms: C_14  and  O_16
REMARK    8  A    between atoms: O_16  and  C_17
REMARK    9  A    between atoms: C_21  and  C_23
REMARK   10  A    between atoms: C_23  and  C_24
REMARK                            x       y       z     vdW  Elec       q    Type
REMARK                         _______ _______ _______ _____ _____    ______ ____
ROOT
ATOM      1  C   UNL     1       1.837  -1.950  -5.977  0.00  0.00    +0.323 C 
ATOM      2  O   UNL     1       2.299  -1.681  -7.061  0.00  0.00    -0.249 OA
ENDROOT
BRANCH   1   3
ATOM      3  C   UNL     1       2.694  -1.833  -4.743  0.00  0.00    +0.093 C 
ATOM      4  C   UNL     1       3.844  -2.829  -4.583  0.00  0.00    +0.024 C 
ATOM      5  C   UNL     1       4.140  -1.368  -4.928  0.00  0.00    +0.024 C 
BRANCH   3   9
ATOM      6  C   UNL     1       0.660  -0.586  -1.199  0.00  0.00    -0.042 A 
ATOM      7  C   UNL     1       0.010  -1.379  -2.126  0.00  0.00    +0.004 A 
ATOM      8  C   UNL     1       0.668  -1.782  -3.273  0.00  0.00    +0.005 A 
ATOM      9  C   UNL     1       1.976  -1.392  -3.493  0.00  0.00    -0.031 A 
ATOM     10  C   UNL     1       2.626  -0.599  -2.566  0.00  0.00    +0.005 A 
ATOM     11  C   UNL     1       1.966  -0.192  -1.421  0.00  0.00    +0.004 A 
BRANCH   6  13
ATOM     12  C   UNL     1      -0.121   1.382   0.092  0.00  0.00    +0.015 C 
ATOM     13  C   UNL     1      -0.058  -0.146   0.051  0.00  0.00    -0.013 C 
ATOM     14  C   UNL     1       0.697  -0.658   1.279  0.00  0.00    +0.015 C 
ATOM     15  C   UNL     1      -1.478  -0.715   0.051  0.00  0.00    +0.015 C 
ENDBRANCH   6  13
ENDBRANCH   3   9
ENDBRANCH   1   3
BRANCH   1  16
ATOM     16  O   UNL     1       0.561  -2.355  -5.872  0.00  0.00    -0.425 OA
BRANCH  16  17
ATOM     17  C   UNL     1      -0.204  -2.351  -6.996  0.00  0.00    +0.132 A 
ATOM     18  C   UNL     1      -0.058  -3.357  -7.940  0.00  0.00    +0.046 A 
ATOM     19  C   UNL     1      -0.837  -3.351  -9.081  0.00  0.00    +0.004 A 
ATOM     20  C   UNL     1      -1.761  -2.342  -9.283  0.00  0.00    +0.004 A 
ATOM     21  C   UNL     1      -1.908  -1.338  -8.344  0.00  0.00    -0.035 A 
ATOM     22  C   UNL     1      -1.135  -1.343  -7.198  0.00  0.00    +0.050 A 
BRANCH  21  23
ATOM     23  C   UNL     1      -2.915  -0.239  -8.568  0.00  0.00    +0.130 C 
BRANCH  23  24
ATOM     24  C   UNL     1      -4.239  -0.644  -7.973  0.00  0.00    +0.215 C 
ATOM     25  O   UNL     1      -4.354  -1.718  -7.422  0.00  0.00    -0.276 OA
ATOM     26  N   UNL     1      -5.296   0.188  -8.053  0.00  0.00    -0.329 N 
ATOM     27  H   UNL     1      -5.205   1.048  -8.494  0.00  0.00    +0.145 HD
ATOM     28  H   UNL     1      -6.149  -0.072  -7.671  0.00  0.00    +0.145 HD
ENDBRANCH  23  24
ENDBRANCH  21  23
ENDBRANCH  16  17
ENDBRANCH   1  16
TORSDOF 7
