REMARK  Name = ZINC23095258
REMARK  8 active torsions:
REMARK  status: ('A' for Active; 'I' for Inactive)
REMARK    1  A    between atoms: C_1  and  N_2
REMARK    2  A    between atoms: C_11  and  C_13
REMARK    3  A    between atoms: C_13  and  N_14
REMARK    4  A    between atoms: N_14  and  C_15
REMARK    5  A    between atoms: C_15  and  C_16
REMARK    6  A    between atoms: C_21  and  C_22
REMARK    7  A    between atoms: C_25  and  O_29
REMARK    8  A    between atoms: O_29  and  C_30
REMARK                            x       y       z     vdW  Elec       q    Type
REMARK                         _______ _______ _______ _____ _____    ______ ____
ROOT
ATOM      1  C   UNL     1      -1.150   4.386  -0.427  0.00  0.00    -0.043 C 
ENDROOT
BRANCH   1   2
ATOM      2  C   UNL     1      -0.289   3.156  -0.301  0.00  0.00    -0.019 A 
ATOM      3  C   UNL     1      -0.729   1.882  -0.214  0.00  0.00    +0.107 A 
ATOM      4  N   UNL     1       0.348   1.074  -0.111  0.00  0.00    -0.284 N 
ATOM      5  H   UNL     1       0.214  -0.014  -0.021  0.00  0.00    +0.188 HD
ATOM      6  N   UNL     1       1.498   1.875  -0.143  0.00  0.00    -0.174 NA
ATOM      7  C   UNL     1       1.119   3.130  -0.258  0.00  0.00    +0.097 A 
BRANCH   7   8
ATOM      8  C   UNL     1       2.017   4.310  -0.329  0.00  0.00    +0.038 A 
ATOM      9  C   UNL     1       1.766   5.426   0.467  0.00  0.00    +0.016 A 
ATOM     10  C   UNL     1       2.602   6.521   0.400  0.00  0.00    +0.046 A 
ATOM     11  C   UNL     1       3.693   6.513  -0.459  0.00  0.00    +0.123 A 
ATOM     12  C   UNL     1       3.947   5.404  -1.253  0.00  0.00    +0.084 A 
ATOM     13  C   UNL     1       3.117   4.301  -1.187  0.00  0.00    +0.136 A 
ATOM     14  F   UNL     1       3.366   3.219  -1.956  0.00  0.00    -0.205 F 
BRANCH  11  15
ATOM     15  O   UNL     1       4.514   7.593  -0.522  0.00  0.00    -0.495 OA
ATOM     16  C   UNL     1       5.618   7.518  -1.427  0.00  0.00    +0.277 C 
ENDBRANCH  11  15
ENDBRANCH   7   8
ENDBRANCH   1   2
BRANCH   1  17
ATOM     17  N   UNL     1      -1.121   4.863  -1.816  0.00  0.00    +0.383 N 
ATOM     18  H   UNL     1      -1.500   4.065  -2.472  0.00  0.00    -0.085 HD
ATOM     19  H   UNL     1      -0.081   5.098  -2.087  0.00  0.00    -0.085 HD
BRANCH  17  20
ATOM     20  C   UNL     1      -1.952   6.064  -1.978  0.00  0.00    -0.063 C 
BRANCH  20  31
ATOM     21  C   UNL     1      -4.131   7.444  -2.902  0.00  0.00    +0.105 C 
ATOM     22  N   UNL     1      -2.868   7.631  -3.629  0.00  0.00    -0.300 NA
ATOM     23  C   UNL     1      -3.110   7.874  -5.053  0.00  0.00    +0.119 C 
ATOM     24  C   UNL     1      -1.808   7.962  -5.806  0.00  0.00    -0.030 A 
ATOM     25  C   UNL     1      -1.812   8.538  -7.068  0.00  0.00    +0.005 A 
ATOM     26  C   UNL     1      -0.643   8.631  -7.796  0.00  0.00    +0.000 A 
ATOM     27  C   UNL     1       0.539   8.149  -7.265  0.00  0.00    +0.000 A 
ATOM     28  C   UNL     1       0.545   7.578  -6.008  0.00  0.00    +0.004 A 
ATOM     29  C   UNL     1      -0.628   7.484  -5.276  0.00  0.00    -0.042 A 
ATOM     30  C   UNL     1      -0.573   6.856  -3.907  0.00  0.00    +0.052 C 
ATOM     31  C   UNL     1      -1.981   6.470  -3.453  0.00  0.00    +0.044 C 
ENDBRANCH  20  31
ENDBRANCH  17  20
ENDBRANCH   1  17
TORSDOF 6
