REMARK  Name = ZINC20939906
REMARK  5 active torsions:
REMARK  status: ('A' for Active; 'I' for Inactive)
REMARK    1  A    between atoms: C_1  and  C_2
REMARK    2  A    between atoms: C_2  and  C_28
REMARK    3  A    between atoms: C_5  and  S_12
REMARK    4  A    between atoms: S_12  and  N_15
REMARK    5  A    between atoms: N_18  and  C_21
REMARK                            x       y       z     vdW  Elec       q    Type
REMARK                         _______ _______ _______ _____ _____    ______ ____
ROOT
ATOM      1  S   UNL     1       0.884  -4.458  -0.031  0.00  0.00    +0.061 S 
ATOM      2  O   UNL     1       2.190  -4.617   0.506  0.00  0.00    -0.153 OA
ATOM      3  O   UNL     1      -0.253  -5.101   0.527  0.00  0.00    -0.153 OA
ENDROOT
BRANCH   1   8
ATOM      4  C   UNL     1       3.078   0.786   1.235  0.00  0.00    +0.025 C 
ATOM      5  C   UNL     1       2.196   0.759  -0.015  0.00  0.00    +0.068 C 
ATOM      6  C   UNL     1       1.312  -0.467  -0.013  0.00  0.00    -0.010 A 
ATOM      7  C   UNL     1       1.583  -1.816  -0.023  0.00  0.00    +0.035 A 
ATOM      8  C   UNL     1       0.543  -2.729  -0.019  0.00  0.00    +0.106 A 
ATOM      9  C   UNL     1      -0.766  -2.281  -0.004  0.00  0.00    +0.030 A 
ATOM     10  C   UNL     1      -1.040  -0.929   0.007  0.00  0.00    +0.025 A 
ATOM     11  C   UNL     1       0.002  -0.004   0.002  0.00  0.00    +0.038 A 
ATOM     12  N   UNL     1      -0.017   1.391   0.010  0.00  0.00    -0.285 N 
ATOM     13  C   UNL     1       1.220   1.917   0.001  0.00  0.00    +0.227 C 
ATOM     14  O   UNL     1       1.501   3.096   0.004  0.00  0.00    -0.275 OA
ATOM     15  C   UNL     1       3.054   0.799  -1.280  0.00  0.00    +0.025 C 
ATOM     16  H   UNL     1      -0.977   1.928   0.022  0.00  0.00    +0.155 HD
ENDBRANCH   1   8
BRANCH   1  17
ATOM     17  N   UNL     1       0.964  -4.930  -1.616  0.00  0.00    -0.174 NA
ATOM     18  C   UNL     1      -0.237  -5.395  -2.327  0.00  0.00    +0.128 C 
ATOM     19  C   UNL     1      -0.352  -4.611  -3.643  0.00  0.00    +0.122 C 
ATOM     20  N   UNL     1       0.903  -4.740  -4.396  0.00  0.00    -0.327 N 
ATOM     21  C   UNL     1       2.027  -4.141  -3.664  0.00  0.00    +0.122 C 
ATOM     22  C   UNL     1       2.239  -4.900  -2.350  0.00  0.00    +0.128 C 
BRANCH  20  23
ATOM     23  C   UNL     1       0.782  -4.182  -5.671  0.00  0.00    +0.031 A 
ATOM     24  C   UNL     1       1.663  -3.190  -6.083  0.00  0.00    +0.023 A 
ATOM     25  C   UNL     1       1.545  -2.644  -7.346  0.00  0.00    +0.003 A 
ATOM     26  C   UNL     1       0.543  -3.075  -8.196  0.00  0.00    +0.020 A 
ATOM     27  C   UNL     1      -0.340  -4.059  -7.787  0.00  0.00    +0.043 A 
ATOM     28  C   UNL     1      -0.223  -4.613  -6.526  0.00  0.00    +0.043 A 
ATOM     29 CL   UNL     1      -1.596  -4.597  -8.858  0.00  0.00    -0.083 Cl
ENDBRANCH  20  23
ENDBRANCH   1  17
TORSDOF 3
