REMARK  Name = ZINC08969422
REMARK  9 active torsions:
REMARK  status: ('A' for Active; 'I' for Inactive)
REMARK    1  A    between atoms: C_1  and  C_2
REMARK    2  A    between atoms: C_2  and  C_3
REMARK    3  A    between atoms: C_8  and  N_9
REMARK    4  A    between atoms: C_10  and  C_12
REMARK    5  A    between atoms: C_12  and  S_13
REMARK    6  A    between atoms: S_13  and  C_14
REMARK    7  A    between atoms: C_17  and  C_20
REMARK    8  A    between atoms: N_18  and  N_19
REMARK    9  A    between atoms: C_22  and  C_26
REMARK                            x       y       z     vdW  Elec       q    Type
REMARK                         _______ _______ _______ _____ _____    ______ ____
ROOT
ATOM      1  C   UNL     1      -5.828  -0.438   5.247  0.00  0.00    +0.209 A 
ATOM      2  N   UNL     1      -6.480  -0.008   4.191  0.00  0.00    -0.120 NA
ATOM      3  N   UNL     1      -7.730   0.116   4.465  0.00  0.00    -0.125 NA
ATOM      4  C   UNL     1      -7.952  -0.227   5.712  0.00  0.00    +0.202 A 
ATOM      5  N   UNL     1      -6.741  -0.597   6.251  0.00  0.00    -0.222 N 
ENDROOT
BRANCH   4   6
ATOM      6  C   UNL     1      -9.258  -0.221   6.406  0.00  0.00    +0.131 A 
ATOM      7  C   UNL     1     -10.496   0.150   5.842  0.00  0.00    +0.055 A 
ATOM      8  C   UNL     1     -11.441   0.019   6.798  0.00  0.00    +0.034 A 
ATOM      9  N   UNL     1     -10.839  -0.416   7.925  0.00  0.00    -0.281 N 
ATOM     10  H   UNL     1     -11.277  -0.597   8.771  0.00  0.00    +0.189 HD
ATOM     11  N   UNL     1      -9.472  -0.567   7.660  0.00  0.00    -0.170 NA
ATOM     12  C   UNL     1     -12.911   0.308   6.634  0.00  0.00    +0.065 C 
ENDBRANCH   4   6
BRANCH   5  13
ATOM     13  N   UNL     1      -6.502  -1.031   7.524  0.00  0.00    -0.295 N 
ATOM     14  H   UNL     1      -6.292  -0.257   8.136  0.00  0.00    +0.163 HD
ATOM     15  H   UNL     1      -7.281  -1.568   7.875  0.00  0.00    +0.163 HD
ENDBRANCH   5  13
BRANCH   1  16
ATOM     16  S   UNL     1      -4.098  -0.756   5.349  0.00  0.00    -0.075 S 
BRANCH  16  17
ATOM     17  C   UNL     1      -3.478  -0.347   3.694  0.00  0.00    +0.173 C 
BRANCH  17  19
ATOM     18  N   UNL     1      -1.309  -0.339   2.505  0.00  0.00    -0.285 N 
ATOM     19  C   UNL     1      -1.990  -0.578   3.643  0.00  0.00    +0.227 C 
ATOM     20  O   UNL     1      -1.405  -0.980   4.627  0.00  0.00    -0.275 OA
ATOM     21  H   UNL     1      -1.764   0.044   1.739  0.00  0.00    +0.155 HD
BRANCH  18  27
ATOM     22  C   UNL     1       0.600  -1.100   1.236  0.00  0.00    -0.026 A 
ATOM     23  C   UNL     1       1.948  -1.393   1.163  0.00  0.00    +0.005 A 
ATOM     24  C   UNL     1       2.753  -1.237   2.276  0.00  0.00    +0.000 A 
ATOM     25  C   UNL     1       2.212  -0.786   3.466  0.00  0.00    +0.002 A 
ATOM     26  C   UNL     1       0.865  -0.491   3.546  0.00  0.00    +0.023 A 
ATOM     27  C   UNL     1       0.055  -0.642   2.429  0.00  0.00    +0.037 A 
BRANCH  22  29
ATOM     28  C   UNL     1      -0.393   0.066  -0.714  0.00  0.00    +0.009 C 
ATOM     29  C   UNL     1      -0.277  -1.270   0.022  0.00  0.00    +0.033 C 
ENDBRANCH  22  29
ENDBRANCH  18  27
ENDBRANCH  17  19
ENDBRANCH  16  17
ENDBRANCH   1  16
TORSDOF 7
