REMARK  Name = ZINC34830082
REMARK  7 active torsions:
REMARK  status: ('A' for Active; 'I' for Inactive)
REMARK    1  A    between atoms: C_1  and  C_2
REMARK    2  A    between atoms: C_9  and  C_11
REMARK    3  A    between atoms: C_14  and  N_17
REMARK    4  A    between atoms: C_20  and  C_22
REMARK    5  A    between atoms: C_22  and  C_23
REMARK    6  A    between atoms: C_23  and  N_24
REMARK    7  A    between atoms: C_32  and  C_34
REMARK                            x       y       z     vdW  Elec       q    Type
REMARK                         _______ _______ _______ _____ _____    ______ ____
ROOT
ATOM      1  C   UNL     1      -0.543   1.170   0.244  0.00  0.00    +0.029 C 
ATOM      2  C   UNL     1      -0.154  -0.291   0.009  0.00  0.00    +0.091 C 
ATOM      3  C   UNL     1      -1.420  -1.133  -0.198  0.00  0.00    +0.130 C 
ATOM      4  N   UNL     1      -2.132  -1.232   1.084  0.00  0.00    -0.298 N 
ATOM      5  C   UNL     1      -1.412  -1.746   2.257  0.00  0.00    +0.127 C 
ATOM      6  C   UNL     1      -0.146  -0.904   2.463  0.00  0.00    +0.127 C 
ATOM      7  N   UNL     1       0.570  -0.804   1.180  0.00  0.00    -0.292 N 
ATOM      8  C   UNL     1       1.860  -1.179   1.079  0.00  0.00    +0.247 C 
ATOM      9  O   UNL     1       2.405  -1.195  -0.008  0.00  0.00    -0.270 OA
ATOM     10  C   UNL     1      -3.423  -0.857   1.182  0.00  0.00    +0.214 C 
ATOM     11  O   UNL     1      -4.007  -0.433   0.207  0.00  0.00    -0.276 OA
ENDROOT
BRANCH   8  12
ATOM     12  C   UNL     1       2.614  -1.570   2.289  0.00  0.00    +0.037 A 
ATOM     13  C   UNL     1       3.478  -2.666   2.253  0.00  0.00    +0.015 A 
ATOM     14  C   UNL     1       4.178  -3.025   3.386  0.00  0.00    +0.033 A 
ATOM     15  C   UNL     1       4.025  -2.302   4.556  0.00  0.00    +0.126 A 
ATOM     16  C   UNL     1       3.170  -1.215   4.598  0.00  0.00    +0.033 A 
ATOM     17  C   UNL     1       2.469  -0.842   3.471  0.00  0.00    +0.015 A 
BRANCH  15  18
ATOM     18  N   UNL     1       4.779  -2.694   5.768  0.00  0.00    +0.056 N 
ATOM     19  O   UNL     1       5.527  -3.644   5.734  0.00  0.00    -0.126 OA
ATOM     20  O   UNL     1       4.648  -2.064   6.792  0.00  0.00    -0.126 OA
ENDBRANCH  15  18
ENDBRANCH   8  12
BRANCH  10  21
ATOM     21  C   UNL     1      -4.141  -0.963   2.503  0.00  0.00    +0.077 C 
BRANCH  21  22
ATOM     22  C   UNL     1      -5.582  -0.477   2.341  0.00  0.00    -0.068 C 
BRANCH  22  23
ATOM     23  N   UNL     1      -6.282  -0.581   3.628  0.00  0.00    +0.388 N 
ATOM     24  C   UNL     1      -5.643   0.318   4.599  0.00  0.00    -0.072 C 
ATOM     25  C   UNL     1      -6.151  -0.032   6.009  0.00  0.00    +0.024 C 
ATOM     26  C   UNL     1      -7.638  -0.151   5.935  0.00  0.00    -0.010 A 
ATOM     27  C   UNL     1      -8.387  -0.239   4.800  0.00  0.00    -0.047 A 
ATOM     28  C   UNL     1      -9.765  -0.339   4.971  0.00  0.00    +0.010 A 
ATOM     29  C   UNL     1     -10.294  -0.347   6.217  0.00  0.00    +0.045 A 
ATOM     30  S   UNL     1      -8.834  -0.212   7.238  0.00  0.00    -0.101 S 
ATOM     31  C   UNL     1      -7.694  -0.227   3.441  0.00  0.00    -0.006 C 
ATOM     32  H   UNL     1      -6.219  -1.530   3.965  0.00  0.00    -0.080 HD
BRANCH  31  33
ATOM     33  C   UNL     1      -8.350  -1.233   2.530  0.00  0.00    -0.057 A 
ATOM     34  C   UNL     1      -8.049  -2.576   2.653  0.00  0.00    +0.002 A 
ATOM     35  C   UNL     1      -8.651  -3.499   1.818  0.00  0.00    +0.000 A 
ATOM     36  C   UNL     1      -9.554  -3.078   0.860  0.00  0.00    +0.000 A 
ATOM     37  C   UNL     1      -9.855  -1.734   0.737  0.00  0.00    +0.000 A 
ATOM     38  C   UNL     1      -9.257  -0.812   1.575  0.00  0.00    +0.002 A 
ENDBRANCH  31  33
ENDBRANCH  22  23
ENDBRANCH  21  22
ENDBRANCH  10  21
TORSDOF 6
