REMARK  Name = ZINC40846030
REMARK  10 active torsions:
REMARK  status: ('A' for Active; 'I' for Inactive)
REMARK    1  A    between atoms: C_1  and  C_2
REMARK    2  A    between atoms: C_2  and  O_3
REMARK    3  A    between atoms: O_3  and  C_4
REMARK    4  A    between atoms: C_4  and  C_6
REMARK    5  A    between atoms: C_10  and  N_11
REMARK    6  A    between atoms: N_14  and  N_15
REMARK    7  A    between atoms: C_16  and  C_17
REMARK    8  A    between atoms: C_20  and  O_25
REMARK    9  A    between atoms: C_21  and  O_23
REMARK   10  A    between atoms: O_23  and  C_24
REMARK                            x       y       z     vdW  Elec       q    Type
REMARK                         _______ _______ _______ _____ _____    ______ ____
ROOT
ATOM      1  N   UNL     1      -0.603  -2.454  -3.925  0.00  0.00    -0.262 N 
ATOM      2  C   UNL     1      -1.118  -2.782  -5.127  0.00  0.00    +0.324 C 
ATOM      3  O   UNL     1      -0.394  -3.226  -5.997  0.00  0.00    -0.251 OA
ATOM      4  N   UNL     1      -2.434  -2.617  -5.364  0.00  0.00    -0.191 N 
ATOM      5  H   UNL     1      -1.180  -2.100  -3.231  0.00  0.00    +0.157 HD
ATOM      6  H   UNL     1      -2.805  -2.853  -6.229  0.00  0.00    +0.179 HD
ENDROOT
BRANCH   1  11
ATOM      7  C   UNL     1       1.449  -2.344  -2.516  0.00  0.00    +0.091 A 
ATOM      8  C   UNL     1       2.876  -2.619  -2.515  0.00  0.00    -0.021 A 
ATOM      9  C   UNL     1       3.342  -3.118  -3.680  0.00  0.00    -0.004 A 
ATOM     10  S   UNL     1       1.922  -3.213  -4.730  0.00  0.00    -0.077 S 
ATOM     11  C   UNL     1       0.750  -2.624  -3.681  0.00  0.00    +0.088 A 
ATOM     12  C   UNL     1       4.756  -3.499  -3.993  0.00  0.00    +0.043 C 
ATOM     13  C   UNL     1       5.669  -2.888  -2.919  0.00  0.00    +0.005 C 
ATOM     14  C   UNL     1       5.082  -3.190  -1.538  0.00  0.00    +0.005 C 
ATOM     15  C   UNL     1       3.799  -2.382  -1.330  0.00  0.00    +0.037 C 
BRANCH   7  16
ATOM     16  C   UNL     1       0.776  -1.800  -1.335  0.00  0.00    +0.342 C 
ATOM     17  O   UNL     1       0.312  -2.552  -0.499  0.00  0.00    -0.245 OA
BRANCH  16  18
ATOM     18  O   UNL     1       0.671  -0.465  -1.174  0.00  0.00    -0.461 OA
BRANCH  18  20
ATOM     19  C   UNL     1      -0.019   1.526   0.010  0.00  0.00    +0.048 C 
ATOM     20  C   UNL     1       0.002  -0.004   0.002  0.00  0.00    +0.229 C 
ENDBRANCH  18  20
ENDBRANCH  16  18
ENDBRANCH   7  16
ENDBRANCH   1  11
BRANCH   4  21
ATOM     21  N   UNL     1      -3.268  -2.105  -4.361  0.00  0.00    -0.186 NA
ATOM     22  C   UNL     1      -4.535  -1.946  -4.589  0.00  0.00    +0.138 C 
BRANCH  22  23
ATOM     23  C   UNL     1      -5.413  -1.407  -3.534  0.00  0.00    -0.002 A 
ATOM     24  C   UNL     1      -4.880  -1.062  -2.289  0.00  0.00    +0.013 A 
ATOM     25  C   UNL     1      -5.702  -0.558  -1.303  0.00  0.00    +0.050 A 
ATOM     26  C   UNL     1      -7.059  -0.393  -1.544  0.00  0.00    +0.158 A 
ATOM     27  C   UNL     1      -7.597  -0.736  -2.782  0.00  0.00    +0.162 A 
ATOM     28  C   UNL     1      -6.778  -1.236  -3.777  0.00  0.00    +0.058 A 
BRANCH  27  29
ATOM     29  O   UNL     1      -8.927  -0.574  -3.014  0.00  0.00    -0.491 OA
ATOM     30  C   UNL     1      -9.410  -0.946  -4.306  0.00  0.00    +0.277 C 
ENDBRANCH  27  29
BRANCH  26  31
ATOM     31  O   UNL     1      -7.865   0.104  -0.568  0.00  0.00    -0.503 OA
ATOM     32  H   UNL     1      -7.946   1.067  -0.579  0.00  0.00    +0.292 HD
ENDBRANCH  26  31
ENDBRANCH  22  23
ENDBRANCH   4  21
TORSDOF 8
