REMARK  Name = ZINC12366801
REMARK  4 active torsions:
REMARK  status: ('A' for Active; 'I' for Inactive)
REMARK    1  A    between atoms: C_4  and  C_7
REMARK    2  A    between atoms: C_7  and  C_8
REMARK    3  A    between atoms: C_7  and  C_14
REMARK    4  A    between atoms: C_7  and  N_57
REMARK                            x       y       z     vdW  Elec       q    Type
REMARK                         _______ _______ _______ _____ _____    ______ ____
ROOT
ATOM      1  C   UNL     1      -0.689   9.984   1.124  0.00  0.00    +0.012 C 
ENDROOT
BRANCH   1  14
ATOM      2  C   UNL     1      -2.089   8.752   2.670  0.00  0.00    -0.057 C 
ATOM      3  C   UNL     1      -2.310   7.379   3.309  0.00  0.00    +0.089 C 
ATOM      4  N   UNL     1      -2.605   6.394   2.259  0.00  0.00    -0.303 N 
ATOM      5  C   UNL     1      -1.499   6.309   1.295  0.00  0.00    +0.089 C 
ATOM      6  C   UNL     1      -1.278   7.682   0.655  0.00  0.00    -0.057 C 
ATOM      7  C   UNL     1      -2.882   5.153   2.807  0.00  0.00    +0.218 A 
ATOM      8  N   UNL     1      -3.171   4.141   2.002  0.00  0.00    -0.222 NA
ATOM      9  C   UNL     1      -3.439   2.942   2.493  0.00  0.00    +0.131 A 
ATOM     10  C   UNL     1      -3.416   2.753   3.866  0.00  0.00    +0.054 A 
ATOM     11  C   UNL     1      -3.115   3.835   4.679  0.00  0.00    +0.131 A 
ATOM     12  N   UNL     1      -2.851   5.006   4.123  0.00  0.00    -0.222 NA
ATOM     13 BR   UNL     1      -3.793   1.057   4.614  0.00  0.00    -0.047 Br
ATOM     14  N   UNL     1      -0.961   8.658   1.719  0.00  0.00    +0.394 N 
ATOM     15  H   UNL     1      -0.124   8.342   2.224  0.00  0.00    -0.079 HD
ENDBRANCH   1  14
BRANCH   1  19
ATOM     16  C   UNL     1       0.890  12.555   4.148  0.00  0.00    +0.000 A 
ATOM     17  C   UNL     1      -0.466  12.558   3.877  0.00  0.00    +0.000 A 
ATOM     18  C   UNL     1      -0.977  11.727   2.898  0.00  0.00    +0.003 A 
ATOM     19  C   UNL     1      -0.132  10.891   2.191  0.00  0.00    -0.049 A 
ATOM     20  C   UNL     1       1.222  10.883   2.467  0.00  0.00    +0.003 A 
ATOM     21  C   UNL     1       1.734  11.719   3.442  0.00  0.00    +0.000 A 
ENDBRANCH   1  19
BRANCH   1  22
ATOM     22  C   UNL     1       0.322   9.831   0.017  0.00  0.00    -0.049 A 
ATOM     23  C   UNL     1       1.329   8.890   0.126  0.00  0.00    +0.003 A 
ATOM     24  C   UNL     1       2.253   8.745  -0.892  0.00  0.00    +0.000 A 
ATOM     25  C   UNL     1       2.176   9.549  -2.014  0.00  0.00    +0.000 A 
ATOM     26  C   UNL     1       1.173  10.494  -2.120  0.00  0.00    +0.000 A 
ATOM     27  C   UNL     1       0.245  10.634  -1.105  0.00  0.00    +0.003 A 
ENDBRANCH   1  22
BRANCH   1  28
ATOM     28  C   UNL     1      -1.956  10.582   0.568  0.00  0.00    -0.049 A 
ATOM     29  C   UNL     1      -3.095   9.806   0.455  0.00  0.00    +0.003 A 
ATOM     30  C   UNL     1      -4.258  10.355  -0.050  0.00  0.00    +0.000 A 
ATOM     31  C   UNL     1      -4.280  11.678  -0.452  0.00  0.00    +0.000 A 
ATOM     32  C   UNL     1      -3.140  12.452  -0.345  0.00  0.00    +0.000 A 
ATOM     33  C   UNL     1      -1.978  11.904   0.166  0.00  0.00    +0.003 A 
ENDBRANCH   1  28
TORSDOF 4
