REMARK  Name = ZINC23696582
REMARK  8 active torsions:
REMARK  status: ('A' for Active; 'I' for Inactive)
REMARK    1  A    between atoms: C_1  and  C_2
REMARK    2  A    between atoms: C_2  and  C_3
REMARK    3  A    between atoms: C_3  and  C_27
REMARK    4  A    between atoms: N_6  and  N_10
REMARK    5  A    between atoms: C_11  and  C_13
REMARK    6  A    between atoms: C_13  and  N_14
REMARK    7  A    between atoms: N_17  and  C_20
REMARK    8  A    between atoms: C_23  and  O_26
REMARK                            x       y       z     vdW  Elec       q    Type
REMARK                         _______ _______ _______ _____ _____    ______ ____
ROOT
ATOM      1  N   UNL     1       3.376   1.413  -2.818  0.00  0.00    -0.223 N 
ATOM      2  C   UNL     1       4.101   0.945  -3.853  0.00  0.00    +0.244 C 
ATOM      3  O   UNL     1       3.745  -0.054  -4.440  0.00  0.00    -0.273 OA
ATOM      4  H   UNL     1       3.660   2.212  -2.348  0.00  0.00    +0.174 HD
ENDROOT
BRANCH   1   8
ATOM      5  C   UNL     1       0.691  -0.536  -1.292  0.00  0.00    +0.139 C 
ATOM      6  C   UNL     1       2.119  -0.027  -1.318  0.00  0.00    +0.268 C 
ATOM      7  O   UNL     1       2.995  -0.264  -0.516  0.00  0.00    -0.271 OA
ATOM      8  N   UNL     1       2.211   0.744  -2.420  0.00  0.00    -0.137 N 
ATOM      9  C   UNL     1       1.052   0.792  -3.087  0.00  0.00    +0.327 C 
ATOM     10  O   UNL     1       0.888   1.424  -4.112  0.00  0.00    -0.251 OA
ATOM     11  N   UNL     1       0.088   0.064  -2.495  0.00  0.00    -0.280 N 
ATOM     12  H   UNL     1      -0.826  -0.046  -2.801  0.00  0.00    +0.152 HD
BRANCH   5  13
ATOM     13  C   UNL     1       0.659  -2.040  -1.377  0.00  0.00    -0.015 A 
ATOM     14  C   UNL     1       0.624  -2.796  -0.220  0.00  0.00    +0.006 A 
ATOM     15  C   UNL     1       0.595  -4.176  -0.297  0.00  0.00    +0.000 A 
ATOM     16  C   UNL     1       0.601  -4.800  -1.531  0.00  0.00    +0.000 A 
ATOM     17  C   UNL     1       0.635  -4.043  -2.688  0.00  0.00    +0.000 A 
ATOM     18  C   UNL     1       0.660  -2.663  -2.611  0.00  0.00    +0.006 A 
ENDBRANCH   5  13
BRANCH   5  20
ATOM     19  C   UNL     1      -0.045   1.476  -0.007  0.00  0.00    +0.007 C 
ATOM     20  C   UNL     1      -0.029  -0.053  -0.032  0.00  0.00    +0.037 C 
ENDBRANCH   5  20
ENDBRANCH   1   8
BRANCH   2  21
ATOM     21  C   UNL     1       5.354   1.665  -4.281  0.00  0.00    +0.182 C 
BRANCH  21  22
ATOM     22  N   UNL     1       5.957   0.962  -5.421  0.00  0.00    -0.291 NA
ATOM     23  C   UNL     1       6.428  -0.373  -5.028  0.00  0.00    +0.104 C 
ATOM     24  C   UNL     1       6.882  -1.139  -6.275  0.00  0.00    +0.120 C 
ATOM     25  N   UNL     1       7.868  -0.318  -6.995  0.00  0.00    -0.327 N 
ATOM     26  C   UNL     1       7.519   1.077  -7.304  0.00  0.00    +0.120 C 
ATOM     27  C   UNL     1       7.041   1.756  -6.016  0.00  0.00    +0.104 C 
BRANCH  25  28
ATOM     28  C   UNL     1       9.105  -0.850  -7.375  0.00  0.00    +0.030 A 
ATOM     29  C   UNL     1       9.462  -2.132  -6.976  0.00  0.00    +0.027 A 
ATOM     30  C   UNL     1      10.683  -2.656  -7.353  0.00  0.00    +0.047 A 
ATOM     31  C   UNL     1      11.553  -1.903  -8.127  0.00  0.00    +0.117 A 
ATOM     32  C   UNL     1      11.197  -0.623  -8.525  0.00  0.00    +0.047 A 
ATOM     33  C   UNL     1       9.974  -0.099  -8.155  0.00  0.00    +0.027 A 
BRANCH  31  34
ATOM     34  O   UNL     1      12.755  -2.421  -8.497  0.00  0.00    -0.507 OA
ATOM     35  H   UNL     1      12.735  -2.900  -9.337  0.00  0.00    +0.292 HD
ENDBRANCH  31  34
ENDBRANCH  25  28
ENDBRANCH  21  22
ENDBRANCH   2  21
TORSDOF 7
