REMARK  Name = ZINC09551707
REMARK  8 active torsions:
REMARK  status: ('A' for Active; 'I' for Inactive)
REMARK    1  A    between atoms: C_1  and  C_2
REMARK    2  A    between atoms: C_7  and  N_8
REMARK    3  A    between atoms: C_9  and  C_11
REMARK    4  A    between atoms: C_11  and  O_12
REMARK    5  A    between atoms: O_12  and  C_13
REMARK    6  A    between atoms: C_13  and  C_15
REMARK    7  A    between atoms: C_21  and  C_26
REMARK    8  A    between atoms: C_22  and  C_25
REMARK                            x       y       z     vdW  Elec       q    Type
REMARK                         _______ _______ _______ _____ _____    ______ ____
ROOT
ATOM      1  O   UNL     1       1.143   1.900  -0.015  0.00  0.00    -0.452 OA
ENDROOT
BRANCH   1   2
ATOM      2  C   UNL     1      -0.015   1.210  -0.018  0.00  0.00    +0.340 C 
ATOM      3  O   UNL     1       0.002  -0.005  -0.032  0.00  0.00    -0.245 OA
BRANCH   2   4
ATOM      4  C   UNL     1      -1.302   1.930  -0.010  0.00  0.00    +0.060 A 
ATOM      5  C   UNL     1      -1.321   3.332   0.012  0.00  0.00    +0.017 A 
ATOM      6  C   UNL     1      -2.502   4.012   0.014  0.00  0.00    +0.027 A 
ATOM      7  C   UNL     1      -3.711   3.318   0.005  0.00  0.00    +0.047 A 
ATOM      8  C   UNL     1      -3.706   1.909  -0.011  0.00  0.00    +0.004 A 
ATOM      9  C   UNL     1      -2.498   1.217  -0.019  0.00  0.00    +0.025 A 
ATOM     10  C   UNL     1      -5.113   1.499  -0.016  0.00  0.00    -0.022 A 
ATOM     11  C   UNL     1      -5.847   2.623  -0.003  0.00  0.00    +0.017 A 
ATOM     12  N   UNL     1      -5.026   3.717   0.010  0.00  0.00    -0.358 N 
ATOM     13  H   UNL     1      -5.327   4.639   0.021  0.00  0.00    +0.166 HD
ATOM     14  C   UNL     1      -7.354   2.672  -0.003  0.00  0.00    +0.063 C 
ATOM     15  C   UNL     1      -5.636   0.086  -0.034  0.00  0.00    +0.046 C 
ENDBRANCH   2   4
ENDBRANCH   1   2
BRANCH   1  16
ATOM     16  C   UNL     1       2.372   1.126  -0.030  0.00  0.00    +0.328 C 
BRANCH  16  18
ATOM     17  N   UNL     1       4.806   1.562  -0.035  0.00  0.00    -0.282 N 
ATOM     18  C   UNL     1       3.554   2.060  -0.024  0.00  0.00    +0.255 C 
ATOM     19  O   UNL     1       3.378   3.260  -0.009  0.00  0.00    -0.272 OA
ATOM     20  H   UNL     1       4.948   0.605   0.034  0.00  0.00    +0.155 HD
BRANCH  17  27
ATOM     21  C   UNL     1       7.311   0.696   1.000  0.00  0.00    +0.046 C 
ATOM     22  C   UNL     1       7.142   2.043   0.345  0.00  0.00    -0.028 A 
ATOM     23  C   UNL     1       8.223   2.896   0.229  0.00  0.00    +0.025 A 
ATOM     24  C   UNL     1       8.068   4.135  -0.366  0.00  0.00    +0.041 A 
ATOM     25  C   UNL     1       6.831   4.521  -0.853  0.00  0.00    +0.022 A 
ATOM     26  C   UNL     1       5.749   3.670  -0.745  0.00  0.00    +0.025 A 
ATOM     27  C   UNL     1       5.902   2.426  -0.147  0.00  0.00    +0.036 A 
ATOM     28 CL   UNL     1       9.426   5.206  -0.504  0.00  0.00    -0.084 Cl
ENDBRANCH  17  27
ENDBRANCH  16  18
ENDBRANCH   1  16
TORSDOF 5
