REMARK  Name = ZINC06162893
REMARK  10 active torsions:
REMARK  status: ('A' for Active; 'I' for Inactive)
REMARK    1  A    between atoms: C_1  and  O_2
REMARK    2  A    between atoms: O_2  and  C_3
REMARK    3  A    between atoms: C_10  and  C_15
REMARK    4  A    between atoms: C_15  and  C_17
REMARK    5  A    between atoms: C_15  and  N_70
REMARK    6  A    between atoms: N_21  and  C_22
REMARK    7  A    between atoms: C_28  and  C_29
REMARK    8  A    between atoms: C_28  and  N_70
REMARK    9  A    between atoms: C_35  and  C_36
REMARK   10  A    between atoms: C_35  and  N_70
REMARK                            x       y       z     vdW  Elec       q    Type
REMARK                         _______ _______ _______ _____ _____    ______ ____
ROOT
ATOM      1  C   UNL     1      -0.118   0.860   0.329  0.00  0.00    +0.040 C 
ENDROOT
BRANCH   1   9
ATOM      2  C   UNL     1       1.994  -2.792  -4.213  0.00  0.00    +0.121 A 
ATOM      3  C   UNL     1       3.244  -2.186  -4.324  0.00  0.00    +0.047 A 
ATOM      4  C   UNL     1       3.582  -1.123  -3.516  0.00  0.00    +0.030 A 
ATOM      5  C   UNL     1       2.672  -0.645  -2.579  0.00  0.00    +0.049 A 
ATOM      6  C   UNL     1       1.409  -1.254  -2.464  0.00  0.00    +0.002 A 
ATOM      7  C   UNL     1       1.076  -2.333  -3.290  0.00  0.00    +0.055 A 
ATOM      8  C   UNL     1       0.460  -0.741  -1.474  0.00  0.00    +0.017 A 
ATOM      9  C   UNL     1       0.835   0.308  -0.700  0.00  0.00    +0.011 A 
ATOM     10  C   UNL     1       2.112   0.887  -0.858  0.00  0.00    +0.251 A 
ATOM     11  O   UNL     1       2.427   1.832  -0.156  0.00  0.00    -0.268 OA
ATOM     12  N   UNL     1       2.992   0.419  -1.760  0.00  0.00    -0.322 N 
ATOM     13  H   UNL     1       3.863   0.838  -1.840  0.00  0.00    +0.169 HD
BRANCH   2  15
ATOM     14  C   UNL     1       2.672  -4.265  -5.952  0.00  0.00    +0.277 C 
ATOM     15  O   UNL     1       1.677  -3.840  -5.019  0.00  0.00    -0.495 OA
ENDBRANCH   2  15
ENDBRANCH   1   9
BRANCH   1  16
ATOM     16  C   UNL     1       0.505   0.758   1.697  0.00  0.00    +0.143 A 
ATOM     17  N   UNL     1       1.555   1.413   2.130  0.00  0.00    -0.115 NA
ATOM     18  N   UNL     1       1.775   1.052   3.347  0.00  0.00    -0.023 NA
ATOM     19  N   UNL     1       0.893   0.184   3.702  0.00  0.00    -0.044 NA
ATOM     20  N   UNL     1       0.089  -0.020   2.713  0.00  0.00    -0.227 N 
BRANCH  20  21
ATOM     21  C   UNL     1      -1.059  -0.930   2.699  0.00  0.00    +0.111 C 
ATOM     22  C   UNL     1      -2.056  -0.511   3.781  0.00  0.00    +0.027 C 
ATOM     23  C   UNL     1      -3.255  -1.462   3.766  0.00  0.00    +0.002 C 
ATOM     24  C   UNL     1      -2.777  -2.889   4.038  0.00  0.00    +0.000 C 
ATOM     25  C   UNL     1      -1.780  -3.309   2.956  0.00  0.00    +0.002 C 
ATOM     26  C   UNL     1      -0.581  -2.358   2.971  0.00  0.00    +0.027 C 
ENDBRANCH  20  21
ENDBRANCH   1  16
BRANCH   1  27
ATOM     27  N   UNL     1      -0.379   2.284   0.029  0.00  0.00    +0.397 N 
ATOM     28  H   UNL     1       0.487   2.818   0.165  0.00  0.00    -0.079 HD
BRANCH  27  29
ATOM     29  C   UNL     1      -0.819   2.432  -1.375  0.00  0.00    -0.039 C 
BRANCH  29  30
ATOM     30  C   UNL     1       0.402   2.569  -2.248  0.00  0.00    -0.046 A 
ATOM     31  C   UNL     1       1.220   3.683  -2.142  0.00  0.00    +0.005 A 
ATOM     32  C   UNL     1       2.335   3.765  -2.962  0.00  0.00    +0.020 A 
ATOM     33  C   UNL     1       2.586   2.744  -3.859  0.00  0.00    +0.111 A 
ATOM     34  N   UNL     1       1.784   1.700  -3.936  0.00  0.00    -0.263 NA
ATOM     35  C   UNL     1       0.717   1.588  -3.169  0.00  0.00    +0.112 A 
ENDBRANCH  29  30
ENDBRANCH  27  29
BRANCH  27  36
ATOM     36  C   UNL     1      -1.417   2.810   0.941  0.00  0.00    -0.001 C 
BRANCH  36  37
ATOM     37  C   UNL     1      -0.773   3.142   2.262  0.00  0.00    +0.089 A 
ATOM     38  C   UNL     1      -0.112   4.277   2.552  0.00  0.00    +0.042 A 
ATOM     39  C   UNL     1       0.323   4.167   3.893  0.00  0.00    +0.041 A 
ATOM     40  C   UNL     1      -0.099   2.971   4.343  0.00  0.00    +0.195 A 
ATOM     41  O   UNL     1      -0.767   2.357   3.352  0.00  0.00    -0.470 OA
ENDBRANCH  36  37
ENDBRANCH  27  36
ENDBRANCH   1  27
TORSDOF 9
