REMARK  Name = ZINC06264873
REMARK  11 active torsions:
REMARK  status: ('A' for Active; 'I' for Inactive)
REMARK    1  A    between atoms: C_1  and  C_2
REMARK    2  A    between atoms: C_2  and  C_3
REMARK    3  A    between atoms: C_3  and  N_4
REMARK    4  A    between atoms: C_5  and  C_7
REMARK    5  A    between atoms: C_7  and  N_62
REMARK    6  A    between atoms: C_10  and  O_29
REMARK    7  A    between atoms: C_17  and  C_19
REMARK    8  A    between atoms: C_22  and  O_28
REMARK    9  A    between atoms: C_23  and  O_25
REMARK   10  A    between atoms: O_25  and  C_26
REMARK   11  A    between atoms: C_26  and  C_27
REMARK                            x       y       z     vdW  Elec       q    Type
REMARK                         _______ _______ _______ _____ _____    ______ ____
ROOT
ATOM      1  C   UNL     1       2.472   0.448  -7.043  0.00  0.00    -0.075 C 
ATOM      2  C   UNL     1       3.995   0.542  -7.165  0.00  0.00    +0.016 C 
ATOM      3  C   UNL     1       4.551   1.298  -5.957  0.00  0.00    +0.066 C 
ATOM      4  C   UNL     1       6.076   1.358  -6.043  0.00  0.00    +0.035 C 
ATOM      5  C   UNL     1       6.650  -0.057  -6.049  0.00  0.00    +0.003 C 
ATOM      6  C   UNL     1       6.242  -0.773  -4.760  0.00  0.00    +0.000 C 
ATOM      7  C   UNL     1       4.716  -0.844  -4.678  0.00  0.00    +0.005 C 
ATOM      8  C   UNL     1       4.136   0.573  -4.674  0.00  0.00    +0.011 C 
ATOM      9  C   UNL     1       2.607   0.489  -4.622  0.00  0.00    -0.031 C 
ATOM     10  N   UNL     1       2.132  -0.273  -5.797  0.00  0.00    +0.390 N 
ATOM     11  H   UNL     1       2.593  -1.190  -5.808  0.00  0.00    -0.080 HD
ENDROOT
BRANCH   9  12
ATOM     12  C   UNL     1       2.186  -0.233  -3.368  0.00  0.00    -0.057 A 
ATOM     13  C   UNL     1       2.231  -1.614  -3.318  0.00  0.00    +0.006 A 
ATOM     14  C   UNL     1       1.845  -2.280  -2.171  0.00  0.00    +0.049 A 
ATOM     15  C   UNL     1       1.412  -1.564  -1.066  0.00  0.00    +0.158 A 
ATOM     16  C   UNL     1       1.367  -0.174  -1.116  0.00  0.00    +0.162 A 
ATOM     17  C   UNL     1       1.750   0.487  -2.272  0.00  0.00    +0.051 A 
BRANCH  15  18
ATOM     18  O   UNL     1       1.032  -2.219   0.064  0.00  0.00    -0.503 OA
ATOM     19  H   UNL     1       0.092  -2.446   0.089  0.00  0.00    +0.292 HD
ENDBRANCH  15  18
BRANCH  16  20
ATOM     20  O   UNL     1       0.942   0.533  -0.035  0.00  0.00    -0.489 OA
BRANCH  20  21
ATOM     21  C   UNL     1       0.922   1.956  -0.158  0.00  0.00    +0.226 C 
ATOM     22  C   UNL     1       0.419   2.574   1.149  0.00  0.00    +0.048 C 
ENDBRANCH  20  21
ENDBRANCH  16  20
ENDBRANCH   9  12
BRANCH   3  23
ATOM     23  O   UNL     1       4.024   2.626  -5.944  0.00  0.00    -0.388 OA
ATOM     24  H   UNL     1       4.243   3.144  -6.730  0.00  0.00    +0.210 HD
ENDBRANCH   3  23
BRANCH  10  25
ATOM     25  C   UNL     1       0.670  -0.471  -5.712  0.00  0.00    +0.019 C 
BRANCH  25  27
ATOM     26  N   UNL     1      -1.395   0.887  -5.811  0.00  0.00    -0.317 N 
ATOM     27  C   UNL     1      -0.048   0.853  -5.758  0.00  0.00    +0.196 C 
ATOM     28  O   UNL     1       0.585   1.887  -5.747  0.00  0.00    -0.278 OA
ATOM     29  H   UNL     1      -1.901   0.060  -5.820  0.00  0.00    +0.149 HD
BRANCH  26  30
ATOM     30  C   UNL     1      -2.093   2.174  -5.856  0.00  0.00    +0.104 C 
BRANCH  30  32
ATOM     31  C   UNL     1      -4.333   3.277  -5.959  0.00  0.00    +0.005 C 
ATOM     32  C   UNL     1      -3.603   1.933  -5.912  0.00  0.00    +0.015 C 
ENDBRANCH  30  32
ENDBRANCH  26  30
ENDBRANCH  25  27
ENDBRANCH  10  25
TORSDOF 9
