REMARK  Name = ZINC10065441
REMARK  9 active torsions:
REMARK  status: ('A' for Active; 'I' for Inactive)
REMARK    1  A    between atoms: C_1  and  C_2
REMARK    2  A    between atoms: C_2  and  C_3
REMARK    3  A    between atoms: C_3  and  N_4
REMARK    4  A    between atoms: C_8  and  S_31
REMARK    5  A    between atoms: N_13  and  C_14
REMARK    6  A    between atoms: C_14  and  C_16
REMARK    7  A    between atoms: N_22  and  S_23
REMARK    8  A    between atoms: S_23  and  C_26
REMARK    9  A    between atoms: S_31  and  C_32
REMARK                            x       y       z     vdW  Elec       q    Type
REMARK                         _______ _______ _______ _____ _____    ______ ____
ROOT
ATOM      1  C   UNL     1       4.218  -4.377  -0.008  0.00  0.00    +0.257 C 
ATOM      2  O   UNL     1       4.973  -3.429  -0.104  0.00  0.00    -0.272 OA
ENDROOT
BRANCH   1  12
ATOM      3  N   UNL     1       1.127  -2.538   0.181  0.00  0.00    -0.321 N 
ATOM      4  C   UNL     1       0.812  -1.190   0.159  0.00  0.00    +0.058 A 
ATOM      5  C   UNL     1      -0.456  -0.593   0.242  0.00  0.00    +0.028 A 
ATOM      6  C   UNL     1      -0.595   0.773   0.204  0.00  0.00    +0.017 A 
ATOM      7  C   UNL     1       0.513   1.606   0.083  0.00  0.00    +0.009 A 
ATOM      8  C   UNL     1       1.779   1.038  -0.001  0.00  0.00    +0.032 A 
ATOM      9  C   UNL     1       1.912  -0.329   0.037  0.00  0.00    +0.040 A 
ATOM     10  S   UNL     1       3.293  -1.442  -0.037  0.00  0.00    -0.052 S 
ATOM     11  C   UNL     1       2.423  -2.936   0.089  0.00  0.00    +0.166 A 
ATOM     12  N   UNL     1       2.908  -4.176   0.093  0.00  0.00    -0.155 NA
BRANCH   7  13
ATOM     13  S   UNL     1       0.315   3.356   0.035  0.00  0.00    -0.129 S 
ATOM     14  C   UNL     1      -1.478   3.598   0.173  0.00  0.00    +0.090 C 
ENDBRANCH   7  13
BRANCH   3  15
ATOM     15  C   UNL     1       0.063  -3.537   0.306  0.00  0.00    +0.124 C 
BRANCH  15  17
ATOM     16  C   UNL     1      -1.539  -4.980  -0.957  0.00  0.00    +0.005 C 
ATOM     17  C   UNL     1      -0.427  -3.937  -1.087  0.00  0.00    +0.018 C 
ENDBRANCH  15  17
ENDBRANCH   3  15
ENDBRANCH   1  12
BRANCH   1  18
ATOM     18  C   UNL     1       4.767  -5.781  -0.002  0.00  0.00    +0.167 C 
ATOM     19  C   UNL     1       5.474  -6.061  -1.332  0.00  0.00    +0.030 C 
ATOM     20  C   UNL     1       6.148  -7.433  -1.268  0.00  0.00    +0.003 C 
ATOM     21  C   UNL     1       7.197  -7.437  -0.153  0.00  0.00    +0.017 C 
ATOM     22  C   UNL     1       6.509  -7.173   1.190  0.00  0.00    +0.110 C 
ATOM     23  N   UNL     1       5.739  -5.925   1.090  0.00  0.00    -0.164 NA
BRANCH  23  24
ATOM     24  S   UNL     1       5.962  -4.705   2.188  0.00  0.00    +0.068 S 
ATOM     25  O   UNL     1       4.773  -3.928   2.178  0.00  0.00    -0.152 OA
ATOM     26  O   UNL     1       6.467  -5.310   3.370  0.00  0.00    -0.152 OA
BRANCH  24  27
ATOM     27  C   UNL     1       7.245  -3.671   1.563  0.00  0.00    +0.143 A 
ATOM     28  C   UNL     1       7.144  -2.503   0.883  0.00  0.00    +0.036 A 
ATOM     29  C   UNL     1       8.300  -1.856   0.488  0.00  0.00    +0.010 A 
ATOM     30  C   UNL     1       9.500  -2.409   0.792  0.00  0.00    +0.047 A 
ATOM     31  S   UNL     1       9.014  -3.886   1.670  0.00  0.00    -0.077 S 
ENDBRANCH  24  27
ENDBRANCH  23  24
ENDBRANCH   1  18
TORSDOF 7
