REMARK  Name = ZINC02743991
REMARK  6 active torsions:
REMARK  status: ('A' for Active; 'I' for Inactive)
REMARK    1  A    between atoms: C_1  and  C_2
REMARK    2  A    between atoms: C_2  and  C_3
REMARK    3  A    between atoms: C_2  and  C_4
REMARK    4  A    between atoms: C_6  and  C_9
REMARK    5  A    between atoms: N_11  and  N_12
REMARK    6  A    between atoms: C_13  and  C_14
REMARK                            x       y       z     vdW  Elec       q    Type
REMARK                         _______ _______ _______ _____ _____    ______ ____
ROOT
ATOM      1  N   UNL     1       5.057   5.722  -0.018  0.00  0.00    -0.187 NA
ATOM      2  C   UNL     1       4.968   4.427  -0.024  0.00  0.00    +0.145 C 
ENDROOT
BRANCH   2   3
ATOM      3  C   UNL     1       3.645   3.779  -0.013  0.00  0.00    +0.077 A 
ATOM      4  C   UNL     1       3.535   2.420  -0.020  0.00  0.00    +0.209 A 
ATOM      5  O   UNL     1       2.356   1.796  -0.011  0.00  0.00    -0.461 OA
ATOM      6  C   UNL     1       1.174   2.444   0.004  0.00  0.00    +0.157 A 
ATOM      7  C   UNL     1       1.134   3.848   0.012  0.00  0.00    +0.067 A 
ATOM      8  C   UNL     1       2.412   4.587   0.003  0.00  0.00    +0.201 A 
ATOM      9  O   UNL     1       2.445   5.805   0.009  0.00  0.00    -0.286 OA
ATOM     10  C   UNL     1      -0.088   4.517   0.028  0.00  0.00    +0.035 A 
ATOM     11  C   UNL     1      -1.261   3.793   0.035  0.00  0.00    +0.043 A 
ATOM     12  C   UNL     1      -1.225   2.405   0.021  0.00  0.00    +0.043 A 
ATOM     13  C   UNL     1      -0.021   1.732   0.012  0.00  0.00    +0.085 A 
ATOM     14 CL   UNL     1       0.002  -0.004   0.002  0.00  0.00    -0.080 Cl
ATOM     15 CL   UNL     1      -2.788   4.618   0.055  0.00  0.00    -0.083 Cl
ENDBRANCH   2   3
BRANCH   1  18
ATOM     16  C   UNL     1       6.407   7.683  -0.021  0.00  0.00    +0.264 C 
ATOM     17  O   UNL     1       5.398   8.362  -0.007  0.00  0.00    -0.268 OA
ATOM     18  N   UNL     1       6.315   6.338  -0.027  0.00  0.00    -0.203 N 
ATOM     19  H   UNL     1       7.120   5.797  -0.038  0.00  0.00    +0.178 HD
BRANCH  16  22
ATOM     20  C   UNL     1       9.117  10.263  -0.034  0.00  0.00    -0.007 A 
ATOM     21  C   UNL     1       7.865   9.765  -0.030  0.00  0.00    +0.024 A 
ATOM     22  C   UNL     1       7.729   8.330  -0.031  0.00  0.00    +0.046 A 
ATOM     23  C   UNL     1       8.893   7.590  -0.047  0.00  0.00    +0.058 A 
ATOM     24  S   UNL     1      10.133   8.800  -0.053  0.00  0.00    -0.101 S 
BRANCH  20  26
ATOM     25  C   UNL     1      10.402  11.979   1.212  0.00  0.00    +0.013 C 
ATOM     26  C   UNL     1       9.552  11.706  -0.030  0.00  0.00    +0.020 C 
ATOM     27  C   UNL     1      10.377  11.993  -1.286  0.00  0.00    +0.013 C 
ENDBRANCH  20  26
ENDBRANCH  16  22
ENDBRANCH   1  18
TORSDOF 4
