REMARK  Name = ZINC43742806
REMARK  8 active torsions:
REMARK  status: ('A' for Active; 'I' for Inactive)
REMARK    1  A    between atoms: C_1  and  C_2
REMARK    2  A    between atoms: C_2  and  C_4
REMARK    3  A    between atoms: C_2  and  N_11
REMARK    4  A    between atoms: C_4  and  C_5
REMARK    5  A    between atoms: C_5  and  C_6
REMARK    6  A    between atoms: N_11  and  C_12
REMARK    7  A    between atoms: C_12  and  C_13
REMARK    8  A    between atoms: C_20  and  C_33
REMARK                            x       y       z     vdW  Elec       q    Type
REMARK                         _______ _______ _______ _____ _____    ______ ____
ROOT
ATOM      1  C   UNL     1       0.700  -0.626   3.637  0.00  0.00    +0.087 C 
ATOM      2  C   UNL     1      -0.099  -0.308   4.916  0.00  0.00    +0.042 C 
ATOM      3  C   UNL     1      -0.914  -1.479   5.403  0.00  0.00    +0.014 C 
ATOM      4  C   UNL     1      -0.026  -2.654   5.813  0.00  0.00    +0.030 C 
ATOM      5  C   UNL     1       0.906  -2.170   6.933  0.00  0.00    -0.023 C 
ATOM      6  C   UNL     1       1.733  -3.348   7.448  0.00  0.00    +0.007 C 
ATOM      7  C   UNL     1       0.810  -4.399   8.066  0.00  0.00    +0.003 C 
ATOM      8  C   UNL     1      -0.127  -4.953   6.989  0.00  0.00    +0.037 C 
ATOM      9  C   UNL     1      -0.896  -3.798   6.337  0.00  0.00    +0.096 C 
ATOM     10  C   UNL     1      -2.189  -4.117   5.589  0.00  0.00    +0.196 C 
ATOM     11  O   UNL     1      -2.180  -3.475   6.867  0.00  0.00    -0.368 OA
ATOM     12  C   UNL     1       1.828  -1.101   6.354  0.00  0.00    +0.052 C 
ATOM     13  C   UNL     1       1.027   0.101   5.886  0.00  0.00    +0.181 C 
ATOM     14  O   UNL     1       1.913   0.836   4.996  0.00  0.00    -0.461 OA
ATOM     15  C   UNL     1       1.999   0.139   3.838  0.00  0.00    +0.309 C 
ATOM     16  O   UNL     1       2.946   0.127   3.088  0.00  0.00    -0.251 OA
ATOM     17  C   UNL     1       0.075  -1.586   8.077  0.00  0.00    +0.011 C 
ENDROOT
BRANCH   1  18
ATOM     18  C   UNL     1      -0.040  -0.119   2.398  0.00  0.00    -0.067 C 
BRANCH  18  19
ATOM     19  N   UNL     1       0.713  -0.491   1.192  0.00  0.00    +0.381 N 
ATOM     20  H   UNL     1       0.798  -1.495   1.145  0.00  0.00    -0.086 HD
ATOM     21  H   UNL     1       1.632  -0.076   1.228  0.00  0.00    -0.086 HD
BRANCH  19  23
ATOM     22  C   UNL     1      -0.019   1.526   0.010  0.00  0.00    -0.014 C 
ATOM     23  C   UNL     1       0.002  -0.004   0.002  0.00  0.00    -0.075 C 
BRANCH  23  24
ATOM     24  C   UNL     1       0.718  -0.497  -1.257  0.00  0.00    -0.008 C 
BRANCH  24  25
ATOM     25  C   UNL     1       0.630  -2.023  -1.329  0.00  0.00    +0.073 C 
BRANCH  25  26
ATOM     26  C   UNL     1       1.336  -2.509  -2.568  0.00  0.00    +0.105 A 
ATOM     27  C   UNL     1       2.635  -2.848  -2.653  0.00  0.00    +0.044 A 
ATOM     28  C   UNL     1       2.869  -3.244  -3.990  0.00  0.00    +0.041 A 
ATOM     29  C   UNL     1       1.699  -3.123  -4.643  0.00  0.00    +0.195 A 
ATOM     30  O   UNL     1       0.773  -2.683  -3.775  0.00  0.00    -0.468 OA
ENDBRANCH  25  26
ENDBRANCH  24  25
ENDBRANCH  23  24
ENDBRANCH  19  23
ENDBRANCH  18  19
ENDBRANCH   1  18
TORSDOF 6
