REMARK  Name = ZINC64541239
REMARK  10 active torsions:
REMARK  status: ('A' for Active; 'I' for Inactive)
REMARK    1  A    between atoms: C_1  and  C_2
REMARK    2  A    between atoms: C_2  and  C_4
REMARK    3  A    between atoms: C_2  and  C_23
REMARK    4  A    between atoms: C_10  and  C_12
REMARK    5  A    between atoms: N_25  and  C_26
REMARK    6  A    between atoms: C_26  and  C_27
REMARK    7  A    between atoms: C_30  and  O_35
REMARK    8  A    between atoms: C_32  and  O_33
REMARK    9  A    between atoms: O_33  and  C_34
REMARK   10  A    between atoms: O_35  and  C_36
REMARK                            x       y       z     vdW  Elec       q    Type
REMARK                         _______ _______ _______ _____ _____    ______ ____
ROOT
ATOM      1  C   UNL     1      -1.433  -0.534   0.013  0.00  0.00    +0.004 C 
ATOM      2  C   UNL     1      -1.412  -2.064   0.006  0.00  0.00    +0.023 C 
ATOM      3  C   UNL     1      -2.850  -2.591   0.052  0.00  0.00    +0.108 C 
ATOM      4  N   UNL     1      -3.608  -1.993  -1.055  0.00  0.00    -0.300 N 
ATOM      5  C   UNL     1      -3.620  -0.530  -1.195  0.00  0.00    +0.108 C 
ATOM      6  C   UNL     1      -2.173  -0.026  -1.227  0.00  0.00    +0.023 C 
ATOM      7  C   UNL     1      -4.280  -2.771  -1.927  0.00  0.00    +0.242 C 
ATOM      8  O   UNL     1      -4.263  -3.977  -1.801  0.00  0.00    -0.273 OA
ENDROOT
BRANCH   7   9
ATOM      9  C   UNL     1      -5.053  -2.143  -3.057  0.00  0.00    +0.190 C 
ATOM     10  C   UNL     1      -6.158  -1.267  -2.510  0.00  0.00    +0.016 C 
ATOM     11  C   UNL     1      -7.316  -1.791  -2.973  0.00  0.00    -0.002 A 
ATOM     12  C   UNL     1      -8.721  -1.405  -2.800  0.00  0.00    +0.029 A 
ATOM     13  C   UNL     1      -9.683  -2.143  -3.402  0.00  0.00    +0.042 A 
ATOM     14  C   UNL     1      -9.371  -3.264  -4.185  0.00  0.00    +0.022 A 
ATOM     15  C   UNL     1      -8.103  -3.680  -4.389  0.00  0.00    +0.027 A 
ATOM     16  C   UNL     1      -7.013  -2.979  -3.804  0.00  0.00    +0.043 A 
ATOM     17  N   UNL     1      -5.717  -3.180  -3.854  0.00  0.00    -0.370 N 
ATOM     18 CL   UNL     1     -11.347  -1.690  -3.199  0.00  0.00    -0.084 Cl
ATOM     19  H   UNL     1      -5.273  -3.895  -4.336  0.00  0.00    +0.161 HD
ENDBRANCH   7   9
BRANCH   1  21
ATOM     20  C   UNL     1      -0.019   1.526   0.010  0.00  0.00    +0.017 C 
ATOM     21  C   UNL     1       0.002  -0.004   0.002  0.00  0.00    +0.075 C 
BRANCH  21  22
ATOM     22  C   UNL     1       0.731  -0.503   1.223  0.00  0.00    +0.216 C 
ATOM     23  O   UNL     1       0.159  -1.213   2.023  0.00  0.00    -0.276 OA
ATOM     24  N   UNL     1       2.019  -0.161   1.426  0.00  0.00    -0.311 N 
ATOM     25  H   UNL     1       2.476   0.406   0.786  0.00  0.00    +0.149 HD
BRANCH  24  26
ATOM     26  C   UNL     1       2.727  -0.647   2.613  0.00  0.00    +0.143 C 
BRANCH  26  27
ATOM     27  C   UNL     1       4.141  -0.125   2.602  0.00  0.00    +0.011 A 
ATOM     28  C   UNL     1       5.173  -0.937   2.173  0.00  0.00    +0.012 A 
ATOM     29  C   UNL     1       6.471  -0.462   2.162  0.00  0.00    +0.046 A 
ATOM     30  C   UNL     1       6.740   0.833   2.582  0.00  0.00    +0.124 A 
ATOM     31  C   UNL     1       5.706   1.650   3.013  0.00  0.00    +0.091 A 
ATOM     32  C   UNL     1       4.404   1.172   3.018  0.00  0.00    +0.128 A 
BRANCH  32  33
ATOM     33  O   UNL     1       3.388   1.973   3.434  0.00  0.00    -0.495 OA
ATOM     34  C   UNL     1       3.732   3.296   3.847  0.00  0.00    +0.277 C 
ENDBRANCH  32  33
BRANCH  30  35
ATOM     35  O   UNL     1       8.016   1.300   2.571  0.00  0.00    -0.495 OA
ATOM     36  C   UNL     1       9.031   0.403   2.115  0.00  0.00    +0.277 C 
ENDBRANCH  30  35
ENDBRANCH  26  27
ENDBRANCH  24  26
ENDBRANCH  21  22
ENDBRANCH   1  21
TORSDOF 7
