REMARK  Name = ZINC39836025
REMARK  11 active torsions:
REMARK  status: ('A' for Active; 'I' for Inactive)
REMARK    1  A    between atoms: C_1  and  C_2
REMARK    2  A    between atoms: C_2  and  C_3
REMARK    3  A    between atoms: C_3  and  N_4
REMARK    4  A    between atoms: C_8  and  C_9
REMARK    5  A    between atoms: C_10  and  O_21
REMARK    6  A    between atoms: C_13  and  C_20
REMARK    7  A    between atoms: O_21  and  C_22
REMARK    8  A    between atoms: C_24  and  C_31
REMARK    9  A    between atoms: C_27  and  C_28
REMARK   10  A    between atoms: C_28  and  C_29
REMARK   11  A    between atoms: C_28  and  C_30
REMARK                            x       y       z     vdW  Elec       q    Type
REMARK                         _______ _______ _______ _____ _____    ______ ____
ROOT
ATOM      1  C   UNL     1       3.884  -4.506   0.376  0.00  0.00    +0.103 A 
ATOM      2  C   UNL     1       4.771  -5.472   0.900  0.00  0.00    +0.235 A 
ATOM      3  N   UNL     1       5.872  -5.080   1.522  0.00  0.00    -0.194 NA
ATOM      4  C   UNL     1       6.170  -3.789   1.670  0.00  0.00    +0.147 A 
ATOM      5  C   UNL     1       7.354  -3.433   2.341  0.00  0.00    -0.007 A 
ATOM      6  C   UNL     1       7.667  -2.115   2.497  0.00  0.00    +0.008 A 
ATOM      7  C   UNL     1       6.804  -1.134   1.988  0.00  0.00    +0.019 A 
ATOM      8  C   UNL     1       5.671  -1.495   1.346  0.00  0.00    +0.096 A 
ATOM      9  N   UNL     1       5.349  -2.810   1.184  0.00  0.00    -0.267 N 
ATOM     10  C   UNL     1       4.212  -3.137   0.534  0.00  0.00    +0.269 A 
ATOM     11  O   UNL     1       3.477  -2.270   0.094  0.00  0.00    -0.266 OA
ATOM     12  C   UNL     1       8.269  -4.500   2.883  0.00  0.00    +0.047 C 
ENDROOT
BRANCH   1  17
ATOM     13  N   UNL     1       3.722  -7.010  -3.107  0.00  0.00    -0.255 N 
ATOM     14  C   UNL     1       3.916  -6.213  -2.070  0.00  0.00    +0.258 C 
ATOM     15  O   UNL     1       5.041  -5.909  -1.715  0.00  0.00    -0.269 OA
ATOM     16  C   UNL     1       2.771  -5.721  -1.379  0.00  0.00    +0.077 C 
ATOM     17  C   UNL     1       2.701  -4.896  -0.294  0.00  0.00    +0.039 C 
ATOM     18  S   UNL     1       1.453  -6.477  -2.320  0.00  0.00    -0.061 S 
ATOM     19  C   UNL     1       2.473  -7.343  -3.503  0.00  0.00    +0.121 C 
ATOM     20  S   UNL     1       1.992  -8.342  -4.808  0.00  0.00    -0.027 S 
BRANCH  13  21
ATOM     21  C   UNL     1       4.876  -7.534  -3.841  0.00  0.00    +0.115 C 
BRANCH  21  23
ATOM     22  C   UNL     1       6.453  -7.113  -5.732  0.00  0.00    +0.005 C 
ATOM     23  C   UNL     1       5.247  -6.566  -4.966  0.00  0.00    +0.016 C 
ENDBRANCH  21  23
ENDBRANCH  13  21
ENDBRANCH   1  17
BRANCH   2  24
ATOM     24  O   UNL     1       4.498  -6.790   0.766  0.00  0.00    -0.437 OA
BRANCH  24  25
ATOM     25  C   UNL     1       5.351  -7.680   1.339  0.00  0.00    +0.134 A 
ATOM     26  C   UNL     1       6.385  -8.230   0.594  0.00  0.00    +0.050 A 
ATOM     27  C   UNL     1       7.251  -9.133   1.177  0.00  0.00    -0.047 A 
ATOM     28  C   UNL     1       7.088  -9.491   2.503  0.00  0.00    +0.004 A 
ATOM     29  C   UNL     1       6.059  -8.945   3.248  0.00  0.00    +0.008 A 
ATOM     30  C   UNL     1       5.194  -8.036   2.670  0.00  0.00    -0.002 A 
ATOM     31  C   UNL     1       8.373  -9.731   0.369  0.00  0.00    +0.044 C 
BRANCH  30  32
ATOM     32  C   UNL     1       4.076  -7.436   3.484  0.00  0.00    +0.016 C 
ATOM     33  C   UNL     1       3.161  -8.552   3.994  0.00  0.00    +0.012 C 
ATOM     34  C   UNL     1       4.663  -6.674   4.674  0.00  0.00    +0.012 C 
ENDBRANCH  30  32
ENDBRANCH  24  25
ENDBRANCH   2  24
TORSDOF 6
