REMARK  Name = ZINC43525167
REMARK  8 active torsions:
REMARK  status: ('A' for Active; 'I' for Inactive)
REMARK    1  A    between atoms: C_1  and  C_2
REMARK    2  A    between atoms: C_2  and  C_3
REMARK    3  A    between atoms: C_12  and  C_14
REMARK    4  A    between atoms: C_14  and  N_15
REMARK    5  A    between atoms: N_15  and  C_16
REMARK    6  A    between atoms: N_15  and  C_27
REMARK    7  A    between atoms: C_16  and  C_17
REMARK    8  A    between atoms: C_27  and  C_28
REMARK                            x       y       z     vdW  Elec       q    Type
REMARK                         _______ _______ _______ _____ _____    ______ ____
ROOT
ATOM      1  N   UNL     1       5.292  -2.800  -2.213  0.00  0.00    +0.384 N 
ATOM      2  H   UNL     1       5.466  -2.058  -2.875  0.00  0.00    -0.081 HD
ENDROOT
BRANCH   1   3
ATOM      3  C   UNL     1       3.855  -3.103  -2.183  0.00  0.00    -0.094 C 
BRANCH   3  11
ATOM      4  C   UNL     1       1.778  -2.817  -5.925  0.00  0.00    -0.025 C 
ATOM      5  C   UNL     1       3.295  -2.624  -5.867  0.00  0.00    -0.075 C 
ATOM      6  N   UNL     1       3.710  -2.322  -4.495  0.00  0.00    +0.381 N 
ATOM      7  C   UNL     1       3.091  -1.078  -4.031  0.00  0.00    -0.078 C 
ATOM      8  C   UNL     1       1.567  -1.219  -4.029  0.00  0.00    -0.015 C 
ATOM      9  C   UNL     1       1.198  -2.629  -4.517  0.00  0.00    -0.013 C 
ATOM     10  C   UNL     1       1.857  -3.652  -3.581  0.00  0.00    -0.014 C 
ATOM     11  C   UNL     1       3.373  -3.430  -3.598  0.00  0.00    -0.085 C 
ATOM     12  H   UNL     1       4.711  -2.195  -4.484  0.00  0.00    -0.082 HD
BRANCH   4  14
ATOM     13  C   UNL     1       1.655  -2.049  -8.299  0.00  0.00    +0.004 C 
ATOM     14  C   UNL     1       1.165  -1.785  -6.873  0.00  0.00    -0.002 C 
ENDBRANCH   4  14
ENDBRANCH   3  11
ENDBRANCH   1   3
BRANCH   1  15
ATOM     15  C   UNL     1       5.731  -2.376  -0.877  0.00  0.00    -0.041 C 
BRANCH  15  16
ATOM     16  C   UNL     1       5.067  -1.071  -0.520  0.00  0.00    -0.039 A 
ATOM     17  C   UNL     1       5.596   0.156  -0.651  0.00  0.00    +0.085 A 
ATOM     18  N   UNL     1       4.700   1.098  -0.225  0.00  0.00    -0.360 N 
ATOM     19  H   UNL     1       4.857   2.056  -0.223  0.00  0.00    +0.165 HD
ATOM     20  C   UNL     1       3.543   0.485   0.201  0.00  0.00    +0.047 A 
ATOM     21  C   UNL     1       3.720  -0.900   0.029  0.00  0.00    +0.001 A 
ATOM     22  C   UNL     1       2.695  -1.781   0.376  0.00  0.00    +0.010 A 
ATOM     23  C   UNL     1       1.522  -1.293   0.878  0.00  0.00    +0.001 A 
ATOM     24  C   UNL     1       1.341   0.073   1.046  0.00  0.00    +0.002 A 
ATOM     25  C   UNL     1       2.343   0.960   0.719  0.00  0.00    +0.026 A 
ENDBRANCH  15  16
ENDBRANCH   1  15
BRANCH   1  26
ATOM     26  C   UNL     1       6.038  -3.999  -2.616  0.00  0.00    -0.041 C 
BRANCH  26  27
ATOM     27  C   UNL     1       7.495  -3.653  -2.783  0.00  0.00    -0.039 A 
ATOM     28  C   UNL     1       8.118  -3.358  -3.934  0.00  0.00    +0.085 A 
ATOM     29  N   UNL     1       9.440  -3.097  -3.695  0.00  0.00    -0.360 N 
ATOM     30  H   UNL     1      10.093  -2.860  -4.373  0.00  0.00    +0.165 HD
ATOM     31  C   UNL     1       9.706  -3.221  -2.350  0.00  0.00    +0.047 A 
ATOM     32  C   UNL     1       8.498  -3.569  -1.719  0.00  0.00    +0.001 A 
ATOM     33  C   UNL     1       8.463  -3.757  -0.336  0.00  0.00    +0.010 A 
ATOM     34  C   UNL     1       9.605  -3.599   0.399  0.00  0.00    +0.001 A 
ATOM     35  C   UNL     1      10.799  -3.252  -0.219  0.00  0.00    +0.002 A 
ATOM     36  C   UNL     1      10.857  -3.070  -1.583  0.00  0.00    +0.026 A 
ENDBRANCH  26  27
ENDBRANCH   1  26
TORSDOF 7
