REMARK  Name = ZINC46996329
REMARK  3 active torsions:
REMARK  status: ('A' for Active; 'I' for Inactive)
REMARK    1  A    between atoms: C_1  and  C_2
REMARK    2  A    between atoms: N_11  and  C_12
REMARK    3  A    between atoms: C_12  and  C_13
REMARK                            x       y       z     vdW  Elec       q    Type
REMARK                         _______ _______ _______ _____ _____    ______ ____
ROOT
ATOM      1  C   UNL     1      -0.023   1.525   0.010  0.00  0.00    +0.009 C 
ATOM      2  C   UNL     1      -0.002  -0.005   0.002  0.00  0.00    +0.003 C 
ATOM      3  C   UNL     1       0.715  -0.499  -1.257  0.00  0.00    +0.006 C 
ATOM      4  C   UNL     1       0.709  -2.029  -1.282  0.00  0.00    +0.019 C 
ATOM      5  C   UNL     1       1.461  -2.559  -0.058  0.00  0.00    +0.109 C 
ATOM      6  N   UNL     1       0.868  -1.973   1.152  0.00  0.00    -0.285 N 
ATOM      7  C   UNL     1       0.742  -0.512   1.241  0.00  0.00    +0.112 C 
ATOM      8  C   UNL     1       0.447  -2.761   2.161  0.00  0.00    +0.302 C 
ATOM      9  O   UNL     1       0.043  -2.263   3.194  0.00  0.00    -0.253 OA
ATOM     10  N   UNL     1       0.473  -4.102   2.026  0.00  0.00    -0.295 N 
ATOM     11  H   UNL     1       0.864  -4.502   1.232  0.00  0.00    +0.151 HD
ENDROOT
BRANCH  10  12
ATOM     12  C   UNL     1      -0.087  -4.956   3.076  0.00  0.00    +0.148 C 
BRANCH  12  13
ATOM     13  C   UNL     1       0.068  -6.402   2.683  0.00  0.00    +0.008 A 
ATOM     14  C   UNL     1       1.091  -7.252   2.942  0.00  0.00    +0.014 A 
ATOM     15  C   UNL     1       1.017  -8.553   2.477  0.00  0.00    +0.028 A 
ATOM     16  C   UNL     1      -0.079  -8.938   1.775  0.00  0.00    +0.078 A 
ATOM     17  S   UNL     1      -1.054  -7.443   1.763  0.00  0.00    -0.080 S 
ATOM     18 CL   UNL     1      -0.441 -10.486   1.077  0.00  0.00    -0.076 Cl
ENDBRANCH  12  13
ENDBRANCH  10  12
TORSDOF 2
