REMARK  Name = ZINC20071081
REMARK  10 active torsions:
REMARK  status: ('A' for Active; 'I' for Inactive)
REMARK    1  A    between atoms: C_1  and  C_2
REMARK    2  A    between atoms: C_5  and  O_35
REMARK    3  A    between atoms: C_6  and  C_8
REMARK    4  A    between atoms: C_18  and  O_33
REMARK    5  A    between atoms: C_21  and  C_23
REMARK    6  A    between atoms: C_26  and  O_31
REMARK    7  A    between atoms: C_27  and  O_29
REMARK    8  A    between atoms: O_29  and  C_30
REMARK    9  A    between atoms: O_31  and  C_32
REMARK   10  A    between atoms: O_33  and  C_34
REMARK                            x       y       z     vdW  Elec       q    Type
REMARK                         _______ _______ _______ _____ _____    ______ ____
ROOT
ATOM      1  C   UNL     1       1.329  -2.173  -0.410  0.00  0.00    +0.072 C 
ATOM      2  N   UNL     1       2.383  -2.916  -0.316  0.00  0.00    -0.184 NA
ATOM      3  N   UNL     1       2.097  -4.260  -0.157  0.00  0.00    -0.205 N 
ATOM      4  C   UNL     1       0.649  -4.472  -0.376  0.00  0.00    +0.136 C 
ATOM      5  C   UNL     1       0.090  -3.043  -0.358  0.00  0.00    +0.086 C 
ATOM      6  C   UNL     1       0.156  -5.283   0.794  0.00  0.00    +0.020 A 
ATOM      7  C   UNL     1      -1.203  -5.346   1.047  0.00  0.00    +0.009 A 
ATOM      8  C   UNL     1      -1.685  -6.095   2.103  0.00  0.00    +0.004 A 
ATOM      9  C   UNL     1      -0.802  -6.789   2.910  0.00  0.00    +0.049 A 
ATOM     10  C   UNL     1       0.557  -6.725   2.667  0.00  0.00    +0.162 A 
ATOM     11  C   UNL     1       1.052  -5.959   1.605  0.00  0.00    +0.170 A 
ATOM     12  O   UNL     1       2.401  -5.904   1.453  0.00  0.00    -0.461 OA
ATOM     13  C   UNL     1       2.968  -5.371   0.251  0.00  0.00    +0.311 C 
ENDROOT
BRANCH   1  19
ATOM     14  C   UNL     1      -1.163   2.119  -0.901  0.00  0.00    +0.044 C 
ATOM     15  C   UNL     1       0.138   1.366  -0.787  0.00  0.00    -0.050 A 
ATOM     16  C   UNL     1       1.338   2.055  -0.822  0.00  0.00    +0.007 A 
ATOM     17  C   UNL     1       2.538   1.374  -0.723  0.00  0.00    +0.046 A 
ATOM     18  C   UNL     1       2.545  -0.004  -0.589  0.00  0.00    +0.126 A 
ATOM     19  C   UNL     1       1.333  -0.705  -0.553  0.00  0.00    +0.039 A 
ATOM     20  C   UNL     1       0.128  -0.007  -0.653  0.00  0.00    +0.016 A 
BRANCH  18  21
ATOM     21  O   UNL     1       3.723  -0.673  -0.492  0.00  0.00    -0.506 OA
ATOM     22  H   UNL     1       3.727  -1.768  -0.386  0.00  0.00    +0.292 HD
ENDBRANCH  18  21
ENDBRANCH   1  19
BRANCH  13  23
ATOM     23  C   UNL     1       4.362  -4.865   0.516  0.00  0.00    +0.016 A 
ATOM     24  C   UNL     1       4.559  -3.811   1.389  0.00  0.00    +0.013 A 
ATOM     25  C   UNL     1       5.837  -3.344   1.636  0.00  0.00    +0.050 A 
ATOM     26  C   UNL     1       6.923  -3.933   1.009  0.00  0.00    +0.162 A 
ATOM     27  C   UNL     1       6.725  -4.993   0.130  0.00  0.00    +0.162 A 
ATOM     28  C   UNL     1       5.442  -5.460  -0.109  0.00  0.00    +0.058 A 
BRANCH  27  29
ATOM     29  O   UNL     1       7.788  -5.574  -0.488  0.00  0.00    -0.491 OA
ATOM     30  C   UNL     1       7.509  -6.658  -1.376  0.00  0.00    +0.277 C 
ENDBRANCH  27  29
BRANCH  26  31
ATOM     31  O   UNL     1       8.181  -3.474   1.251  0.00  0.00    -0.491 OA
ATOM     32  C   UNL     1       8.309  -2.382   2.163  0.00  0.00    +0.277 C 
ENDBRANCH  26  31
ENDBRANCH  13  23
BRANCH  10  33
ATOM     33  O   UNL     1       1.418  -7.410   3.465  0.00  0.00    -0.491 OA
ATOM     34  C   UNL     1       0.849  -8.173   4.531  0.00  0.00    +0.277 C 
ENDBRANCH  10  33
TORSDOF 6
