REMARK  Name = ZINC12393434
REMARK  10 active torsions:
REMARK  status: ('A' for Active; 'I' for Inactive)
REMARK    1  A    between atoms: C_1  and  C_2
REMARK    2  A    between atoms: C_2  and  C_3
REMARK    3  A    between atoms: C_2  and  C_4
REMARK    4  A    between atoms: C_4  and  C_6
REMARK    5  A    between atoms: C_4  and  N_19
REMARK    6  A    between atoms: N_8  and  N_9
REMARK    7  A    between atoms: C_10  and  C_12
REMARK    8  A    between atoms: N_16  and  C_17
REMARK    9  A    between atoms: N_19  and  S_20
REMARK   10  A    between atoms: S_20  and  C_23
REMARK                            x       y       z     vdW  Elec       q    Type
REMARK                         _______ _______ _______ _____ _____    ______ ____
ROOT
ATOM      1  C   UNL     1      -1.159   2.025  -1.294  0.00  0.00    +0.166 C 
ENDROOT
BRANCH   1   2
ATOM      2  C   UNL     1      -2.418   1.335  -1.754  0.00  0.00    +0.248 C 
ATOM      3  O   UNL     1      -3.393   1.991  -2.056  0.00  0.00    -0.273 OA
ATOM      4  N   UNL     1      -2.461  -0.010  -1.830  0.00  0.00    -0.233 N 
ATOM      5  H   UNL     1      -1.708  -0.537  -1.519  0.00  0.00    +0.173 HD
BRANCH   4   6
ATOM      6  N   UNL     1      -3.592  -0.646  -2.358  0.00  0.00    -0.229 N 
ATOM      7  C   UNL     1      -3.634  -1.991  -2.434  0.00  0.00    +0.277 C 
ATOM      8  O   UNL     1      -2.734  -2.656  -1.957  0.00  0.00    -0.267 OA
ATOM      9  H   UNL     1      -4.344  -0.119  -2.669  0.00  0.00    +0.173 HD
BRANCH   7  10
ATOM     10  C   UNL     1      -4.766  -2.653  -3.091  0.00  0.00    +0.107 A 
ATOM     11  C   UNL     1      -5.801  -2.029  -3.755  0.00  0.00    +0.047 A 
ATOM     12  C   UNL     1      -6.652  -3.034  -4.227  0.00  0.00    +0.036 A 
ATOM     13  C   UNL     1      -6.137  -4.228  -3.843  0.00  0.00    +0.101 A 
ATOM     14  N   UNL     1      -4.992  -4.009  -3.152  0.00  0.00    -0.345 N 
ATOM     15  C   UNL     1      -4.136  -5.045  -2.567  0.00  0.00    +0.149 C 
ATOM     16 BR   UNL     1      -8.241  -2.774  -5.219  0.00  0.00    -0.049 Br
ENDBRANCH   7  10
ENDBRANCH   4   6
ENDBRANCH   1   2
BRANCH   1  18
ATOM     17  C   UNL     1       0.354   2.405   0.658  0.00  0.00    +0.009 C 
ATOM     18  C   UNL     1      -0.990   1.823   0.214  0.00  0.00    +0.010 C 
ATOM     19  C   UNL     1      -2.124   2.536   0.954  0.00  0.00    +0.009 C 
ENDBRANCH   1  18
BRANCH   1  20
ATOM     20  N   UNL     1      -1.251   3.457  -1.588  0.00  0.00    -0.178 NA
ATOM     21  H   UNL     1      -1.927   3.999  -1.152  0.00  0.00    +0.149 HD
BRANCH  20  22
ATOM     22  S   UNL     1      -0.201   4.150  -2.664  0.00  0.00    +0.059 S 
ATOM     23  O   UNL     1      -0.614   5.500  -2.822  0.00  0.00    -0.153 OA
ATOM     24  O   UNL     1       1.108   3.798  -2.239  0.00  0.00    -0.153 OA
BRANCH  22  25
ATOM     25  C   UNL     1      -0.454   3.361  -4.220  0.00  0.00    +0.105 A 
ATOM     26  C   UNL     1       0.279   2.237  -4.552  0.00  0.00    +0.030 A 
ATOM     27  C   UNL     1       0.077   1.615  -5.769  0.00  0.00    +0.022 A 
ATOM     28  C   UNL     1      -0.850   2.124  -6.661  0.00  0.00    +0.041 A 
ATOM     29  C   UNL     1      -1.579   3.253  -6.331  0.00  0.00    +0.022 A 
ATOM     30  C   UNL     1      -1.380   3.871  -5.110  0.00  0.00    +0.030 A 
ATOM     31 CL   UNL     1      -1.099   1.347  -8.193  0.00  0.00    -0.084 Cl
ENDBRANCH  22  25
ENDBRANCH  20  22
ENDBRANCH   1  20
TORSDOF 7
