REMARK  Name = ZINC39558946
REMARK  4 active torsions:
REMARK  status: ('A' for Active; 'I' for Inactive)
REMARK    1  A    between atoms: C_6  and  N_7
REMARK    2  A    between atoms: C_8  and  C_10
REMARK    3  A    between atoms: C_10  and  N_11
REMARK    4  A    between atoms: C_12  and  C_14
REMARK                            x       y       z     vdW  Elec       q    Type
REMARK                         _______ _______ _______ _____ _____    ______ ____
ROOT
ATOM      1  N   UNL     1      -1.202  -0.720   0.010  0.00  0.00    -0.284 N 
ATOM      2  C   UNL     1      -2.374  -0.065   0.126  0.00  0.00    +0.234 C 
ATOM      3  O   UNL     1      -2.393   1.148   0.133  0.00  0.00    -0.274 OA
ATOM      4  H   UNL     1      -1.192  -1.687  -0.063  0.00  0.00    +0.155 HD
ENDROOT
BRANCH   1  10
ATOM      5  C   UNL     1       1.138  -0.544   0.584  0.00  0.00    +0.025 A 
ATOM      6  C   UNL     1       2.328   0.157   0.572  0.00  0.00    +0.029 A 
ATOM      7  C   UNL     1       2.390   1.404  -0.031  0.00  0.00    +0.067 A 
ATOM      8  C   UNL     1       1.250   1.950  -0.625  0.00  0.00    +0.069 A 
ATOM      9  C   UNL     1       0.057   1.244  -0.610  0.00  0.00    +0.051 A 
ATOM     10  C   UNL     1       0.002  -0.003  -0.006  0.00  0.00    +0.036 A 
ATOM     11  N   UNL     1       1.618   3.191  -1.138  0.00  0.00    -0.306 N 
ATOM     12  H   UNL     1       1.034   3.807  -1.608  0.00  0.00    +0.170 HD
ATOM     13  C   UNL     1       2.922   3.392  -0.869  0.00  0.00    +0.325 A 
ATOM     14  O   UNL     1       3.557   4.382  -1.181  0.00  0.00    -0.247 OA
ATOM     15  N   UNL     1       3.416   2.332  -0.202  0.00  0.00    -0.306 N 
ATOM     16  H   UNL     1       4.330   2.232   0.107  0.00  0.00    +0.170 HD
ENDBRANCH   1  10
BRANCH   2  17
ATOM     17  C   UNL     1      -3.662  -0.839   0.248  0.00  0.00    +0.200 C 
BRANCH  17  18
ATOM     18  N   UNL     1      -4.785   0.095   0.360  0.00  0.00    -0.306 N 
ATOM     19  C   UNL     1      -6.042  -0.375   0.480  0.00  0.00    +0.220 C 
ATOM     20  O   UNL     1      -6.244  -1.571   0.495  0.00  0.00    -0.275 OA
ATOM     21  H   UNL     1      -4.623   1.051   0.349  0.00  0.00    +0.149 HD
BRANCH  19  22
ATOM     22  C   UNL     1      -7.197   0.586   0.597  0.00  0.00    +0.117 C 
ATOM     23  C   UNL     1      -8.506  -0.196   0.734  0.00  0.00    +0.055 C 
ATOM     24  C   UNL     1      -9.616   0.740   1.144  0.00  0.00    -0.004 A 
ATOM     25  C   UNL     1     -10.928   0.336   0.964  0.00  0.00    +0.027 A 
ATOM     26  C   UNL     1     -11.970   1.167   1.331  0.00  0.00    +0.041 A 
ATOM     27  C   UNL     1     -11.703   2.408   1.883  0.00  0.00    +0.023 A 
ATOM     28  C   UNL     1     -10.397   2.815   2.063  0.00  0.00    +0.047 A 
ATOM     29  C   UNL     1      -9.346   1.982   1.691  0.00  0.00    +0.124 A 
ATOM     30  O   UNL     1      -8.074   2.422   1.875  0.00  0.00    -0.491 OA
ATOM     31  C   UNL     1      -7.022   1.457   1.847  0.00  0.00    +0.242 C 
ATOM     32 CL   UNL     1     -13.612   0.653   1.102  0.00  0.00    -0.084 Cl
ENDBRANCH  19  22
ENDBRANCH  17  18
ENDBRANCH   2  17
TORSDOF 4
