REMARK  Name = ZINC02627181
REMARK  8 active torsions:
REMARK  status: ('A' for Active; 'I' for Inactive)
REMARK    1  A    between atoms: C_1  and  C_2
REMARK    2  A    between atoms: C_4  and  C_30
REMARK    3  A    between atoms: C_10  and  S_11
REMARK    4  A    between atoms: S_11  and  C_12
REMARK    5  A    between atoms: C_12  and  C_13
REMARK    6  A    between atoms: N_15  and  C_16
REMARK    7  A    between atoms: C_17  and  C_27
REMARK    8  A    between atoms: C_22  and  C_26
REMARK                            x       y       z     vdW  Elec       q    Type
REMARK                         _______ _______ _______ _____ _____    ______ ____
ROOT
ATOM      1  C   UNL     1      -0.718   1.572   1.248  0.00  0.00    +0.228 C 
ATOM      2  O   UNL     1      -1.714   2.256   1.150  0.00  0.00    -0.275 OA
ATOM      3  N   UNL     1      -0.242   1.246   2.466  0.00  0.00    -0.279 N 
ATOM      4  H   UNL     1       0.555   0.699   2.544  0.00  0.00    +0.155 HD
ENDROOT
BRANCH   3   5
ATOM      5  C   UNL     1      -0.891   1.693   3.607  0.00  0.00    +0.084 A 
ATOM      6  C   UNL     1      -0.556   1.465   4.934  0.00  0.00    +0.068 A 
ATOM      7  C   UNL     1      -1.410   2.054   5.952  0.00  0.00    -0.023 A 
ATOM      8  C   UNL     1      -2.454   2.771   5.483  0.00  0.00    -0.004 A 
ATOM      9  S   UNL     1      -2.311   2.678   3.721  0.00  0.00    -0.077 S 
ATOM     10  C   UNL     1      -3.494   3.486   6.289  0.00  0.00    +0.046 C 
ATOM     11  C   UNL     1      -3.418   2.977   7.736  0.00  0.00    -0.009 C 
ATOM     12  C   UNL     1      -1.955   2.987   8.187  0.00  0.00    +0.008 C 
ATOM     13  C   UNL     1      -1.176   1.896   7.449  0.00  0.00    +0.037 C 
ATOM     14  C   UNL     1      -4.244   3.890   8.645  0.00  0.00    +0.008 C 
BRANCH   6  15
ATOM     15  C   UNL     1       0.615   0.661   5.296  0.00  0.00    +0.244 C 
ATOM     16  O   UNL     1       1.698   1.196   5.445  0.00  0.00    -0.270 OA
ATOM     17  N   UNL     1       0.492  -0.671   5.464  0.00  0.00    -0.325 N 
ATOM     18  H   UNL     1      -0.371  -1.097   5.345  0.00  0.00    +0.145 HD
ATOM     19  H   UNL     1       1.267  -1.203   5.703  0.00  0.00    +0.145 HD
ENDBRANCH   6  15
ENDBRANCH   3   5
BRANCH   1  20
ATOM     20  C   UNL     1      -0.013   1.086   0.008  0.00  0.00    +0.173 C 
BRANCH  20  21
ATOM     21  S   UNL     1      -0.890   1.687  -1.462  0.00  0.00    -0.076 S 
BRANCH  21  31
ATOM     22  C   UNL     1      -0.111   1.119  -8.346  0.00  0.00    +0.066 C 
ATOM     23  C   UNL     1      -0.146   1.151  -6.840  0.00  0.00    +0.044 A 
ATOM     24  C   UNL     1      -1.170   1.853  -6.182  0.00  0.00    +0.044 A 
ATOM     25  C   UNL     1      -1.196   1.878  -4.828  0.00  0.00    +0.028 A 
ATOM     26  N   UNL     1      -0.221   1.218  -4.135  0.00  0.00    -0.259 N 
ATOM     27  C   UNL     1       0.771   0.542  -4.813  0.00  0.00    +0.257 A 
ATOM     28  N   UNL     1       0.785   0.532  -6.154  0.00  0.00    -0.216 NA
ATOM     29  N   UNL     1       1.556   0.003  -3.898  0.00  0.00    -0.108 NA
ATOM     30  N   UNL     1       1.125   0.301  -2.724  0.00  0.00    -0.120 NA
ATOM     31  C   UNL     1       0.045   1.043  -2.809  0.00  0.00    +0.198 A 
ATOM     32  C   UNL     1      -2.284   2.622  -4.097  0.00  0.00    +0.064 C 
ENDBRANCH  21  31
ENDBRANCH  20  21
ENDBRANCH   1  20
TORSDOF 5
