REMARK  Name = ZINC20356686
REMARK  6 active torsions:
REMARK  status: ('A' for Active; 'I' for Inactive)
REMARK    1  A    between atoms: C_1  and  C_2
REMARK    2  A    between atoms: C_4  and  C_17
REMARK    3  A    between atoms: C_5  and  C_16
REMARK    4  A    between atoms: N_6  and  C_7
REMARK    5  A    between atoms: C_10  and  O_14
REMARK    6  A    between atoms: O_14  and  C_15
REMARK                            x       y       z     vdW  Elec       q    Type
REMARK                         _______ _______ _______ _____ _____    ______ ____
ROOT
ATOM      1  C   UNL     1       0.130  -3.413  -1.426  0.00  0.00    +0.026 C 
ATOM      2  C   UNL     1       0.588  -3.322  -2.725  0.00  0.00    +0.081 C 
ATOM      3  C   UNL     1       1.179  -2.066  -3.262  0.00  0.00    +0.153 C 
ATOM      4  N   UNL     1       1.872  -1.230  -2.533  0.00  0.00    -0.283 NA
ATOM      5  N   UNL     1       0.920  -1.865  -4.633  0.00  0.00    -0.150 N 
ATOM      6  C   UNL     1       0.636  -2.976  -5.395  0.00  0.00    +0.182 C 
ATOM      7  N   UNL     1       0.479  -4.209  -4.982  0.00  0.00    -0.152 NA
ATOM      8  C   UNL     1       0.523  -4.472  -3.658  0.00  0.00    +0.273 C 
ATOM      9  O   UNL     1       0.506  -5.620  -3.242  0.00  0.00    -0.268 OA
ATOM     10  S   UNL     1       0.522  -2.292  -7.027  0.00  0.00    -0.018 S 
ATOM     11  C   UNL     1       0.757  -0.577  -6.580  0.00  0.00    +0.182 C 
ATOM     12  N   UNL     1       0.936  -0.651  -5.285  0.00  0.00    -0.149 NA
ATOM     13  N   UNL     1       0.751   0.543  -7.396  0.00  0.00    -0.304 N 
ATOM     14  C   UNL     1       0.972   1.887  -6.838  0.00  0.00    +0.135 C 
ATOM     15  C   UNL     1       2.063   2.579  -7.663  0.00  0.00    +0.179 C 
ATOM     16  O   UNL     1       1.716   2.516  -9.049  0.00  0.00    -0.377 OA
ATOM     17  C   UNL     1       1.637   1.188  -9.572  0.00  0.00    +0.179 C 
ATOM     18  C   UNL     1       0.531   0.423  -8.846  0.00  0.00    +0.135 C 
ATOM     19  H   UNL     1       2.207  -0.407  -2.924  0.00  0.00    +0.188 HD
ENDROOT
BRANCH   1  23
ATOM     20  C   UNL     1      -0.266   1.422  -0.016  0.00  0.00    +0.064 C 
ATOM     21  C   UNL     1      -0.171  -0.082  -0.017  0.00  0.00    +0.022 A 
ATOM     22  C   UNL     1      -0.052  -0.854  -1.110  0.00  0.00    +0.031 A 
ATOM     23  C   UNL     1       0.005  -2.243  -0.634  0.00  0.00    -0.003 A 
ATOM     24  C   UNL     1      -0.087  -2.175   0.746  0.00  0.00    +0.028 A 
ATOM     25  N   UNL     1      -0.186  -0.877   1.095  0.00  0.00    -0.317 N 
ATOM     26  C   UNL     1      -0.074  -3.348   1.693  0.00  0.00    +0.064 C 
BRANCH  25  27
ATOM     27  C   UNL     1      -0.294  -0.409   2.413  0.00  0.00    +0.048 A 
ATOM     28  C   UNL     1       0.761  -0.581   3.299  0.00  0.00    +0.030 A 
ATOM     29  C   UNL     1       0.655  -0.120   4.597  0.00  0.00    +0.049 A 
ATOM     30  C   UNL     1      -0.505   0.515   5.015  0.00  0.00    +0.138 A 
ATOM     31  C   UNL     1      -1.560   0.687   4.130  0.00  0.00    +0.084 A 
ATOM     32  C   UNL     1      -1.453   0.232   2.830  0.00  0.00    +0.049 A 
ATOM     33 CL   UNL     1      -3.012   1.482   4.654  0.00  0.00    -0.080 Cl
BRANCH  30  34
ATOM     34  O   UNL     1      -0.609   0.969   6.293  0.00  0.00    -0.494 OA
ATOM     35  C   UNL     1       0.515   0.757   7.149  0.00  0.00    +0.277 C 
ENDBRANCH  30  34
ENDBRANCH  25  27
ENDBRANCH   1  23
TORSDOF 3
