REMARK  Name = ZINC11265167
REMARK  8 active torsions:
REMARK  status: ('A' for Active; 'I' for Inactive)
REMARK    1  A    between atoms: C_1  and  C_2
REMARK    2  A    between atoms: N_13  and  C_28
REMARK    3  A    between atoms: C_14  and  S_16
REMARK    4  A    between atoms: S_16  and  C_17
REMARK    5  A    between atoms: C_17  and  C_18
REMARK    6  A    between atoms: N_24  and  C_25
REMARK    7  A    between atoms: N_24  and  C_26
REMARK    8  A    between atoms: C_28  and  C_29
REMARK                            x       y       z     vdW  Elec       q    Type
REMARK                         _______ _______ _______ _____ _____    ______ ____
ROOT
ATOM      1  C   UNL     1       3.716  -1.545   8.844  0.00  0.00    +0.008 C 
ATOM      2  C   UNL     1       2.977  -1.557   7.504  0.00  0.00    -0.009 C 
ATOM      3  C   UNL     1       3.805  -0.811   6.454  0.00  0.00    +0.008 C 
ATOM      4  C   UNL     1       2.974  -0.604   5.188  0.00  0.00    +0.037 C 
ATOM      5  C   UNL     1       2.408  -1.950   4.745  0.00  0.00    -0.023 A 
ATOM      6  C   UNL     1       2.344  -2.987   5.605  0.00  0.00    -0.004 A 
ATOM      7  S   UNL     1       1.632  -4.316   4.672  0.00  0.00    -0.073 S 
ATOM      8  C   UNL     1       1.420  -3.471   3.125  0.00  0.00    +0.117 A 
ATOM      9  C   UNL     1       1.912  -2.182   3.387  0.00  0.00    +0.076 A 
ATOM     10  C   UNL     1       1.871  -1.264   2.290  0.00  0.00    +0.263 A 
ATOM     11  O   UNL     1       2.281  -0.124   2.422  0.00  0.00    -0.267 OA
ATOM     12  N   UNL     1       1.367  -1.676   1.111  0.00  0.00    -0.283 N 
ATOM     13  C   UNL     1       0.908  -2.950   0.944  0.00  0.00    +0.173 A 
ATOM     14  N   UNL     1       0.940  -3.817   1.936  0.00  0.00    -0.216 NA
ATOM     15  C   UNL     1       2.783  -3.007   7.037  0.00  0.00    +0.046 C 
ENDROOT
BRANCH  13  16
ATOM     16  S   UNL     1       0.264  -3.443  -0.621  0.00  0.00    -0.080 S 
BRANCH  16  17
ATOM     17  C   UNL     1      -0.171  -5.161  -0.254  0.00  0.00    +0.153 C 
BRANCH  17  18
ATOM     18  C   UNL     1      -0.758  -5.804  -1.484  0.00  0.00    +0.146 A 
ATOM     19  N   UNL     1       0.031  -6.419  -2.347  0.00  0.00    -0.199 NA
ATOM     20  C   UNL     1      -0.484  -6.988  -3.434  0.00  0.00    +0.217 A 
ATOM     21  N   UNL     1      -1.794  -6.937  -3.651  0.00  0.00    -0.181 NA
ATOM     22  C   UNL     1      -2.584  -6.317  -2.782  0.00  0.00    +0.222 A 
ATOM     23  N   UNL     1      -2.062  -5.755  -1.694  0.00  0.00    -0.198 NA
ATOM     24  N   UNL     1      -3.945  -6.262  -3.003  0.00  0.00    -0.306 N 
ATOM     25  C   UNL     1      -4.519  -6.886  -4.197  0.00  0.00    +0.132 C 
ATOM     26  C   UNL     1      -4.816  -5.578  -2.043  0.00  0.00    +0.132 C 
ATOM     27  N   UNL     1       0.341  -7.630  -4.335  0.00  0.00    -0.327 N 
ATOM     28  H   UNL     1       1.297  -7.667  -4.176  0.00  0.00    +0.145 HD
ATOM     29  H   UNL     1      -0.035  -8.044  -5.127  0.00  0.00    +0.145 HD
ENDBRANCH  17  18
ENDBRANCH  16  17
ENDBRANCH  13  16
BRANCH  12  30
ATOM     30  C   UNL     1       1.317  -0.740  -0.015  0.00  0.00    +0.154 C 
BRANCH  30  31
ATOM     31  C   UNL     1       0.002  -0.004   0.002  0.00  0.00    -0.013 C 
ATOM     32  C   UNL     1      -0.016   1.306   0.009  0.00  0.00    +0.005 C 
ENDBRANCH  30  31
ENDBRANCH  12  30
TORSDOF 5
