REMARK  Name = ZINC37499213
REMARK  5 active torsions:
REMARK  status: ('A' for Active; 'I' for Inactive)
REMARK    1  A    between atoms: C_2  and  C_3
REMARK    2  A    between atoms: C_3  and  N_4
REMARK    3  A    between atoms: N_4  and  C_5
REMARK    4  A    between atoms: C_5  and  C_6
REMARK    5  A    between atoms: C_12  and  C_14
REMARK                            x       y       z     vdW  Elec       q    Type
REMARK                         _______ _______ _______ _____ _____    ______ ____
ROOT
ATOM      1  N   UNL     1      -0.981  -1.665  -1.177  0.00  0.00    -0.289 N 
ATOM      2  C   UNL     1      -1.448  -1.227  -2.363  0.00  0.00    +0.248 C 
ATOM      3  O   UNL     1      -2.066  -0.181  -2.425  0.00  0.00    -0.270 OA
ENDROOT
BRANCH   2   4
ATOM      4  C   UNL     1      -1.211  -2.015  -3.583  0.00  0.00    +0.045 A 
ATOM      5  C   UNL     1      -1.145  -1.392  -4.883  0.00  0.00    +0.036 A 
ATOM      6  C   UNL     1      -0.923  -2.225  -5.921  0.00  0.00    +0.056 A 
ATOM      7  S   UNL     1      -0.806  -3.820  -5.139  0.00  0.00    -0.089 S 
ATOM      8  C   UNL     1      -1.036  -3.380  -3.537  0.00  0.00    +0.059 A 
ATOM      9 BR   UNL     1      -0.772  -1.802  -7.758  0.00  0.00    -0.043 Br
ENDBRANCH   2   4
BRANCH   1  10
ATOM     10  C   UNL     1      -1.290  -0.926   0.050  0.00  0.00    +0.135 C 
BRANCH  10  12
ATOM     11  C   UNL     1      -0.701   1.422   0.368  0.00  0.00    +0.005 C 
ATOM     12  C   UNL     1      -0.289   0.185   0.233  0.00  0.00    -0.016 C 
ENDBRANCH  10  12
ENDBRANCH   1  10
BRANCH   1  13
ATOM     13  C   UNL     1      -0.164  -2.879  -1.114  0.00  0.00    +0.150 C 
BRANCH  13  14
ATOM     14  C   UNL     1      -0.892  -3.935  -0.323  0.00  0.00    +0.009 A 
ATOM     15  C   UNL     1      -1.752  -4.886  -0.760  0.00  0.00    +0.014 A 
ATOM     16  C   UNL     1      -2.308  -5.760   0.156  0.00  0.00    +0.028 A 
ATOM     17  C   UNL     1      -1.976  -5.638   1.465  0.00  0.00    +0.078 A 
ATOM     18  S   UNL     1      -0.839  -4.261   1.431  0.00  0.00    -0.080 S 
ATOM     19 CL   UNL     1      -2.511  -6.580   2.822  0.00  0.00    -0.076 Cl
ENDBRANCH  13  14
ENDBRANCH   1  13
TORSDOF 5
