REMARK  Name = ZINC35645030
REMARK  11 active torsions:
REMARK  status: ('A' for Active; 'I' for Inactive)
REMARK    1  A    between atoms: C_1  and  C_2
REMARK    2  A    between atoms: C_2  and  N_3
REMARK    3  A    between atoms: N_10  and  C_13
REMARK    4  A    between atoms: C_13  and  C_14
REMARK    5  A    between atoms: C_15  and  C_30
REMARK    6  A    between atoms: C_16  and  C_23
REMARK    7  A    between atoms: N_21  and  C_22
REMARK    8  A    between atoms: C_26  and  C_29
REMARK    9  A    between atoms: C_30  and  O_32
REMARK   10  A    between atoms: O_32  and  C_33
REMARK   11  A    between atoms: C_33  and  C_34
REMARK                            x       y       z     vdW  Elec       q    Type
REMARK                         _______ _______ _______ _____ _____    ______ ____
ROOT
ATOM      1  C   UNL     1      -0.637  -5.997   5.087  0.00  0.00    +0.010 C 
ATOM      2  C   UNL     1      -0.198  -6.260   6.337  0.00  0.00    +0.076 C 
ATOM      3  C   UNL     1       0.053  -7.709   6.706  0.00  0.00    +0.143 C 
ATOM      4  N   UNL     1      -0.204  -8.717   5.663  0.00  0.00    -0.288 N 
ATOM      5  C   UNL     1      -0.642  -8.297   4.460  0.00  0.00    +0.307 C 
ATOM      6  O   UNL     1      -0.857  -9.122   3.593  0.00  0.00    -0.252 OA
ATOM      7  N   UNL     1      -0.853  -7.003   4.189  0.00  0.00    -0.264 N 
ATOM      8  C   UNL     1      -1.335  -6.646   2.853  0.00  0.00    +0.139 C 
ATOM      9  H   UNL     1      -0.062  -9.660   5.839  0.00  0.00    +0.151 HD
ENDROOT
BRANCH   3  10
ATOM     10  C   UNL     1       1.494  -7.837   7.130  0.00  0.00    -0.022 A 
ATOM     11  C   UNL     1       2.490  -7.917   6.175  0.00  0.00    +0.006 A 
ATOM     12  C   UNL     1       3.812  -8.035   6.564  0.00  0.00    +0.004 A 
ATOM     13  C   UNL     1       4.136  -8.072   7.907  0.00  0.00    -0.050 A 
ATOM     14  C   UNL     1       3.140  -7.990   8.861  0.00  0.00    +0.004 A 
ATOM     15  C   UNL     1       1.819  -7.868   8.473  0.00  0.00    +0.006 A 
ATOM     16  C   UNL     1       5.577  -8.201   8.331  0.00  0.00    +0.044 C 
ENDBRANCH   3  10
BRANCH   2  17
ATOM     17  C   UNL     1       0.020  -5.220   7.270  0.00  0.00    +0.339 C 
ATOM     18  O   UNL     1      -0.110  -4.059   6.928  0.00  0.00    -0.245 OA
BRANCH  17  19
ATOM     19  O   UNL     1       0.373  -5.514   8.539  0.00  0.00    -0.462 OA
BRANCH  19  20
ATOM     20  C   UNL     1       0.578  -4.414   9.427  0.00  0.00    +0.229 C 
ATOM     21  C   UNL     1       0.969  -4.940  10.809  0.00  0.00    +0.048 C 
ENDBRANCH  19  20
ENDBRANCH  17  19
ENDBRANCH   2  17
BRANCH   1  22
ATOM     22  C   UNL     1      -0.900  -4.570   4.679  0.00  0.00    -0.026 C 
BRANCH  22  30
ATOM     23  N   UNL     1       2.093  -3.740   0.248  0.00  0.00    -0.300 N 
ATOM     24  C   UNL     1       2.140  -2.630   1.010  0.00  0.00    +0.302 C 
ATOM     25  O   UNL     1       2.100  -1.532   0.489  0.00  0.00    -0.253 OA
ATOM     26  N   UNL     1       2.231  -2.736   2.351  0.00  0.00    -0.287 N 
ATOM     27  C   UNL     1       2.201  -1.505   3.166  0.00  0.00    +0.107 C 
ATOM     28  C   UNL     1       1.338  -1.697   4.426  0.00  0.00    +0.000 C 
ATOM     29  C   UNL     1       0.108  -2.504   4.076  0.00  0.00    -0.077 C 
ATOM     30  N   UNL     1       0.370  -3.919   4.333  0.00  0.00    +0.384 N 
ATOM     31  C   UNL     1       0.952  -4.622   3.254  0.00  0.00    -0.059 C 
ATOM     32  C   UNL     1       2.350  -4.053   2.941  0.00  0.00    +0.091 C 
ATOM     33  H   UNL     1       2.199  -4.614   0.657  0.00  0.00    +0.150 HD
ATOM     34  H   UNL     1       0.987  -3.989   5.128  0.00  0.00    -0.081 HD
BRANCH  23  36
ATOM     35  C   UNL     1       1.869  -5.026  -1.821  0.00  0.00    +0.024 C 
ATOM     36  C   UNL     1       1.881  -3.629  -1.197  0.00  0.00    +0.102 C 
ENDBRANCH  23  36
ENDBRANCH  22  30
ENDBRANCH   1  22
TORSDOF 7
