REMARK  Name = ZINC63281538
REMARK  7 active torsions:
REMARK  status: ('A' for Active; 'I' for Inactive)
REMARK    1  A    between atoms: C_1  and  O_2
REMARK    2  A    between atoms: O_2  and  C_3
REMARK    3  A    between atoms: C_9  and  C_12
REMARK    4  A    between atoms: C_12  and  C_13
REMARK    5  A    between atoms: C_13  and  N_14
REMARK    6  A    between atoms: C_15  and  C_17
REMARK    7  A    between atoms: C_21  and  C_24
REMARK                            x       y       z     vdW  Elec       q    Type
REMARK                         _______ _______ _______ _____ _____    ______ ____
ROOT
ATOM      1  N   UNL     1       1.889  -6.900   0.126  0.00  0.00    -0.311 N 
ATOM      2  C   UNL     1       2.720  -7.498  -0.750  0.00  0.00    +0.238 C 
ATOM      3  O   UNL     1       3.906  -7.223  -0.750  0.00  0.00    -0.271 OA
ATOM      4  H   UNL     1       0.945  -7.119   0.126  0.00  0.00    +0.149 HD
ENDROOT
BRANCH   2   5
ATOM      5  C   UNL     1       2.214  -8.445  -1.671  0.00  0.00    +0.086 C 
ATOM      6  C   UNL     1       3.020  -8.956  -2.624  0.00  0.00    +0.020 C 
ATOM      7  C   UNL     1       2.575 -10.085  -3.546  0.00  0.00    +0.121 C 
ATOM      8  S   UNL     1       4.212 -10.861  -3.901  0.00  0.00    -0.128 S 
ATOM      9  C   UNL     1       5.247  -9.394  -3.487  0.00  0.00    +0.159 C 
ATOM     10  N   UNL     1       4.273  -8.500  -2.829  0.00  0.00    -0.331 N 
ATOM     11  H   UNL     1       4.527  -7.606  -2.550  0.00  0.00    +0.147 HD
BRANCH   9  12
ATOM     12  C   UNL     1       6.361  -9.771  -2.545  0.00  0.00    -0.017 A 
ATOM     13  C   UNL     1       6.151  -9.742  -1.179  0.00  0.00    +0.008 A 
ATOM     14  C   UNL     1       7.173 -10.088  -0.315  0.00  0.00    +0.020 A 
ATOM     15  C   UNL     1       8.406 -10.465  -0.817  0.00  0.00    +0.041 A 
ATOM     16  C   UNL     1       8.615 -10.494  -2.184  0.00  0.00    +0.020 A 
ATOM     17  C   UNL     1       7.591 -10.153  -3.048  0.00  0.00    +0.008 A 
ATOM     18 CL   UNL     1       9.689 -10.899   0.268  0.00  0.00    -0.084 Cl
ENDBRANCH   9  12
ENDBRANCH   2   5
BRANCH   1  19
ATOM     19  C   UNL     1       2.413  -5.919   1.080  0.00  0.00    +0.109 C 
BRANCH  19  20
ATOM     20  C   UNL     1       1.271  -5.395   1.953  0.00  0.00    +0.052 C 
BRANCH  20  27
ATOM     21  C   UNL     1       1.535  -0.811   1.850  0.00  0.00    +0.121 A 
ATOM     22  C   UNL     1       2.121  -0.235   2.991  0.00  0.00    +0.047 A 
ATOM     23  C   UNL     1       2.568  -0.973   4.030  0.00  0.00    +0.029 A 
ATOM     24  C   UNL     1       2.449  -2.434   3.989  0.00  0.00    +0.043 A 
ATOM     25  N   UNL     1       2.795  -3.365   4.843  0.00  0.00    -0.380 N 
ATOM     26  C   UNL     1       2.437  -4.672   4.280  0.00  0.00    +0.144 C 
ATOM     27  C   UNL     1       1.810  -4.386   2.934  0.00  0.00    -0.040 C 
ATOM     28  C   UNL     1       1.832  -3.042   2.788  0.00  0.00    +0.002 A 
ATOM     29  C   UNL     1       1.374  -2.150   1.717  0.00  0.00    +0.055 A 
ATOM     30  H   UNL     1       3.218  -3.216   5.703  0.00  0.00    +0.160 HD
BRANCH  21  32
ATOM     31  C   UNL     1       1.300   1.408   1.030  0.00  0.00    +0.277 C 
ATOM     32  O   UNL     1       1.110   0.003   0.849  0.00  0.00    -0.495 OA
ENDBRANCH  21  32
ENDBRANCH  20  27
ENDBRANCH  19  20
ENDBRANCH   1  19
TORSDOF 6
