REMARK  Name = ZINC35351027
REMARK  16 active torsions:
REMARK  status: ('A' for Active; 'I' for Inactive)
REMARK    1  A    between atoms: C_1  and  C_2
REMARK    2  A    between atoms: C_2  and  C_3
REMARK    3  A    between atoms: C_2  and  C_4
REMARK    4  A    between atoms: C_4  and  N_5
REMARK    5  A    between atoms: N_5  and  C_6
REMARK    6  A    between atoms: C_6  and  C_7
REMARK    7  A    between atoms: N_9  and  C_10
REMARK    8  A    between atoms: N_9  and  C_22
REMARK    9  A    between atoms: C_10  and  C_11
REMARK   10  A    between atoms: C_11  and  C_12
REMARK   11  A    between atoms: C_22  and  C_23
REMARK   12  A    between atoms: C_26  and  C_29
REMARK   13  A    between atoms: C_33  and  C_35
REMARK   14  A    between atoms: C_35  and  C_36
REMARK   15  A    between atoms: C_35  and  C_37
REMARK   16  A    between atoms: C_35  and  C_38
REMARK                            x       y       z     vdW  Elec       q    Type
REMARK                         _______ _______ _______ _____ _____    ______ ____
ROOT
ATOM      1  C   UNL     1       1.532  -2.463   5.370  0.00  0.00    +0.233 C 
ATOM      2  O   UNL     1       2.367  -1.887   6.034  0.00  0.00    -0.274 OA
ATOM      3  N   UNL     1       0.979  -3.605   5.825  0.00  0.00    -0.296 N 
ENDROOT
BRANCH   1   4
ATOM      4  C   UNL     1       1.112  -1.902   4.036  0.00  0.00    +0.203 C 
BRANCH   4   5
ATOM      5  N   UNL     1       1.843  -0.659   3.777  0.00  0.00    -0.292 N 
ATOM      6  C   UNL     1       1.265   0.529   4.040  0.00  0.00    +0.221 C 
ATOM      7  O   UNL     1       1.832   1.559   3.742  0.00  0.00    -0.275 OA
BRANCH   6   8
ATOM      8  C   UNL     1      -0.087   0.579   4.705  0.00  0.00    +0.039 C 
ATOM      9  C   UNL     1      -0.392   2.016   5.132  0.00  0.00    +0.020 C 
ATOM     10  C   UNL     1      -1.157   0.101   3.723  0.00  0.00    +0.020 C 
ATOM     11  C   UNL     1      -0.083  -0.329   5.937  0.00  0.00    +0.020 C 
ENDBRANCH   6   8
BRANCH   5  12
ATOM     12  C   UNL     1       3.201  -0.708   3.232  0.00  0.00    +0.111 C 
BRANCH  12  14
ATOM     13  C   UNL     1       2.562   0.648   1.233  0.00  0.00    +0.009 C 
ATOM     14  C   UNL     1       3.139  -0.689   1.703  0.00  0.00    +0.000 C 
ATOM     15  C   UNL     1       4.547  -0.866   1.133  0.00  0.00    +0.009 C 
ENDBRANCH  12  14
ENDBRANCH   5  12
ENDBRANCH   4   5
ENDBRANCH   1   4
BRANCH   3  16
ATOM     16  C   UNL     1       1.466  -4.211   7.066  0.00  0.00    +0.113 C 
BRANCH  16  17
ATOM     17  C   UNL     1       0.673  -3.656   8.251  0.00  0.00    +0.056 C 
BRANCH  17  18
ATOM     18  C   UNL     1       1.175  -4.279   9.528  0.00  0.00    -0.021 A 
ATOM     19  C   UNL     1       0.666  -5.358  10.144  0.00  0.00    +0.087 A 
ATOM     20  N   UNL     1       1.383  -5.630  11.277  0.00  0.00    -0.360 N 
ATOM     21  H   UNL     1       1.203  -6.362  11.888  0.00  0.00    +0.165 HD
ATOM     22  C   UNL     1       2.396  -4.710  11.422  0.00  0.00    +0.047 A 
ATOM     23  C   UNL     1       2.315  -3.827  10.329  0.00  0.00    +0.003 A 
ATOM     24  C   UNL     1       3.232  -2.781  10.209  0.00  0.00    +0.010 A 
ATOM     25  C   UNL     1       4.207  -2.622  11.152  0.00  0.00    +0.001 A 
ATOM     26  C   UNL     1       4.295  -3.493  12.230  0.00  0.00    +0.002 A 
ATOM     27  C   UNL     1       3.394  -4.526  12.373  0.00  0.00    +0.026 A 
ENDBRANCH  17  18
ENDBRANCH  16  17
ENDBRANCH   3  16
BRANCH   3  28
ATOM     28  C   UNL     1      -0.110  -4.240   5.078  0.00  0.00    +0.143 C 
BRANCH  28  29
ATOM     29  C   UNL     1       0.457  -5.294   4.162  0.00  0.00    -0.030 A 
ATOM     30  C   UNL     1       0.702  -4.997   2.835  0.00  0.00    +0.006 A 
ATOM     31  C   UNL     1       1.223  -5.964   1.995  0.00  0.00    +0.013 A 
ATOM     32  C   UNL     1       1.498  -7.228   2.483  0.00  0.00    +0.055 A 
ATOM     33  C   UNL     1       1.254  -7.524   3.810  0.00  0.00    +0.013 A 
ATOM     34  C   UNL     1       0.737  -6.556   4.651  0.00  0.00    +0.006 A 
BRANCH  32  35
ATOM     35  C   UNL     1       2.064  -8.282   1.567  0.00  0.00    +0.417 C 
ATOM     36  F   UNL     1       3.462  -8.222   1.594  0.00  0.00    -0.166 F 
ATOM     37  F   UNL     1       1.643  -9.546   1.994  0.00  0.00    -0.166 F 
ATOM     38  F   UNL     1       1.613  -8.057   0.262  0.00  0.00    -0.166 F 
ENDBRANCH  32  35
ENDBRANCH  28  29
ENDBRANCH   3  28
TORSDOF 11
