REMARK  Name = ZINC02423635
REMARK  8 active torsions:
REMARK  status: ('A' for Active; 'I' for Inactive)
REMARK    1  A    between atoms: C_1  and  C_2
REMARK    2  A    between atoms: C_2  and  C_3
REMARK    3  A    between atoms: C_3  and  C_25
REMARK    4  A    between atoms: C_10  and  N_16
REMARK    5  A    between atoms: C_12  and  S_14
REMARK    6  A    between atoms: S_14  and  C_15
REMARK    7  A    between atoms: N_16  and  N_17
REMARK    8  A    between atoms: C_18  and  C_20
REMARK                            x       y       z     vdW  Elec       q    Type
REMARK                         _______ _______ _______ _____ _____    ______ ____
ROOT
ATOM      1  C   UNL     1      -8.149  -2.281   1.240  0.00  0.00    +0.071 C 
ATOM      2  C   UNL     1      -7.301  -1.049   1.570  0.00  0.00    +0.071 C 
ATOM      3  C   UNL     1      -6.059  -1.077   0.682  0.00  0.00    -0.020 A 
ATOM      4  C   UNL     1      -6.046  -1.857  -0.419  0.00  0.00    +0.021 A 
ATOM      5  S   UNL     1      -4.452  -1.603  -1.145  0.00  0.00    -0.071 S 
ATOM      6  C   UNL     1      -3.803  -0.447   0.034  0.00  0.00    +0.115 A 
ATOM      7  C   UNL     1      -4.856  -0.295   0.960  0.00  0.00    +0.052 A 
ATOM      8  C   UNL     1      -4.601   0.599   2.037  0.00  0.00    +0.148 A 
ATOM      9  N   UNL     1      -3.432   1.213   2.105  0.00  0.00    -0.205 NA
ATOM     10  C   UNL     1      -2.482   1.024   1.197  0.00  0.00    +0.191 A 
ATOM     11  N   UNL     1      -2.665   0.207   0.169  0.00  0.00    -0.215 NA
ATOM     12  C   UNL     1      -7.160  -2.736  -0.896  0.00  0.00    +0.203 C 
ATOM     13  O   UNL     1      -8.348  -2.376  -0.173  0.00  0.00    -0.368 OA
ATOM     14  C   UNL     1      -7.431  -3.538   1.734  0.00  0.00    +0.042 C 
ENDROOT
BRANCH   1  16
ATOM     15  C   UNL     1     -10.307  -3.448   1.711  0.00  0.00    +0.007 C 
ATOM     16  C   UNL     1      -9.506  -2.164   1.937  0.00  0.00    +0.032 C 
ENDBRANCH   1  16
BRANCH  10  17
ATOM     17  S   UNL     1      -0.950   1.881   1.358  0.00  0.00    -0.089 S 
ATOM     18  C   UNL     1      -0.085   1.255  -0.103  0.00  0.00    +0.093 C 
ENDBRANCH  10  17
BRANCH   8  19
ATOM     19  N   UNL     1      -5.565   0.823   3.002  0.00  0.00    -0.248 N 
ATOM     20  H   UNL     1      -6.469   0.495   2.870  0.00  0.00    +0.172 HD
BRANCH  19  21
ATOM     21  N   UNL     1      -5.237   1.522   4.171  0.00  0.00    -0.235 N 
ATOM     22  C   UNL     1      -6.178   1.741   5.112  0.00  0.00    +0.232 C 
ATOM     23  O   UNL     1      -7.307   1.331   4.947  0.00  0.00    -0.274 OA
ATOM     24  H   UNL     1      -4.334   1.850   4.303  0.00  0.00    +0.173 HD
BRANCH  22  25
ATOM     25  C   UNL     1      -5.825   2.493   6.369  0.00  0.00    +0.076 C 
ATOM     26  C   UNL     1      -5.810   1.708   7.682  0.00  0.00    +0.013 C 
ATOM     27  C   UNL     1      -6.935   2.707   7.400  0.00  0.00    +0.013 C 
ENDBRANCH  22  25
ENDBRANCH  19  21
ENDBRANCH   8  19
TORSDOF 5
