REMARK  Name = ZINC17186118
REMARK  13 active torsions:
REMARK  status: ('A' for Active; 'I' for Inactive)
REMARK    1  A    between atoms: C_1  and  C_2
REMARK    2  A    between atoms: C_2  and  C_3
REMARK    3  A    between atoms: C_2  and  C_4
REMARK    4  A    between atoms: C_2  and  C_5
REMARK    5  A    between atoms: C_7  and  C_16
REMARK    6  A    between atoms: C_9  and  C_12
REMARK    7  A    between atoms: C_10  and  O_11
REMARK    8  A    between atoms: C_12  and  C_13
REMARK    9  A    between atoms: C_12  and  C_14
REMARK   10  A    between atoms: C_12  and  C_15
REMARK   11  A    between atoms: N_20  and  C_21
REMARK   12  A    between atoms: N_28  and  C_29
REMARK   13  A    between atoms: C_29  and  C_30
REMARK                            x       y       z     vdW  Elec       q    Type
REMARK                         _______ _______ _______ _____ _____    ______ ____
ROOT
ATOM      1  C   UNL     1       1.399   1.099  -0.051  0.00  0.00    +0.058 A 
ATOM      2  C   UNL     1       0.473   1.904   0.508  0.00  0.00    +0.075 A 
ATOM      3  S   UNL     1      -0.941   1.639  -0.551  0.00  0.00    -0.059 S 
ATOM      4  C   UNL     1      -0.194   0.467  -1.673  0.00  0.00    +0.152 A 
ATOM      5  N   UNL     1      -0.723  -0.140  -2.718  0.00  0.00    -0.336 N 
ATOM      6  N   UNL     1       1.077   0.363  -1.159  0.00  0.00    -0.316 N 
ATOM      7  H   UNL     1      -1.783   0.017  -2.967  0.00  0.00    +0.168 HD
ENDROOT
BRANCH   5   8
ATOM      8  C   UNL     1       0.046  -0.964  -3.493  0.00  0.00    +0.041 A 
ATOM      9  C   UNL     1       0.755  -0.445  -4.579  0.00  0.00    +0.027 A 
ATOM     10  C   UNL     1       1.533  -1.280  -5.354  0.00  0.00    +0.022 A 
ATOM     11  C   UNL     1       1.604  -2.632  -5.062  0.00  0.00    +0.041 A 
ATOM     12  C   UNL     1       0.900  -3.154  -3.989  0.00  0.00    +0.022 A 
ATOM     13  C   UNL     1       0.123  -2.328  -3.204  0.00  0.00    +0.027 A 
ATOM     14 CL   UNL     1       2.580  -3.678  -6.045  0.00  0.00    -0.084 Cl
ENDBRANCH   5   8
BRANCH   1  17
ATOM     15  C   UNL     1       4.758   2.092   1.306  0.00  0.00    +0.000 A 
ATOM     16  C   UNL     1       3.492   2.176   0.764  0.00  0.00    +0.017 A 
ATOM     17  C   UNL     1       2.757   1.013   0.529  0.00  0.00    -0.000 A 
ATOM     18  C   UNL     1       3.304  -0.230   0.848  0.00  0.00    +0.017 A 
ATOM     19  C   UNL     1       4.573  -0.306   1.384  0.00  0.00    +0.000 A 
ATOM     20  C   UNL     1       5.301   0.853   1.616  0.00  0.00    +0.124 A 
BRANCH  15  22
ATOM     21  C   UNL     1       4.750   4.562   1.091  0.00  0.00    +0.015 C 
ATOM     22  C   UNL     1       5.553   3.347   1.560  0.00  0.00    -0.009 C 
ATOM     23  C   UNL     1       5.841   3.473   3.057  0.00  0.00    +0.015 C 
ATOM     24  C   UNL     1       6.873   3.279   0.790  0.00  0.00    +0.015 C 
ENDBRANCH  15  22
BRANCH  19  25
ATOM     25  C   UNL     1       5.167  -1.649   1.723  0.00  0.00    -0.009 C 
ATOM     26  C   UNL     1       4.167  -2.753   1.372  0.00  0.00    +0.015 C 
ATOM     27  C   UNL     1       6.454  -1.854   0.922  0.00  0.00    +0.015 C 
ATOM     28  C   UNL     1       5.483  -1.704   3.219  0.00  0.00    +0.015 C 
ENDBRANCH  19  25
BRANCH  20  29
ATOM     29  O   UNL     1       6.549   0.774   2.149  0.00  0.00    -0.506 OA
ATOM     30  H   UNL     1       6.980  -0.208   2.395  0.00  0.00    +0.292 HD
ENDBRANCH  20  29
ENDBRANCH   1  17
BRANCH   6  31
ATOM     31  C   UNL     1       2.066  -0.519  -1.784  0.00  0.00    +0.159 C 
BRANCH  31  32
ATOM     32  C   UNL     1       3.258   0.293  -2.221  0.00  0.00    -0.028 A 
ATOM     33  C   UNL     1       3.131   1.209  -3.250  0.00  0.00    +0.005 A 
ATOM     34  C   UNL     1       4.223   1.957  -3.647  0.00  0.00    +0.000 A 
ATOM     35  C   UNL     1       5.444   1.783  -3.024  0.00  0.00    +0.000 A 
ATOM     36  C   UNL     1       5.572   0.864  -1.999  0.00  0.00    +0.000 A 
ATOM     37  C   UNL     1       4.479   0.119  -1.598  0.00  0.00    +0.005 A 
ENDBRANCH  31  32
ENDBRANCH   6  31
TORSDOF 7
