REMARK  Name = ZINC50979293
REMARK  2 active torsions:
REMARK  status: ('A' for Active; 'I' for Inactive)
REMARK    1  A    between atoms: C_2  and  C_13
REMARK    2  A    between atoms: C_13  and  C_15
REMARK                            x       y       z     vdW  Elec       q    Type
REMARK                         _______ _______ _______ _____ _____    ______ ____
ROOT
ATOM      1  C   UNL     1      -0.017   1.380   0.010  0.00  0.00    +0.055 A 
ATOM      2  C   UNL     1       1.175   2.083   0.002  0.00  0.00    -0.016 A 
ATOM      3  C   UNL     1       2.381   1.407  -0.014  0.00  0.00    +0.029 A 
ATOM      4  C   UNL     1       2.404   0.023  -0.022  0.00  0.00    +0.086 A 
ATOM      5  C   UNL     1       1.212  -0.683  -0.013  0.00  0.00    +0.180 A 
ATOM      6  C   UNL     1       0.002  -0.004   0.002  0.00  0.00    +0.164 A 
ATOM      7  O   UNL     1      -1.167  -0.709   0.010  0.00  0.00    -0.488 OA
ATOM      8  C   UNL     1      -1.468  -1.433  -1.184  0.00  0.00    +0.232 C 
ATOM      9  C   UNL     1      -0.780  -2.789  -1.181  0.00  0.00    +0.082 C 
ATOM     10  C   UNL     1       0.736  -2.670  -1.212  0.00  0.00    +0.232 C 
ATOM     11  O   UNL     1       1.220  -2.048  -0.020  0.00  0.00    -0.487 OA
ATOM     12 CL   UNL     1       3.919  -0.824  -0.042  0.00  0.00    -0.080 Cl
ENDROOT
BRANCH   2  13
ATOM     13  C   UNL     1       1.159   3.590   0.011  0.00  0.00    +0.196 C 
ATOM     14 CL   UNL     1       2.141   4.194   1.397  0.00  0.00    -0.107 Cl
BRANCH  13  15
ATOM     15  C   UNL     1       1.741   4.106  -1.280  0.00  0.00    +0.233 C 
ATOM     16  O   UNL     1       2.762   3.621  -1.721  0.00  0.00    -0.274 OA
ATOM     17  N   UNL     1       1.128   5.106  -1.944  0.00  0.00    -0.328 N 
ATOM     18  H   UNL     1       0.312   5.493  -1.591  0.00  0.00    +0.145 HD
ATOM     19  H   UNL     1       1.503   5.438  -2.774  0.00  0.00    +0.145 HD
ENDBRANCH  13  15
ENDBRANCH   2  13
TORSDOF 2
