REMARK  Name = ZINC29649575
REMARK  9 active torsions:
REMARK  status: ('A' for Active; 'I' for Inactive)
REMARK    1  A    between atoms: C_1  and  C_2
REMARK    2  A    between atoms: C_2  and  C_3
REMARK    3  A    between atoms: C_2  and  C_4
REMARK    4  A    between atoms: C_4  and  C_5
REMARK    5  A    between atoms: C_4  and  C_6
REMARK    6  A    between atoms: C_4  and  N_8
REMARK    7  A    between atoms: C_9  and  C_11
REMARK    8  A    between atoms: C_11  and  N_12
REMARK    9  A    between atoms: N_12  and  C_13
REMARK                            x       y       z     vdW  Elec       q    Type
REMARK                         _______ _______ _______ _____ _____    ______ ____
ROOT
ATOM      1  N   UNL     1      -1.195   2.161   0.019  0.00  0.00    -0.296 N 
ATOM      2  C   UNL     1      -0.018   1.503   0.010  0.00  0.00    +0.231 C 
ATOM      3  O   UNL     1       1.024   2.123   0.004  0.00  0.00    -0.274 OA
ATOM      4  H   UNL     1      -2.140   1.598   0.021  0.00  0.00    +0.150 HD
ENDROOT
BRANCH   1   5
ATOM      5  C   UNL     1      -1.214   3.626   0.028  0.00  0.00    +0.121 C 
ATOM      6  C   UNL     1      -0.506   4.152  -1.222  0.00  0.00    +0.048 C 
BRANCH   5   8
ATOM      7  C   UNL     1      -2.686   5.640   0.171  0.00  0.00    +0.010 C 
ATOM      8  C   UNL     1      -2.664   4.116   0.037  0.00  0.00    +0.020 C 
ATOM      9  C   UNL     1      -3.348   3.709  -1.269  0.00  0.00    +0.010 C 
ENDBRANCH   5   8
BRANCH   5  10
ATOM     10  C   UNL     1      -0.522   4.119   1.229  0.00  0.00    +0.088 C 
ATOM     11  N   UNL     1       0.013   4.500   2.156  0.00  0.00    -0.194 NA
ENDBRANCH   5  10
ENDBRANCH   1   5
BRANCH   2  12
ATOM     12  C   UNL     1       0.002  -0.004   0.002  0.00  0.00    +0.197 C 
BRANCH  12  13
ATOM     13  N   UNL     1       1.390  -0.473  -0.014  0.00  0.00    -0.334 N 
ATOM     14  H   UNL     1       2.216   0.253  -0.018  0.00  0.00    +0.147 HD
BRANCH  13  15
ATOM     15  C   UNL     1       1.664  -1.844  -0.024  0.00  0.00    +0.046 A 
ATOM     16  C   UNL     1       0.622  -2.762  -0.019  0.00  0.00    +0.025 A 
ATOM     17  C   UNL     1       0.895  -4.116  -0.029  0.00  0.00    +0.016 A 
ATOM     18  C   UNL     1       2.206  -4.558  -0.043  0.00  0.00    +0.015 A 
ATOM     19  C   UNL     1       3.247  -3.647  -0.048  0.00  0.00    +0.036 A 
ATOM     20  C   UNL     1       2.980  -2.291  -0.044  0.00  0.00    +0.063 A 
ATOM     21 CL   UNL     1       4.286  -1.148  -0.058  0.00  0.00    -0.082 Cl
ATOM     22  I   UNL     1       2.616  -6.613  -0.058  0.00  0.00    -0.044 I 
ENDBRANCH  13  15
ENDBRANCH  12  13
ENDBRANCH   2  12
TORSDOF 6
