REMARK  Name = ZINC28056270
REMARK  4 active torsions:
REMARK  status: ('A' for Active; 'I' for Inactive)
REMARK    1  A    between atoms: C_1  and  O_2
REMARK    2  A    between atoms: O_2  and  C_3
REMARK    3  A    between atoms: C_8  and  C_9
REMARK    4  A    between atoms: C_26  and  C_28
REMARK                            x       y       z     vdW  Elec       q    Type
REMARK                         _______ _______ _______ _____ _____    ______ ____
ROOT
ATOM      1  C   UNL     1      -2.311   2.937   3.568  0.00  0.00    +0.238 C 
ATOM      2  C   UNL     1      -3.567   2.206   3.147  0.00  0.00    +0.026 C 
ATOM      3  C   UNL     1      -4.756   2.749   3.417  0.00  0.00    +0.050 C 
ATOM      4  C   UNL     1      -4.793   4.041   4.142  0.00  0.00    +0.038 A 
ATOM      5  C   UNL     1      -5.936   4.831   4.163  0.00  0.00    +0.013 A 
ATOM      6  C   UNL     1      -5.925   6.027   4.853  0.00  0.00    +0.001 A 
ATOM      7  C   UNL     1      -4.785   6.438   5.522  0.00  0.00    +0.004 A 
ATOM      8  C   UNL     1      -3.642   5.658   5.506  0.00  0.00    +0.046 A 
ATOM      9  C   UNL     1      -3.639   4.460   4.817  0.00  0.00    +0.131 A 
ATOM     10  O   UNL     1      -2.537   3.669   4.772  0.00  0.00    -0.479 OA
ATOM     11  N   UNL     1      -5.959   2.134   3.051  0.00  0.00    -0.282 N 
ATOM     12  C   UNL     1      -5.898   0.809   2.652  0.00  0.00    +0.240 A 
ATOM     13  N   UNL     1      -6.833  -0.081   2.482  0.00  0.00    -0.092 NA
ATOM     14  N   UNL     1      -6.319  -1.204   2.111  0.00  0.00    -0.021 NA
ATOM     15  N   UNL     1      -5.032  -1.103   2.021  0.00  0.00    -0.042 NA
ATOM     16  N   UNL     1      -4.712   0.210   2.365  0.00  0.00    -0.201 N 
ATOM     17  C   UNL     1      -3.425   0.887   2.430  0.00  0.00    +0.174 C 
ATOM     18  H   UNL     1      -6.901   2.701   3.089  0.00  0.00    +0.155 HD
ENDROOT
BRANCH  17  19
ATOM     19  C   UNL     1      -2.921   1.131   1.030  0.00  0.00    -0.016 A 
ATOM     20  C   UNL     1      -1.814   0.446   0.565  0.00  0.00    +0.006 A 
ATOM     21  C   UNL     1      -1.352   0.669  -0.718  0.00  0.00    +0.003 A 
ATOM     22  C   UNL     1      -1.995   1.577  -1.538  0.00  0.00    +0.038 A 
ATOM     23  C   UNL     1      -3.104   2.264  -1.073  0.00  0.00    +0.124 A 
ATOM     24  C   UNL     1      -3.570   2.035   0.211  0.00  0.00    +0.044 A 
ATOM     25  F   UNL     1      -3.733   3.151  -1.873  0.00  0.00    -0.205 F 
ENDBRANCH  17  19
BRANCH   1  31
ATOM     26  C   UNL     1      -0.858   3.563   1.623  0.00  0.00    +0.127 A 
ATOM     27  C   UNL     1      -0.479   4.447   0.623  0.00  0.00    +0.046 A 
ATOM     28  C   UNL     1      -1.150   5.644   0.470  0.00  0.00    +0.004 A 
ATOM     29  C   UNL     1      -2.191   5.968   1.321  0.00  0.00    +0.001 A 
ATOM     30  C   UNL     1      -2.566   5.093   2.323  0.00  0.00    +0.011 A 
ATOM     31  C   UNL     1      -1.902   3.891   2.476  0.00  0.00    +0.039 A 
BRANCH  26  33
ATOM     32  C   UNL     1       0.949   2.171   0.953  0.00  0.00    +0.277 C 
ATOM     33  O   UNL     1      -0.203   2.382   1.772  0.00  0.00    -0.495 OA
ENDBRANCH  26  33
ENDBRANCH   1  31
TORSDOF 3
