REMARK  Name = ZINC48922742
REMARK  10 active torsions:
REMARK  status: ('A' for Active; 'I' for Inactive)
REMARK    1  A    between atoms: C_1  and  C_2
REMARK    2  A    between atoms: C_2  and  C_3
REMARK    3  A    between atoms: C_2  and  C_4
REMARK    4  A    between atoms: C_4  and  C_5
REMARK    5  A    between atoms: C_5  and  N_6
REMARK    6  A    between atoms: N_6  and  C_7
REMARK    7  A    between atoms: N_6  and  C_8
REMARK    8  A    between atoms: C_8  and  C_9
REMARK    9  A    between atoms: N_11  and  C_12
REMARK   10  A    between atoms: C_13  and  N_20
REMARK                            x       y       z     vdW  Elec       q    Type
REMARK                         _______ _______ _______ _____ _____    ______ ____
ROOT
ATOM      1  C   UNL     1      -4.064  -5.440  -1.192  0.00  0.00    +0.201 C 
ATOM      2  O   UNL     1      -4.842  -5.544  -2.117  0.00  0.00    -0.278 OA
ATOM      3  N   UNL     1      -4.408  -5.886   0.032  0.00  0.00    -0.284 N 
ATOM      4  H   UNL     1      -3.761  -5.869   0.754  0.00  0.00    +0.155 HD
ENDROOT
BRANCH   3   5
ATOM      5  C   UNL     1      -5.703  -6.373   0.262  0.00  0.00    +0.073 A 
ATOM      6  C   UNL     1      -5.983  -7.727   0.081  0.00  0.00    +0.049 A 
ATOM      7  C   UNL     1      -7.266  -8.203   0.310  0.00  0.00    +0.044 A 
ATOM      8  C   UNL     1      -8.263  -7.335   0.718  0.00  0.00    +0.044 A 
ATOM      9  C   UNL     1      -7.985  -5.992   0.898  0.00  0.00    +0.042 A 
ATOM     10  C   UNL     1      -6.707  -5.510   0.676  0.00  0.00    +0.065 A 
ATOM     11 CL   UNL     1      -6.362  -3.825   0.911  0.00  0.00    -0.082 Cl
ATOM     12 CL   UNL     1      -9.867  -7.934   1.004  0.00  0.00    -0.083 Cl
BRANCH   6  13
ATOM     13  N   UNL     1      -4.973  -8.602  -0.332  0.00  0.00    -0.356 N 
ATOM     14  H   UNL     1      -4.077  -8.268  -0.493  0.00  0.00    +0.142 HD
ATOM     15  H   UNL     1      -5.170  -9.544  -0.458  0.00  0.00    +0.142 HD
ENDBRANCH   6  13
ENDBRANCH   3   5
BRANCH   1  16
ATOM     16  C   UNL     1      -2.711  -4.813  -1.413  0.00  0.00    +0.018 C 
BRANCH  16  17
ATOM     17  N   UNL     1      -2.580  -4.413  -2.820  0.00  0.00    +0.384 N 
ATOM     18  C   UNL     1      -2.597  -5.609  -3.672  0.00  0.00    -0.096 C 
ATOM     19  H   UNL     1      -3.349  -3.810  -3.072  0.00  0.00    -0.082 HD
BRANCH  17  20
ATOM     20  C   UNL     1      -1.313  -3.695  -3.010  0.00  0.00    -0.078 C 
BRANCH  20  21
ATOM     21  C   UNL     1      -1.233  -3.171  -4.445  0.00  0.00    -0.016 C 
BRANCH  21  23
ATOM     22  C   UNL     1       0.223  -2.006  -6.108  0.00  0.00    +0.007 C 
ATOM     23  C   UNL     1       0.087  -2.422  -4.642  0.00  0.00    -0.019 C 
ATOM     24  C   UNL     1       0.104  -1.176  -3.754  0.00  0.00    +0.007 C 
ENDBRANCH  21  23
ENDBRANCH  20  21
ENDBRANCH  17  20
ENDBRANCH  16  17
ENDBRANCH   1  16
TORSDOF 7
