REMARK  Name = ZINC37163174
REMARK  6 active torsions:
REMARK  status: ('A' for Active; 'I' for Inactive)
REMARK    1  A    between atoms: C_1  and  C_2
REMARK    2  A    between atoms: C_7  and  C_26
REMARK    3  A    between atoms: C_9  and  N_10
REMARK    4  A    between atoms: N_10  and  C_11
REMARK    5  A    between atoms: C_11  and  C_13
REMARK    6  A    between atoms: C_11  and  C_14
REMARK                            x       y       z     vdW  Elec       q    Type
REMARK                         _______ _______ _______ _____ _____    ______ ____
ROOT
ATOM      1  C   UNL     1       2.756  -0.284   2.525  0.00  0.00    -0.044 C 
ATOM      2  C   UNL     1       2.998  -1.789   2.658  0.00  0.00    -0.009 C 
ENDROOT
BRANCH   1   3
ATOM      3  C   UNL     1       3.991   0.463   2.957  0.00  0.00    -0.060 A 
ATOM      4  C   UNL     1       5.057   0.596   2.084  0.00  0.00    +0.004 A 
ATOM      5  C   UNL     1       6.193   1.279   2.471  0.00  0.00    +0.028 A 
ATOM      6  C   UNL     1       6.267   1.833   3.740  0.00  0.00    +0.067 A 
ATOM      7  C   UNL     1       5.192   1.699   4.621  0.00  0.00    +0.067 A 
ATOM      8  C   UNL     1       4.053   1.016   4.221  0.00  0.00    +0.029 A 
ATOM      9  N   UNL     1       5.553   2.349   5.798  0.00  0.00    -0.306 N 
ATOM     10  H   UNL     1       5.006   2.424   6.596  0.00  0.00    +0.170 HD
ATOM     11  C   UNL     1       6.790   2.856   5.641  0.00  0.00    +0.325 A 
ATOM     12  O   UNL     1       7.403   3.484   6.484  0.00  0.00    -0.247 OA
ATOM     13  N   UNL     1       7.248   2.561   4.409  0.00  0.00    -0.306 N 
ATOM     14  H   UNL     1       8.113   2.813   4.050  0.00  0.00    +0.170 HD
ENDBRANCH   1   3
BRANCH   1  15
ATOM     15  N   UNL     1       2.451   0.041   1.125  0.00  0.00    +0.386 N 
ATOM     16  H   UNL     1       2.840  -0.668   0.523  0.00  0.00    -0.085 HD
ATOM     17  H   UNL     1       2.854   0.937   0.893  0.00  0.00    -0.085 HD
BRANCH  15  24
ATOM     18  C   UNL     1       1.268   2.001  -0.653  0.00  0.00    +0.006 C 
ATOM     19  C   UNL     1       0.678   0.601  -0.468  0.00  0.00    -0.028 C 
ATOM     20  C   UNL     1      -0.839   0.659  -0.660  0.00  0.00    +0.002 C 
ATOM     21  C   UNL     1      -1.430  -0.741  -0.474  0.00  0.00    +0.000 C 
ATOM     22  C   UNL     1      -1.113  -1.246   0.935  0.00  0.00    +0.002 C 
ATOM     23  C   UNL     1       0.404  -1.303   1.127  0.00  0.00    -0.028 C 
ATOM     24  C   UNL     1       0.995   0.096   0.941  0.00  0.00    -0.065 C 
ATOM     25  C   UNL     1       1.013  -2.254   0.095  0.00  0.00    +0.006 C 
ENDBRANCH  15  24
ENDBRANCH   1  15
TORSDOF 3
