REMARK  Name = ZINC39672952
REMARK  10 active torsions:
REMARK  status: ('A' for Active; 'I' for Inactive)
REMARK    1  A    between atoms: C_1  and  C_2
REMARK    2  A    between atoms: C_2  and  C_3
REMARK    3  A    between atoms: C_2  and  C_4
REMARK    4  A    between atoms: C_4  and  C_6
REMARK    5  A    between atoms: C_4  and  O_35
REMARK    6  A    between atoms: C_10  and  C_19
REMARK    7  A    between atoms: N_21  and  C_22
REMARK    8  A    between atoms: C_22  and  C_23
REMARK    9  A    between atoms: C_23  and  N_29
REMARK   10  A    between atoms: O_35  and  C_36
REMARK                            x       y       z     vdW  Elec       q    Type
REMARK                         _______ _______ _______ _____ _____    ______ ____
ROOT
ATOM      1  C   UNL     1      -3.946   0.672  -1.372  0.00  0.00    +0.257 C 
ATOM      2  O   UNL     1      -4.696   0.055  -2.098  0.00  0.00    -0.272 OA
ATOM      3  N   UNL     1      -3.942   2.019  -1.396  0.00  0.00    -0.297 N 
ATOM      4  C   UNL     1      -3.049   2.938  -0.651  0.00  0.00    +0.121 C 
ATOM      5  C   UNL     1      -2.735   4.073  -1.652  0.00  0.00    +0.100 C 
ATOM      6  C   UNL     1      -3.908   4.055  -2.646  0.00  0.00    -0.004 C 
ATOM      7  C   UNL     1      -4.826   2.917  -2.177  0.00  0.00    +0.115 C 
ATOM      8  C   UNL     1      -3.401   3.770  -4.056  0.00  0.00    -0.010 C 
ATOM      9  C   UNL     1      -4.578   3.814  -5.035  0.00  0.00    -0.082 C 
ATOM     10  N   UNL     1      -5.213   5.136  -4.980  0.00  0.00    +0.379 N 
ATOM     11  C   UNL     1      -5.779   5.365  -3.645  0.00  0.00    -0.082 C 
ATOM     12  C   UNL     1      -4.653   5.386  -2.608  0.00  0.00    -0.010 C 
ATOM     13  H   UNL     1      -4.525   5.847  -5.178  0.00  0.00    -0.086 HD
ATOM     14  H   UNL     1      -5.949   5.183  -5.668  0.00  0.00    -0.086 HD
ENDROOT
BRANCH   5  15
ATOM     15  C   UNL     1      -2.669   5.398  -0.938  0.00  0.00    +0.218 C 
ATOM     16  O   UNL     1      -3.281   5.561   0.097  0.00  0.00    -0.275 OA
ATOM     17  N   UNL     1      -1.929   6.403  -1.448  0.00  0.00    -0.313 N 
ATOM     18  H   UNL     1      -1.440   6.273  -2.276  0.00  0.00    +0.149 HD
BRANCH  17  19
ATOM     19  C   UNL     1      -1.865   7.691  -0.754  0.00  0.00    +0.126 C 
BRANCH  19  20
ATOM     20  C   UNL     1      -1.069   8.687  -1.600  0.00  0.00    +0.038 C 
ATOM     21  C   UNL     1      -0.951  10.015  -0.849  0.00  0.00    +0.024 C 
ATOM     22  C   UNL     1      -2.350  10.576  -0.583  0.00  0.00    +0.002 C 
ATOM     23  C   UNL     1      -3.069  10.805  -1.913  0.00  0.00    +0.000 C 
ATOM     24  C   UNL     1      -3.186   9.477  -2.665  0.00  0.00    +0.002 C 
ATOM     25  C   UNL     1      -1.788   8.916  -2.931  0.00  0.00    +0.024 C 
BRANCH  20  26
ATOM     26  N   UNL     1       0.274   8.149  -1.855  0.00  0.00    -0.291 NA
ATOM     27  C   UNL     1       0.940   7.776  -0.599  0.00  0.00    +0.113 C 
ATOM     28  C   UNL     1       2.308   7.166  -0.914  0.00  0.00    +0.175 C 
ATOM     29  O   UNL     1       3.076   8.100  -1.678  0.00  0.00    -0.377 OA
ATOM     30  C   UNL     1       2.458   8.484  -2.909  0.00  0.00    +0.175 C 
ATOM     31  C   UNL     1       1.091   9.107  -2.613  0.00  0.00    +0.113 C 
ENDBRANCH  20  26
ENDBRANCH  19  20
ENDBRANCH  17  19
ENDBRANCH   5  15
BRANCH   1  32
ATOM     32  C   UNL     1      -3.018  -0.069  -0.444  0.00  0.00    +0.261 C 
BRANCH  32  34
ATOM     33  C   UNL     1      -1.007   0.888  -1.576  0.00  0.00    +0.011 C 
ATOM     34  C   UNL     1      -1.721  -0.406  -1.181  0.00  0.00    +0.033 C 
ATOM     35  C   UNL     1      -0.813  -1.230  -0.266  0.00  0.00    +0.011 C 
ENDBRANCH  32  34
BRANCH  32  36
ATOM     36  O   UNL     1      -3.645  -1.276  -0.006  0.00  0.00    -0.479 OA
BRANCH  36  37
ATOM     37  C   UNL     1      -3.390  -1.678   1.266  0.00  0.00    +0.122 A 
ATOM     38  C   UNL     1      -2.573  -0.913   2.086  0.00  0.00    +0.045 A 
ATOM     39  C   UNL     1      -2.315  -1.323   3.379  0.00  0.00    +0.004 A 
ATOM     40  C   UNL     1      -2.870  -2.496   3.857  0.00  0.00    +0.000 A 
ATOM     41  C   UNL     1      -3.685  -3.260   3.043  0.00  0.00    +0.004 A 
ATOM     42  C   UNL     1      -3.950  -2.851   1.750  0.00  0.00    +0.045 A 
ENDBRANCH  36  37
ENDBRANCH  32  36
ENDBRANCH   1  32
TORSDOF 8
