REMARK  Name = ZINC28156290
REMARK  11 active torsions:
REMARK  status: ('A' for Active; 'I' for Inactive)
REMARK    1  A    between atoms: C_1  and  C_2
REMARK    2  A    between atoms: C_5  and  C_8
REMARK    3  A    between atoms: C_11  and  C_14
REMARK    4  A    between atoms: C_17  and  C_20
REMARK    5  A    between atoms: C_20  and  C_21
REMARK    6  A    between atoms: C_20  and  C_22
REMARK    7  A    between atoms: C_27  and  C_30
REMARK    8  A    between atoms: C_30  and  C_31
REMARK    9  A    between atoms: N_33  and  C_34
REMARK   10  A    between atoms: C_34  and  C_35
REMARK   11  A    between atoms: C_35  and  C_36
REMARK                            x       y       z     vdW  Elec       q    Type
REMARK                         _______ _______ _______ _____ _____    ______ ____
ROOT
ATOM      1  C   UNL     1       8.228   9.344  -5.200  0.00  0.00    +0.069 C 
ATOM      2  N   UNL     1       7.691   8.664  -4.246  0.00  0.00    -0.182 NA
ATOM      3  N   UNL     1       7.220   9.441  -3.189  0.00  0.00    -0.195 N 
ATOM      4  C   UNL     1       7.479  10.858  -3.488  0.00  0.00    +0.136 C 
ATOM      5  C   UNL     1       8.177  10.816  -4.862  0.00  0.00    +0.087 C 
ATOM      6  C   UNL     1       6.613   8.965  -2.063  0.00  0.00    +0.170 C 
ATOM      7  N   UNL     1       6.147   9.654  -1.030  0.00  0.00    -0.157 NA
ATOM      8  C   UNL     1       5.576   9.119   0.016  0.00  0.00    +0.252 C 
ATOM      9  O   UNL     1       5.162   9.786   0.945  0.00  0.00    -0.272 OA
ATOM     10  C   UNL     1       5.465   7.600  -0.009  0.00  0.00    +0.150 C 
ATOM     11  S   UNL     1       6.258   7.266  -1.634  0.00  0.00    -0.078 S 
ENDROOT
BRANCH   1  16
ATOM     12  C   UNL     1      10.475   7.116 -10.003  0.00  0.00    +0.044 C 
ATOM     13  C   UNL     1       9.886   7.700  -8.744  0.00  0.00    -0.050 A 
ATOM     14  C   UNL     1       9.336   6.863  -7.790  0.00  0.00    +0.004 A 
ATOM     15  C   UNL     1       8.795   7.391  -6.635  0.00  0.00    +0.010 A 
ATOM     16  C   UNL     1       8.804   8.772  -6.432  0.00  0.00    -0.002 A 
ATOM     17  C   UNL     1       9.357   9.611  -7.402  0.00  0.00    +0.010 A 
ATOM     18  C   UNL     1       9.899   9.070  -8.549  0.00  0.00    +0.004 A 
ENDBRANCH   1  16
BRANCH   4  19
ATOM     19  C   UNL     1       8.392  11.461  -2.451  0.00  0.00    -0.025 A 
ATOM     20  C   UNL     1       9.437  10.718  -1.935  0.00  0.00    +0.006 A 
ATOM     21  C   UNL     1      10.277  11.272  -0.987  0.00  0.00    +0.004 A 
ATOM     22  C   UNL     1      10.066  12.566  -0.548  0.00  0.00    -0.045 A 
ATOM     23  C   UNL     1       9.018  13.307  -1.061  0.00  0.00    +0.004 A 
ATOM     24  C   UNL     1       8.180  12.754  -2.012  0.00  0.00    +0.006 A 
BRANCH  22  25
ATOM     25  C   UNL     1      10.978  13.168   0.489  0.00  0.00    +0.013 C 
ATOM     26  C   UNL     1      10.920  12.330   1.768  0.00  0.00    +0.012 C 
ATOM     27  C   UNL     1      12.412  13.187  -0.043  0.00  0.00    +0.012 C 
ENDBRANCH  22  25
ENDBRANCH   4  19
BRANCH  10  28
ATOM     28  C   UNL     1       4.004   7.146   0.002  0.00  0.00    +0.119 C 
BRANCH  28  29
ATOM     29  C   UNL     1       3.945   5.640  -0.005  0.00  0.00    +0.215 C 
ATOM     30  O   UNL     1       4.971   4.993  -0.019  0.00  0.00    -0.276 OA
ATOM     31  N   UNL     1       2.753   5.012   0.003  0.00  0.00    -0.315 N 
ATOM     32  H   UNL     1       1.822   5.598   0.015  0.00  0.00    +0.149 HD
BRANCH  31  33
ATOM     33  C   UNL     1       2.696   3.548  -0.005  0.00  0.00    +0.115 C 
BRANCH  33  34
ATOM     34  C   UNL     1       1.235   3.094   0.007  0.00  0.00    +0.144 C 
BRANCH  34  35
ATOM     35  C   UNL     1       1.177   1.588  -0.001  0.00  0.00    +0.357 C 
ATOM     36  O   UNL     1       2.199   0.944  -0.014  0.00  0.00    -0.246 OA
ATOM     37  O   UNL     1      -0.011   0.963   0.007  0.00  0.00    -0.246 OA
ENDBRANCH  34  35
ENDBRANCH  33  34
ENDBRANCH  31  33
ENDBRANCH  28  29
ENDBRANCH  10  28
TORSDOF 8
