REMARK  Name = ZINC15126093
REMARK  14 active torsions:
REMARK  status: ('A' for Active; 'I' for Inactive)
REMARK    1  A    between atoms: C_1  and  C_2
REMARK    2  A    between atoms: C_2  and  C_3
REMARK    3  A    between atoms: C_3  and  C_5
REMARK    4  A    between atoms: C_3  and  N_76
REMARK    5  A    between atoms: C_8  and  S_17
REMARK    6  A    between atoms: N_9  and  C_10
REMARK    7  A    between atoms: C_10  and  C_11
REMARK    8  A    between atoms: S_17  and  C_18
REMARK    9  A    between atoms: C_18  and  C_19
REMARK   10  A    between atoms: N_21  and  C_22
REMARK   11  A    between atoms: C_22  and  C_24
REMARK   12  A    between atoms: C_22  and  C_25
REMARK   13  A    between atoms: C_35  and  N_76
REMARK   14  A    between atoms: C_36  and  N_76
REMARK                            x       y       z     vdW  Elec       q    Type
REMARK                         _______ _______ _______ _____ _____    ______ ____
ROOT
ATOM      1  C   UNL     1       0.834   0.324  -4.700  0.00  0.00    +0.121 A 
ATOM      2  N   UNL     1       1.504  -0.226  -3.727  0.00  0.00    -0.135 NA
ATOM      3  N   UNL     1       0.954   0.053  -2.600  0.00  0.00    -0.123 NA
ATOM      4  C   UNL     1      -0.111   0.796  -2.795  0.00  0.00    +0.192 A 
ATOM      5  N   UNL     1      -0.219   0.995  -4.141  0.00  0.00    -0.303 N 
ENDROOT
BRANCH   1   6
ATOM      6  C   UNL     1       1.159   0.238  -6.169  0.00  0.00    +0.000 C 
BRANCH   6   9
ATOM      7  C   UNL     1       2.907   1.899  -5.951  0.00  0.00    -0.096 C 
ATOM      8  C   UNL     1       3.428  -0.449  -5.674  0.00  0.00    -0.096 C 
ATOM      9  N   UNL     1       2.590   0.528  -6.401  0.00  0.00    +0.383 N 
ATOM     10  H   UNL     1       2.787   0.453  -7.406  0.00  0.00    -0.082 HD
ENDBRANCH   6   9
BRANCH   6  12
ATOM     11  C   UNL     1       1.113  -1.240  -8.183  0.00  0.00    +0.002 C 
ATOM     12  C   UNL     1       0.850  -1.172  -6.678  0.00  0.00    -0.011 C 
ENDBRANCH   6  12
ENDBRANCH   1   6
BRANCH   5  13
ATOM     13  C   UNL     1      -1.248   1.766  -4.842  0.00  0.00    +0.160 C 
BRANCH  13  14
ATOM     14  C   UNL     1      -0.800   3.199  -4.974  0.00  0.00    -0.028 A 
ATOM     15  C   UNL     1      -1.117   4.116  -3.990  0.00  0.00    +0.005 A 
ATOM     16  C   UNL     1      -0.702   5.429  -4.109  0.00  0.00    +0.000 A 
ATOM     17  C   UNL     1       0.023   5.827  -5.217  0.00  0.00    +0.000 A 
ATOM     18  C   UNL     1       0.336   4.911  -6.204  0.00  0.00    +0.000 A 
ATOM     19  C   UNL     1      -0.075   3.597  -6.082  0.00  0.00    +0.005 A 
ENDBRANCH  13  14
ENDBRANCH   5  13
BRANCH   4  20
ATOM     20  S   UNL     1      -1.192   1.423  -1.553  0.00  0.00    -0.077 S 
BRANCH  20  21
ATOM     21  C   UNL     1      -0.401   0.743  -0.074  0.00  0.00    +0.173 C 
BRANCH  21  22
ATOM     22  C   UNL     1      -1.177   1.162   1.148  0.00  0.00    +0.224 C 
ATOM     23  O   UNL     1      -2.166   1.853   1.031  0.00  0.00    -0.275 OA
ATOM     24  N   UNL     1      -0.770   0.769   2.372  0.00  0.00    -0.312 N 
ATOM     25  H   UNL     1       0.022   0.216   2.465  0.00  0.00    +0.149 HD
BRANCH  24  26
ATOM     26  C   UNL     1      -1.524   1.176   3.560  0.00  0.00    +0.076 C 
ATOM     27  C   UNL     1      -2.678   0.200   3.791  0.00  0.00    +0.028 C 
BRANCH  26  28
ATOM     28  C   UNL     1      -0.598   1.169   4.778  0.00  0.00    -0.010 C 
ATOM     29  C   UNL     1       0.557   2.146   4.547  0.00  0.00    +0.012 C 
ATOM     30  C   UNL     1       1.482   2.139   5.765  0.00  0.00    -0.010 C 
ATOM     31  C   UNL     1       0.695   2.564   7.006  0.00  0.00    +0.007 C 
ATOM     32  C   UNL     1      -0.460   1.587   7.237  0.00  0.00    -0.010 C 
ATOM     33  C   UNL     1      -1.385   1.595   6.019  0.00  0.00    +0.012 C 
ATOM     34  C   UNL     1       0.098   0.178   7.446  0.00  0.00    +0.007 C 
ATOM     35  C   UNL     1       0.885  -0.247   6.205  0.00  0.00    -0.010 C 
ATOM     36  C   UNL     1       2.040   0.729   5.974  0.00  0.00    +0.007 C 
ATOM     37  C   UNL     1      -0.040  -0.240   4.987  0.00  0.00    +0.012 C 
ENDBRANCH  26  28
ENDBRANCH  24  26
ENDBRANCH  21  22
ENDBRANCH  20  21
ENDBRANCH   4  20
TORSDOF 10
