REMARK  Name = ZINC14166022
REMARK  6 active torsions:
REMARK  status: ('A' for Active; 'I' for Inactive)
REMARK    1  A    between atoms: C_1  and  C_2
REMARK    2  A    between atoms: C_6  and  C_35
REMARK    3  A    between atoms: C_7  and  N_8
REMARK    4  A    between atoms: N_8  and  S_9
REMARK    5  A    between atoms: S_9  and  C_12
REMARK    6  A    between atoms: C_25  and  C_28
REMARK                            x       y       z     vdW  Elec       q    Type
REMARK                         _______ _______ _______ _____ _____    ______ ____
ROOT
ATOM      1  C   UNL     1      -0.109  -0.997  -2.650  0.00  0.00    +0.109 A 
ATOM      2  C   UNL     1       0.416  -1.243  -3.906  0.00  0.00    +0.030 A 
ATOM      3  C   UNL     1      -0.434  -1.462  -4.972  0.00  0.00    +0.025 A 
ATOM      4  C   UNL     1      -1.810  -1.434  -4.781  0.00  0.00    +0.031 A 
ATOM      5  C   UNL     1      -2.341  -1.186  -3.524  0.00  0.00    -0.018 A 
ATOM      6  C   UNL     1      -1.476  -0.973  -2.459  0.00  0.00    +0.034 A 
ATOM      7  C   UNL     1      -3.814  -1.144  -3.272  0.00  0.00    +0.049 C 
ATOM      8  C   UNL     1      -4.287  -2.387  -2.556  0.00  0.00    -0.023 C 
ATOM      9  C   UNL     1      -5.475  -2.734  -2.986  0.00  0.00    -0.030 C 
ATOM     10  C   UNL     1      -5.960  -1.766  -4.047  0.00  0.00    +0.033 C 
ATOM     11  C   UNL     1      -4.646  -1.113  -4.569  0.00  0.00    +0.029 C 
ATOM     12  C   UNL     1      -4.041  -2.069  -5.601  0.00  0.00    +0.106 C 
ATOM     13  N   UNL     1      -2.658  -1.663  -5.870  0.00  0.00    -0.336 N 
ATOM     14  H   UNL     1      -2.339  -1.556  -6.779  0.00  0.00    +0.147 HD
ENDROOT
BRANCH  12  15
ATOM     15  C   UNL     1      -4.059  -3.475  -5.059  0.00  0.00    -0.013 A 
ATOM     16  C   UNL     1      -3.025  -3.918  -4.255  0.00  0.00    +0.006 A 
ATOM     17  C   UNL     1      -3.043  -5.206  -3.753  0.00  0.00    +0.000 A 
ATOM     18  C   UNL     1      -4.090  -6.055  -4.064  0.00  0.00    +0.001 A 
ATOM     19  C   UNL     1      -5.120  -5.614  -4.872  0.00  0.00    +0.015 A 
ATOM     20  C   UNL     1      -5.105  -4.323  -5.370  0.00  0.00    +0.023 A 
ATOM     21 BR   UNL     1      -6.515  -3.720  -6.476  0.00  0.00    -0.050 Br
ENDBRANCH  12  15
BRANCH   1  22
ATOM     22  S   UNL     1       0.972  -0.720  -1.286  0.00  0.00    +0.072 S 
ATOM     23  O   UNL     1       2.240  -1.240  -1.661  0.00  0.00    -0.150 OA
ATOM     24  O   UNL     1       0.281  -1.159  -0.125  0.00  0.00    -0.150 OA
BRANCH  22  25
ATOM     25  N   UNL     1       1.159   0.919  -1.135  0.00  0.00    -0.216 N 
ATOM     26  H   UNL     1       2.014   1.330  -1.337  0.00  0.00    +0.174 HD
BRANCH  25  33
ATOM     27  C   UNL     1      -0.159   2.515  -3.086  0.00  0.00    +0.046 C 
ATOM     28  C   UNL     1      -0.589   2.504  -1.642  0.00  0.00    -0.028 A 
ATOM     29  C   UNL     1      -1.655   3.281  -1.232  0.00  0.00    +0.005 A 
ATOM     30  C   UNL     1      -2.046   3.275   0.095  0.00  0.00    +0.001 A 
ATOM     31  C   UNL     1      -1.376   2.489   1.014  0.00  0.00    +0.005 A 
ATOM     32  C   UNL     1      -0.313   1.706   0.609  0.00  0.00    -0.028 A 
ATOM     33  C   UNL     1       0.083   1.709  -0.723  0.00  0.00    +0.054 A 
ATOM     34  C   UNL     1       0.418   0.849   1.611  0.00  0.00    +0.046 C 
ENDBRANCH  25  33
ENDBRANCH  22  25
ENDBRANCH   1  22
TORSDOF 4
