REMARK  Name = ZINC59104002
REMARK  9 active torsions:
REMARK  status: ('A' for Active; 'I' for Inactive)
REMARK    1  A    between atoms: C_1  and  C_2
REMARK    2  A    between atoms: C_2  and  O_3
REMARK    3  A    between atoms: O_3  and  C_4
REMARK    4  A    between atoms: C_7  and  C_11
REMARK    5  A    between atoms: C_16  and  C_20
REMARK    6  A    between atoms: C_16  and  C_21
REMARK    7  A    between atoms: C_21  and  C_22
REMARK    8  A    between atoms: C_21  and  C_23
REMARK    9  A    between atoms: C_21  and  C_24
REMARK                            x       y       z     vdW  Elec       q    Type
REMARK                         _______ _______ _______ _____ _____    ______ ____
ROOT
ATOM      1  C   UNL     1      -1.997  -6.048  -0.011  0.00  0.00    +0.030 C 
ATOM      2  C   UNL     1      -1.969  -6.752   1.176  0.00  0.00    +0.143 C 
ATOM      3  C   UNL     1      -1.882  -6.091   2.507  0.00  0.00    +0.349 C 
ATOM      4  O   UNL     1      -1.260  -5.062   2.687  0.00  0.00    -0.245 OA
ATOM      5  O   UNL     1      -2.552  -6.726   3.509  0.00  0.00    -0.418 OA
ATOM      6  C   UNL     1      -2.359  -8.144   3.576  0.00  0.00    +0.262 C 
ATOM      7  O   UNL     1      -2.685  -8.744   2.317  0.00  0.00    -0.418 OA
ATOM      8  C   UNL     1      -2.029  -8.238   1.239  0.00  0.00    +0.349 C 
ATOM      9  O   UNL     1      -1.527  -8.949   0.391  0.00  0.00    -0.245 OA
ATOM     10  C   UNL     1      -0.897  -8.441   3.916  0.00  0.00    +0.105 C 
ENDROOT
BRANCH   1  14
ATOM     11  C   UNL     1      -2.319  -1.829   0.035  0.00  0.00    +0.148 A 
ATOM     12  C   UNL     1      -1.608  -2.459  -0.983  0.00  0.00    +0.061 A 
ATOM     13  C   UNL     1      -1.500  -3.826  -1.003  0.00  0.00    +0.027 A 
ATOM     14  C   UNL     1      -2.108  -4.590   0.005  0.00  0.00    -0.022 A 
ATOM     15  C   UNL     1      -2.822  -3.949   1.029  0.00  0.00    +0.027 A 
ATOM     16  C   UNL     1      -2.919  -2.581   1.041  0.00  0.00    +0.061 A 
ATOM     17 BR   UNL     1      -3.874  -1.715   2.424  0.00  0.00    -0.046 Br
ATOM     18 BR   UNL     1      -0.791  -1.427  -2.341  0.00  0.00    -0.046 Br
BRANCH  11  19
ATOM     19  O   UNL     1      -2.422  -0.476   0.050  0.00  0.00    -0.490 OA
BRANCH  19  21
ATOM     20  C   UNL     1      -1.689   1.745   0.656  0.00  0.00    +0.048 C 
ATOM     21  C   UNL     1      -1.405   0.245   0.748  0.00  0.00    +0.226 C 
ENDBRANCH  19  21
ENDBRANCH  11  19
ENDBRANCH   1  14
BRANCH   6  22
ATOM     22  C   UNL     1      -3.260  -8.728   4.666  0.00  0.00    +0.039 C 
ATOM     23  C   UNL     1      -4.723  -8.427   4.333  0.00  0.00    +0.018 C 
ATOM     24  C   UNL     1      -3.055 -10.243   4.739  0.00  0.00    +0.018 C 
ATOM     25  C   UNL     1      -2.904  -8.099   6.014  0.00  0.00    +0.018 C 
ENDBRANCH   6  22
TORSDOF 4
