REMARK  Name = ZINC16162595
REMARK  3 active torsions:
REMARK  status: ('A' for Active; 'I' for Inactive)
REMARK    1  A    between atoms: C_1  and  C_2
REMARK    2  A    between atoms: C_2  and  C_3
REMARK    3  A    between atoms: C_10  and  C_23
REMARK                            x       y       z     vdW  Elec       q    Type
REMARK                         _______ _______ _______ _____ _____    ______ ____
ROOT
ATOM      1  C   UNL     1       0.707  -0.490  -1.238  0.00  0.00    +0.104 A 
ATOM      2  N   UNL     1       1.983  -0.759  -1.435  0.00  0.00    -0.144 NA
ATOM      3  N   UNL     1       2.421  -1.163  -2.547  0.00  0.00    -0.123 NA
ATOM      4  C   UNL     1       1.614  -1.343  -3.593  0.00  0.00    +0.196 A 
ATOM      5  S   UNL     1       0.050  -0.873  -2.858  0.00  0.00    -0.033 S 
ATOM      6  N   UNL     1       1.896  -1.765  -4.851  0.00  0.00    -0.303 N 
ATOM      7  C   UNL     1       3.137  -2.069  -5.183  0.00  0.00    +0.211 A 
ATOM      8  C   UNL     1       3.474  -2.524  -6.544  0.00  0.00    +0.068 A 
ATOM      9  C   UNL     1       4.774  -2.305  -6.981  0.00  0.00    +0.028 A 
ATOM     10  C   UNL     1       5.683  -1.695  -6.088  0.00  0.00    +0.026 A 
ATOM     11  C   UNL     1       6.994  -1.237  -6.550  0.00  0.00    -0.007 A 
ATOM     12  C   UNL     1       7.403  -1.402  -7.876  0.00  0.00    +0.009 A 
ATOM     13  C   UNL     1       8.634  -0.959  -8.263  0.00  0.00    +0.001 A 
ATOM     14  C   UNL     1       9.490  -0.346  -7.353  0.00  0.00    +0.001 A 
ATOM     15  C   UNL     1       9.122  -0.170  -6.053  0.00  0.00    +0.008 A 
ATOM     16  C   UNL     1       7.861  -0.613  -5.622  0.00  0.00    -0.017 A 
ATOM     17  C   UNL     1       7.446  -0.447  -4.286  0.00  0.00    +0.012 A 
ATOM     18  C   UNL     1       6.230  -0.885  -3.870  0.00  0.00    +0.047 A 
ATOM     19  C   UNL     1       5.339  -1.515  -4.742  0.00  0.00    +0.138 A 
ATOM     20  O   UNL     1       4.149  -1.968  -4.285  0.00  0.00    -0.439 OA
ATOM     21  H   UNL     1       1.186  -1.843  -5.507  0.00  0.00    +0.171 HD
ENDROOT
BRANCH   8  22
ATOM     22  C   UNL     1       2.474  -3.184  -7.403  0.00  0.00    +0.115 A 
ATOM     23  N   UNL     1       1.213  -3.459  -7.143  0.00  0.00    -0.239 NA
ATOM     24  C   UNL     1       0.407  -4.071  -8.031  0.00  0.00    +0.079 A 
ATOM     25  C   UNL     1      -0.956  -4.422  -7.880  0.00  0.00    +0.029 A 
ATOM     26  C   UNL     1      -1.631  -5.044  -8.882  0.00  0.00    +0.002 A 
ATOM     27  C   UNL     1      -1.020  -5.358 -10.088  0.00  0.00    +0.001 A 
ATOM     28  C   UNL     1       0.311  -5.033 -10.278  0.00  0.00    +0.017 A 
ATOM     29  C   UNL     1       1.003  -4.405  -9.271  0.00  0.00    +0.040 A 
ATOM     30  S   UNL     1       2.664  -3.809  -9.067  0.00  0.00    -0.067 S 
ENDBRANCH   8  22
BRANCH   1  32
ATOM     31  C   UNL     1      -0.019   1.526   0.010  0.00  0.00    +0.011 C 
ATOM     32  C   UNL     1       0.002  -0.004   0.002  0.00  0.00    +0.061 C 
ENDBRANCH   1  32
TORSDOF 2
