REMARK  Name = ZINC33810424
REMARK  8 active torsions:
REMARK  status: ('A' for Active; 'I' for Inactive)
REMARK    1  A    between atoms: C_1  and  C_2
REMARK    2  A    between atoms: C_2  and  C_3
REMARK    3  A    between atoms: C_2  and  S_4
REMARK    4  A    between atoms: S_4  and  C_5
REMARK    5  A    between atoms: C_12  and  C_24
REMARK    6  A    between atoms: C_18  and  C_22
REMARK    7  A    between atoms: C_18  and  C_23
REMARK    8  A    between atoms: C_27  and  O_30
REMARK                            x       y       z     vdW  Elec       q    Type
REMARK                         _______ _______ _______ _____ _____    ______ ____
ROOT
ATOM      1  C   UNL     1       5.806   0.344  -3.545  0.00  0.00    +0.171 A 
ATOM      2  N   UNL     1       6.182   0.888  -2.353  0.00  0.00    -0.208 NA
ATOM      3  C   UNL     1       5.513   0.553  -1.205  0.00  0.00    +0.135 A 
ATOM      4  C   UNL     1       4.473  -0.322  -1.270  0.00  0.00    +0.069 A 
ATOM      5  C   UNL     1       4.119  -0.865  -2.524  0.00  0.00    +0.258 A 
ATOM      6  O   UNL     1       3.192  -1.657  -2.611  0.00  0.00    -0.267 OA
ATOM      7  N   UNL     1       4.804  -0.506  -3.621  0.00  0.00    -0.302 N 
ATOM      8  C   UNL     1       3.711  -0.707  -0.038  0.00  0.00    +0.092 C 
ATOM      9  C   UNL     1       4.482  -0.368   1.213  0.00  0.00    +0.024 C 
ATOM     10  C   UNL     1       5.515   0.500   1.178  0.00  0.00    +0.017 C 
ATOM     11  N   UNL     1       5.887   1.095   0.003  0.00  0.00    -0.302 N 
ATOM     12  C   UNL     1       6.290   0.836   2.428  0.00  0.00    +0.058 C 
ATOM     13  C   UNL     1       5.369   0.741   3.645  0.00  0.00    -0.023 C 
ATOM     14  C   UNL     1       4.796  -0.679   3.710  0.00  0.00    +0.086 C 
ATOM     15  C   UNL     1       4.091  -0.981   2.416  0.00  0.00    +0.162 C 
ATOM     16  O   UNL     1       3.167  -1.770   2.411  0.00  0.00    -0.292 OA
ATOM     17  C   UNL     1       4.228   1.750   3.506  0.00  0.00    +0.011 C 
ATOM     18  C   UNL     1       6.162   1.034   4.920  0.00  0.00    +0.011 C 
ATOM     19  H   UNL     1       6.490   2.014   0.030  0.00  0.00    +0.153 HD
ATOM     20  H   UNL     1       4.518  -0.934  -4.593  0.00  0.00    +0.171 HD
ENDROOT
BRANCH   8  21
ATOM     21  C   UNL     1       2.396   0.030  -0.021  0.00  0.00    -0.035 A 
ATOM     22  C   UNL     1       1.208  -0.677  -0.013  0.00  0.00    +0.008 A 
ATOM     23  C   UNL     1       0.002  -0.004   0.002  0.00  0.00    +0.046 A 
ATOM     24  C   UNL     1      -0.017   1.383   0.010  0.00  0.00    +0.117 A 
ATOM     25  C   UNL     1       1.177   2.091   0.002  0.00  0.00    +0.046 A 
ATOM     26  C   UNL     1       2.380   1.413  -0.013  0.00  0.00    +0.008 A 
BRANCH  24  27
ATOM     27  O   UNL     1      -1.202   2.048   0.019  0.00  0.00    -0.507 OA
ATOM     28  H   UNL     1      -1.216   3.148   0.025  0.00  0.00    +0.292 HD
ENDBRANCH  24  27
ENDBRANCH   8  21
BRANCH   1  29
ATOM     29  S   UNL     1       6.677   0.789  -5.011  0.00  0.00    -0.085 S 
BRANCH  29  31
ATOM     30  C   UNL     1       6.286   0.122  -7.631  0.00  0.00    +0.019 C 
ATOM     31  C   UNL     1       5.772  -0.201  -6.226  0.00  0.00    +0.048 C 
ATOM     32  C   UNL     1       5.986  -1.688  -5.934  0.00  0.00    +0.019 C 
ENDBRANCH  29  31
ENDBRANCH   1  29
TORSDOF 4
