REMARK  Name = ZINC12375630
REMARK  5 active torsions:
REMARK  status: ('A' for Active; 'I' for Inactive)
REMARK    1  A    between atoms: C_5  and  N_7
REMARK    2  A    between atoms: C_16  and  C_22
REMARK    3  A    between atoms: C_16  and  C_26
REMARK    4  A    between atoms: C_17  and  C_20
REMARK    5  A    between atoms: C_18  and  N_19
REMARK                            x       y       z     vdW  Elec       q    Type
REMARK                         _______ _______ _______ _____ _____    ______ ____
ROOT
ATOM      1  N   UNL     1       3.649   0.514   3.515  0.00  0.00    -0.259 N 
ATOM      2  C   UNL     1       2.712   0.714   2.490  0.00  0.00    +0.018 C 
ATOM      3  C   UNL     1       2.665   1.900   2.016  0.00  0.00    -0.007 C 
ATOM      4  C   UNL     1       2.053   2.634   0.887  0.00  0.00    +0.029 C 
ATOM      5  C   UNL     1       0.579   2.301   0.748  0.00  0.00    +0.004 C 
ATOM      6  C   UNL     1       0.391   0.843   0.403  0.00  0.00    +0.001 C 
ATOM      7  C   UNL     1       0.546  -0.094   1.544  0.00  0.00    +0.011 C 
ATOM      8  C   UNL     1       1.984  -0.469   1.901  0.00  0.00    +0.062 C 
ATOM      9  C   UNL     1       1.865  -1.622   2.898  0.00  0.00    +0.205 C 
ATOM     10  C   UNL     1       3.017  -1.741   3.835  0.00  0.00    +0.089 C 
ATOM     11  C   UNL     1       3.808  -0.686   4.142  0.00  0.00    +0.107 C 
ENDROOT
BRANCH   1  16
ATOM     12  C   UNL     1       4.822   3.503   5.307  0.00  0.00    +0.002 A 
ATOM     13  C   UNL     1       6.041   3.718   4.690  0.00  0.00    +0.002 A 
ATOM     14  C   UNL     1       6.468   2.872   3.683  0.00  0.00    +0.022 A 
ATOM     15  C   UNL     1       5.678   1.809   3.290  0.00  0.00    +0.063 A 
ATOM     16  C   UNL     1       4.453   1.590   3.909  0.00  0.00    +0.058 A 
ATOM     17  C   UNL     1       4.025   2.444   4.917  0.00  0.00    +0.025 A 
ATOM     18 CL   UNL     1       6.214   0.748   2.025  0.00  0.00    -0.082 Cl
ENDBRANCH   1  16
BRANCH   9  19
ATOM     19  C   UNL     1       0.589  -1.426   3.719  0.00  0.00    +0.409 C 
ATOM     20  F   UNL     1      -0.528  -1.651   2.907  0.00  0.00    -0.169 F 
ATOM     21  F   UNL     1       0.578  -2.329   4.788  0.00  0.00    -0.169 F 
ATOM     22  F   UNL     1       0.549  -0.118   4.214  0.00  0.00    -0.169 F 
ENDBRANCH   9  19
BRANCH   9  23
ATOM     23  C   UNL     1       1.737  -2.931   2.115  0.00  0.00    +0.409 C 
ATOM     24  F   UNL     1       2.871  -3.108   1.315  0.00  0.00    -0.169 F 
ATOM     25  F   UNL     1       1.626  -4.001   3.010  0.00  0.00    -0.169 F 
ATOM     26  F   UNL     1       0.598  -2.880   1.305  0.00  0.00    -0.169 F 
ENDBRANCH   9  23
BRANCH  11  27
ATOM     27  N   UNL     1       4.785  -0.827   5.098  0.00  0.00    -0.345 N 
ATOM     28  H   UNL     1       5.356  -0.076   5.324  0.00  0.00    +0.144 HD
ATOM     29  H   UNL     1       4.904  -1.678   5.549  0.00  0.00    +0.144 HD
ENDBRANCH  11  27
BRANCH  10  30
ATOM     30  C   UNL     1       3.297  -3.013   4.431  0.00  0.00    +0.099 C 
ATOM     31  N   UNL     1       3.519  -4.022   4.903  0.00  0.00    -0.191 NA
ENDBRANCH  10  30
TORSDOF 5
