REMARK  Name = ZINC27525933
REMARK  6 active torsions:
REMARK  status: ('A' for Active; 'I' for Inactive)
REMARK    1  A    between atoms: C_1  and  C_2
REMARK    2  A    between atoms: C_2  and  C_3
REMARK    3  A    between atoms: C_2  and  C_4
REMARK    4  A    between atoms: C_2  and  C_5
REMARK    5  A    between atoms: N_8  and  N_19
REMARK    6  A    between atoms: C_12  and  C_15
REMARK                            x       y       z     vdW  Elec       q    Type
REMARK                         _______ _______ _______ _____ _____    ______ ____
ROOT
ATOM      1  C   UNL     1       0.002  -0.004   0.002  0.00  0.00    +0.133 A 
ATOM      2  C   UNL     1       1.287  -0.714  -0.014  0.00  0.00    +0.294 A 
ATOM      3  O   UNL     1       1.315  -1.931  -0.021  0.00  0.00    -0.264 OA
ATOM      4  N   UNL     1       2.437  -0.007  -0.021  0.00  0.00    -0.196 N 
ATOM      5  C   UNL     1       2.389   1.370  -0.013  0.00  0.00    +0.273 A 
ATOM      6  N   UNL     1       3.318   2.297  -0.018  0.00  0.00    -0.107 NA
ATOM      7  N   UNL     1       2.773   3.461  -0.006  0.00  0.00    -0.126 NA
ATOM      8  C   UNL     1       1.473   3.351   0.006  0.00  0.00    +0.207 A 
ATOM      9  N   UNL     1       1.181   2.016   0.002  0.00  0.00    -0.176 N 
ATOM     10  N   UNL     1      -0.016   1.297   0.009  0.00  0.00    -0.161 NA
ENDROOT
BRANCH   1  12
ATOM     11  C   UNL     1      -2.469   0.197   0.026  0.00  0.00    +0.017 C 
ATOM     12  C   UNL     1      -1.291  -0.779   0.010  0.00  0.00    +0.012 C 
ATOM     13  C   UNL     1      -1.369  -1.653  -1.244  0.00  0.00    +0.017 C 
ATOM     14  C   UNL     1      -1.346  -1.666   1.255  0.00  0.00    +0.017 C 
ENDBRANCH   1  12
BRANCH   8  15
ATOM     15  C   UNL     1       0.479   4.484   0.022  0.00  0.00    +0.252 C 
ATOM     16 CL   UNL     1       1.313   6.021  -0.419  0.00  0.00    -0.075 Cl
ATOM     17 CL   UNL     1      -0.833   4.149  -1.169  0.00  0.00    -0.075 Cl
ATOM     18 CL   UNL     1      -0.231   4.637   1.672  0.00  0.00    -0.075 Cl
ENDBRANCH   8  15
BRANCH   4  19
ATOM     19  N   UNL     1       3.640  -0.653  -0.036  0.00  0.00    -0.293 N 
ATOM     20  H   UNL     1       4.575  -0.074  -0.042  0.00  0.00    +0.163 HD
ATOM     21  H   UNL     1       3.675  -1.752  -0.042  0.00  0.00    +0.163 HD
ENDBRANCH   4  19
TORSDOF 3
