REMARK  Name = ZINC01719142
REMARK  11 active torsions:
REMARK  status: ('A' for Active; 'I' for Inactive)
REMARK    1  A    between atoms: C_1  and  C_2
REMARK    2  A    between atoms: C_5  and  N_8
REMARK    3  A    between atoms: N_8  and  C_9
REMARK    4  A    between atoms: C_9  and  C_10
REMARK    5  A    between atoms: C_13  and  C_27
REMARK    6  A    between atoms: C_14  and  C_18
REMARK    7  A    between atoms: C_16  and  O_17
REMARK    8  A    between atoms: C_18  and  N_19
REMARK    9  A    between atoms: N_19  and  C_20
REMARK   10  A    between atoms: C_23  and  C_26
REMARK   11  A    between atoms: C_27  and  O_28
REMARK                            x       y       z     vdW  Elec       q    Type
REMARK                         _______ _______ _______ _____ _____    ______ ____
ROOT
ATOM      1  C   UNL     1      -0.961  -2.232  -0.001  0.00  0.00    +0.096 A 
ATOM      2  C   UNL     1      -0.838  -2.929  -1.221  0.00  0.00    +0.199 A 
ATOM      3  O   UNL     1      -0.968  -2.351  -2.290  0.00  0.00    -0.287 OA
ATOM      4  C   UNL     1      -0.553  -4.321  -1.175  0.00  0.00    +0.065 A 
ATOM      5  C   UNL     1      -0.423  -4.923   0.021  0.00  0.00    +0.135 A 
ATOM      6  O   UNL     1      -0.552  -4.230   1.161  0.00  0.00    -0.428 OA
ATOM      7  C   UNL     1      -0.815  -2.915   1.165  0.00  0.00    +0.293 A 
ENDROOT
BRANCH   7   8
ATOM      8  O   UNL     1      -0.935  -2.263   2.342  0.00  0.00    -0.480 OA
ATOM      9  H   UNL     1      -1.836  -2.246   2.692  0.00  0.00    +0.295 HD
ENDBRANCH   7   8
BRANCH   1  10
ATOM     10  C   UNL     1      -1.256  -0.754   0.010  0.00  0.00    +0.148 C 
BRANCH  10  11
ATOM     11  N   UNL     1       0.002  -0.004   0.002  0.00  0.00    -0.339 N 
ATOM     12  H   UNL     1       0.849  -0.478  -0.009  0.00  0.00    +0.146 HD
BRANCH  11  17
ATOM     13  C   UNL     1      -0.075   5.666   0.032  0.00  0.00    +0.044 C 
ATOM     14  C   UNL     1      -0.054   4.159   0.024  0.00  0.00    -0.050 A 
ATOM     15  C   UNL     1       1.153   3.486   0.009  0.00  0.00    +0.005 A 
ATOM     16  C   UNL     1       1.176   2.105   0.002  0.00  0.00    +0.023 A 
ATOM     17  C   UNL     1      -0.017   1.393   0.010  0.00  0.00    +0.027 A 
ATOM     18  C   UNL     1      -1.228   2.072   0.019  0.00  0.00    +0.023 A 
ATOM     19  C   UNL     1      -1.243   3.453   0.032  0.00  0.00    +0.005 A 
ENDBRANCH  11  17
ENDBRANCH  10  11
ENDBRANCH   1  10
BRANCH   5  20
ATOM     20  C   UNL     1      -0.127  -6.400   0.081  0.00  0.00    +0.176 C 
BRANCH  20  21
ATOM     21  N   UNL     1       1.323  -6.607   0.088  0.00  0.00    -0.337 N 
ATOM     22  H   UNL     1       1.922  -5.845   0.057  0.00  0.00    +0.147 HD
BRANCH  21  23
ATOM     23  C   UNL     1       1.843  -7.902   0.140  0.00  0.00    +0.027 A 
ATOM     24  C   UNL     1       0.986  -8.995   0.190  0.00  0.00    +0.023 A 
ATOM     25  C   UNL     1       1.504 -10.275   0.236  0.00  0.00    +0.005 A 
ATOM     26  C   UNL     1       2.873 -10.469   0.244  0.00  0.00    -0.050 A 
ATOM     27  C   UNL     1       3.728  -9.383   0.199  0.00  0.00    +0.005 A 
ATOM     28  C   UNL     1       3.218  -8.101   0.147  0.00  0.00    +0.023 A 
ATOM     29  C   UNL     1       3.433 -11.866   0.300  0.00  0.00    +0.044 C 
ENDBRANCH  21  23
ENDBRANCH  20  21
ENDBRANCH   5  20
BRANCH   4  30
ATOM     30  C   UNL     1      -0.406  -5.114  -2.448  0.00  0.00    +0.198 C 
BRANCH  30  31
ATOM     31  O   UNL     1      -1.681  -5.627  -2.839  0.00  0.00    -0.390 OA
ATOM     32  H   UNL     1      -1.661  -6.149  -3.653  0.00  0.00    +0.210 HD
ENDBRANCH  30  31
ENDBRANCH   4  30
TORSDOF 9
