REMARK  Name = ZINC02662181
REMARK  7 active torsions:
REMARK  status: ('A' for Active; 'I' for Inactive)
REMARK    1  A    between atoms: C_1  and  C_2
REMARK    2  A    between atoms: C_2  and  N_3
REMARK    3  A    between atoms: N_3  and  C_4
REMARK    4  A    between atoms: C_12  and  C_14
REMARK    5  A    between atoms: C_14  and  N_15
REMARK    6  A    between atoms: C_18  and  C_22
REMARK    7  A    between atoms: C_18  and  C_23
REMARK                            x       y       z     vdW  Elec       q    Type
REMARK                         _______ _______ _______ _____ _____    ______ ____
ROOT
ATOM      1  N   UNL     1       1.478   4.850  -1.869  0.00  0.00    -0.215 N 
ATOM      2  C   UNL     1       0.519   4.126  -1.260  0.00  0.00    +0.251 C 
ATOM      3  O   UNL     1      -0.614   3.938  -1.648  0.00  0.00    -0.272 OA
ATOM      4  C   UNL     1       1.152   3.594   0.010  0.00  0.00    +0.136 C 
ATOM      5  N   UNL     1       2.523   4.131  -0.035  0.00  0.00    -0.281 N 
ATOM      6  C   UNL     1       2.617   4.850  -1.168  0.00  0.00    +0.310 C 
ATOM      7  O   UNL     1       3.625   5.434  -1.515  0.00  0.00    -0.252 OA
ATOM      8  C   UNL     1       0.410   4.114   1.244  0.00  0.00    +0.047 C 
ATOM      9  H   UNL     1       3.221   3.992   0.624  0.00  0.00    +0.152 HD
ENDROOT
BRANCH   4  10
ATOM     10  C   UNL     1       1.172   2.087   0.002  0.00  0.00    +0.003 A 
ATOM     11  C   UNL     1       2.378   1.412  -0.013  0.00  0.00    +0.009 A 
ATOM     12  C   UNL     1       2.398   0.030  -0.021  0.00  0.00    +0.020 A 
ATOM     13  C   UNL     1       1.209  -0.679  -0.013  0.00  0.00    +0.042 A 
ATOM     14  C   UNL     1       0.002  -0.004   0.002  0.00  0.00    +0.040 A 
ATOM     15  C   UNL     1      -0.017   1.379   0.010  0.00  0.00    +0.048 A 
ATOM     16 CL   UNL     1      -1.532   2.227   0.021  0.00  0.00    -0.083 Cl
ATOM     17 CL   UNL     1       1.234  -2.414  -0.023  0.00  0.00    -0.083 Cl
ENDBRANCH   4  10
BRANCH   1  18
ATOM     18  C   UNL     1       1.296   5.551  -3.143  0.00  0.00    +0.213 C 
BRANCH  18  20
ATOM     19  N   UNL     1       1.575   5.064  -5.552  0.00  0.00    -0.296 N 
ATOM     20  C   UNL     1       1.665   4.632  -4.279  0.00  0.00    +0.234 C 
ATOM     21  O   UNL     1       2.042   3.503  -4.048  0.00  0.00    -0.274 OA
BRANCH  19  22
ATOM     22  C   UNL     1       1.933   4.171  -6.657  0.00  0.00    +0.098 C 
ATOM     23  C   UNL     1       1.056   2.909  -6.609  0.00  0.00    +0.046 C 
ATOM     24  C   UNL     1       1.632   1.830  -7.558  0.00  0.00    +0.168 C 
ATOM     25  S   UNL     1       3.428   2.226  -7.577  0.00  0.00    -0.029 S 
ATOM     26  O   UNL     1       3.807   2.591  -8.897  0.00  0.00    -0.174 OA
ATOM     27  O   UNL     1       4.136   1.193  -6.906  0.00  0.00    -0.174 OA
ATOM     28  C   UNL     1       3.419   3.733  -6.517  0.00  0.00    +0.188 C 
ENDBRANCH  19  22
BRANCH  19  30
ATOM     29  C   UNL     1       2.323   7.372  -5.866  0.00  0.00    +0.024 C 
ATOM     30  C   UNL     1       1.119   6.428  -5.832  0.00  0.00    +0.105 C 
ENDBRANCH  19  30
ENDBRANCH  18  20
ENDBRANCH   1  18
TORSDOF 5
