REMARK  Name = ZINC03177658
REMARK  7 active torsions:
REMARK  status: ('A' for Active; 'I' for Inactive)
REMARK    1  A    between atoms: C_4  and  P_7
REMARK    2  A    between atoms: P_7  and  C_9
REMARK    3  A    between atoms: P_7  and  C_15
REMARK    4  A    between atoms: C_15  and  C_17
REMARK    5  A    between atoms: C_15  and  N_24
REMARK    6  A    between atoms: N_24  and  S_25
REMARK    7  A    between atoms: S_25  and  C_28
REMARK                            x       y       z     vdW  Elec       q    Type
REMARK                         _______ _______ _______ _____ _____    ______ ____
ROOT
ATOM      1  C   UNL     1       3.498  -1.960  -1.252  0.00  0.00    +0.175 C 
ENDROOT
BRANCH   1   2
ATOM      2  C   UNL     1       2.422  -2.879  -0.733  0.00  0.00    -0.021 A 
ATOM      3  C   UNL     1       1.108  -2.451  -0.691  0.00  0.00    +0.007 A 
ATOM      4  C   UNL     1       0.122  -3.294  -0.215  0.00  0.00    +0.015 A 
ATOM      5  C   UNL     1       0.450  -4.566   0.221  0.00  0.00    +0.018 A 
ATOM      6  C   UNL     1       1.765  -4.993   0.179  0.00  0.00    +0.015 A 
ATOM      7  C   UNL     1       2.750  -4.151  -0.302  0.00  0.00    +0.007 A 
ATOM      8 BR   UNL     1      -0.899  -5.719   0.873  0.00  0.00    -0.050 Br
ENDBRANCH   1   2
BRANCH   1   9
ATOM      9  P   UNL     1       4.115  -0.916   0.109  0.00  0.00    +0.166 P 
ATOM     10  O   UNL     1       2.985  -0.178   0.717  0.00  0.00    -0.309 OA
BRANCH   9  14
ATOM     11  C   UNL     1       6.093  -3.560   3.280  0.00  0.00    +0.000 A 
ATOM     12  C   UNL     1       5.163  -2.609   3.656  0.00  0.00    +0.001 A 
ATOM     13  C   UNL     1       4.566  -1.811   2.698  0.00  0.00    +0.012 A 
ATOM     14  C   UNL     1       4.899  -1.963   1.365  0.00  0.00    +0.018 A 
ATOM     15  C   UNL     1       5.831  -2.913   0.990  0.00  0.00    +0.012 A 
ATOM     16  C   UNL     1       6.427  -3.713   1.948  0.00  0.00    +0.001 A 
ENDBRANCH   9  14
BRANCH   9  17
ATOM     17  C   UNL     1       5.330   0.265  -0.538  0.00  0.00    +0.018 A 
ATOM     18  C   UNL     1       6.341  -0.171  -1.374  0.00  0.00    +0.012 A 
ATOM     19  C   UNL     1       7.267   0.729  -1.868  0.00  0.00    +0.001 A 
ATOM     20  C   UNL     1       7.182   2.065  -1.525  0.00  0.00    +0.000 A 
ATOM     21  C   UNL     1       6.171   2.502  -0.690  0.00  0.00    +0.001 A 
ATOM     22  C   UNL     1       5.242   1.603  -0.200  0.00  0.00    +0.012 A 
ENDBRANCH   9  17
ENDBRANCH   1   9
BRANCH   1  23
ATOM     23  N   UNL     1       2.943  -1.108  -2.308  0.00  0.00    -0.175 NA
ATOM     24  H   UNL     1       2.547  -0.252  -2.082  0.00  0.00    +0.149 HD
BRANCH  23  25
ATOM     25  S   UNL     1       2.994  -1.607  -3.886  0.00  0.00    +0.059 S 
ATOM     26  O   UNL     1       2.364  -0.591  -4.654  0.00  0.00    -0.153 OA
ATOM     27  O   UNL     1       4.326  -2.034  -4.135  0.00  0.00    -0.153 OA
BRANCH  25  28
ATOM     28  C   UNL     1       1.974  -3.039  -4.013  0.00  0.00    +0.105 A 
ATOM     29  C   UNL     1       2.517  -4.293  -3.807  0.00  0.00    +0.028 A 
ATOM     30  C   UNL     1       1.717  -5.417  -3.907  0.00  0.00    +0.002 A 
ATOM     31  C   UNL     1       0.375  -5.285  -4.211  0.00  0.00    +0.000 A 
ATOM     32  C   UNL     1      -0.167  -4.030  -4.415  0.00  0.00    +0.002 A 
ATOM     33  C   UNL     1       0.631  -2.906  -4.312  0.00  0.00    +0.028 A 
ENDBRANCH  25  28
ENDBRANCH  23  25
ENDBRANCH   1  23
TORSDOF 7
