REMARK  Name = ZINC02341134
REMARK  9 active torsions:
REMARK  status: ('A' for Active; 'I' for Inactive)
REMARK    1  A    between atoms: C_1  and  N_2
REMARK    2  A    between atoms: N_2  and  C_3
REMARK    3  A    between atoms: N_2  and  C_4
REMARK    4  A    between atoms: C_4  and  C_5
REMARK    5  A    between atoms: C_5  and  C_6
REMARK    6  A    between atoms: C_6  and  N_7
REMARK    7  A    between atoms: N_22  and  C_23
REMARK    8  A    between atoms: C_23  and  C_24
REMARK    9  A    between atoms: C_24  and  C_25
REMARK                            x       y       z     vdW  Elec       q    Type
REMARK                         _______ _______ _______ _____ _____    ______ ____
ROOT
ATOM      1  N   UNL     1      -2.777  -4.025  -0.239  0.00  0.00    -0.315 N 
ATOM      2  C   UNL     1      -3.957  -4.727  -0.254  0.00  0.00    +0.199 A 
ATOM      3  N   UNL     1      -5.099  -4.078  -0.157  0.00  0.00    -0.208 NA
ATOM      4  C   UNL     1      -6.255  -4.732  -0.169  0.00  0.00    +0.117 A 
ATOM      5  C   UNL     1      -6.321  -6.129  -0.284  0.00  0.00    +0.076 A 
ATOM      6  C   UNL     1      -7.667  -6.714  -0.287  0.00  0.00    -0.023 A 
ATOM      7  C   UNL     1      -8.701  -5.856  -0.182  0.00  0.00    -0.004 A 
ATOM      8  S   UNL     1      -7.959  -4.248  -0.063  0.00  0.00    -0.073 S 
ATOM      9  C   UNL     1     -10.164  -6.175  -0.179  0.00  0.00    +0.043 C 
ATOM     10  C   UNL     1     -10.432  -7.308   0.820  0.00  0.00    +0.005 C 
ATOM     11  C   UNL     1     -10.295  -8.638   0.087  0.00  0.00    +0.001 C 
ATOM     12  C   UNL     1      -9.231  -8.527  -1.003  0.00  0.00    +0.005 C 
ATOM     13  C   UNL     1      -7.869  -8.223  -0.392  0.00  0.00    +0.037 C 
ATOM     14  C   UNL     1      -5.065  -6.808  -0.386  0.00  0.00    +0.264 A 
ATOM     15  O   UNL     1      -5.024  -8.022  -0.488  0.00  0.00    -0.267 OA
ATOM     16  N   UNL     1      -3.930  -6.085  -0.373  0.00  0.00    -0.280 N 
ATOM     17  H   UNL     1      -1.932  -4.496  -0.314  0.00  0.00    +0.149 HD
ENDROOT
BRANCH   1  18
ATOM     18  C   UNL     1      -2.794  -2.566  -0.111  0.00  0.00    +0.102 C 
BRANCH  18  19
ATOM     19  C   UNL     1      -1.358  -2.037  -0.122  0.00  0.00    +0.000 C 
BRANCH  19  20
ATOM     20  C   UNL     1      -1.376  -0.512   0.012  0.00  0.00    -0.078 C 
BRANCH  20  22
ATOM     21  C   UNL     1      -0.018   1.465   0.010  0.00  0.00    -0.097 C 
ATOM     22  N   UNL     1       0.002  -0.004   0.002  0.00  0.00    +0.376 N 
ATOM     23  C   UNL     1       0.713  -0.491   1.192  0.00  0.00    -0.097 C 
ATOM     24  H   UNL     1       0.474  -0.330  -0.828  0.00  0.00    -0.083 HD
ENDBRANCH  20  22
ENDBRANCH  19  20
ENDBRANCH  18  19
ENDBRANCH   1  18
BRANCH  16  25
ATOM     25  C   UNL     1      -2.640  -6.771  -0.485  0.00  0.00    +0.133 C 
BRANCH  25  26
ATOM     26  C   UNL     1      -2.134  -7.136   0.912  0.00  0.00    +0.057 C 
BRANCH  26  27
ATOM     27  C   UNL     1      -0.808  -7.841   0.798  0.00  0.00    -0.046 A 
ATOM     28  C   UNL     1      -0.765  -9.217   0.670  0.00  0.00    +0.004 A 
ATOM     29  C   UNL     1       0.452  -9.864   0.565  0.00  0.00    +0.000 A 
ATOM     30  C   UNL     1       1.626  -9.136   0.588  0.00  0.00    +0.000 A 
ATOM     31  C   UNL     1       1.584  -7.760   0.715  0.00  0.00    +0.000 A 
ATOM     32  C   UNL     1       0.367  -7.112   0.815  0.00  0.00    +0.004 A 
ENDBRANCH  26  27
ENDBRANCH  25  26
ENDBRANCH  16  25
TORSDOF 7
