REMARK  Name = ZINC34699104
REMARK  13 active torsions:
REMARK  status: ('A' for Active; 'I' for Inactive)
REMARK    1  A    between atoms: C_1  and  C_2
REMARK    2  A    between atoms: C_5  and  C_8
REMARK    3  A    between atoms: N_11  and  C_28
REMARK    4  A    between atoms: C_13  and  C_15
REMARK    5  A    between atoms: C_15  and  N_16
REMARK    6  A    between atoms: N_16  and  C_17
REMARK    7  A    between atoms: C_17  and  C_18
REMARK    8  A    between atoms: C_17  and  C_19
REMARK    9  A    between atoms: C_20  and  C_22
REMARK   10  A    between atoms: C_28  and  C_29
REMARK   11  A    between atoms: C_32  and  O_36
REMARK   12  A    between atoms: C_34  and  O_35
REMARK   13  A    between atoms: O_36  and  C_37
REMARK                            x       y       z     vdW  Elec       q    Type
REMARK                         _______ _______ _______ _____ _____    ______ ____
ROOT
ATOM      1  C   UNL     1       2.225  -7.924   2.415  0.00  0.00    +0.005 C 
ATOM      2  C   UNL     1       2.642  -8.921   3.518  0.00  0.00    -0.070 C 
ATOM      3  N   UNL     1       4.115  -9.049   3.369  0.00  0.00    +0.383 N 
ATOM      4  C   UNL     1       4.572  -7.668   3.066  0.00  0.00    -0.073 C 
ATOM      5  C   UNL     1       3.493  -7.100   2.116  0.00  0.00    -0.005 C 
ATOM      6  H   UNL     1       4.340  -9.670   2.606  0.00  0.00    -0.081 HD
ENDROOT
BRANCH   1  11
ATOM      7  C   UNL     1      -2.007  -4.482   4.322  0.00  0.00    +0.044 C 
ATOM      8  C   UNL     1      -0.903  -5.380   3.825  0.00  0.00    -0.050 A 
ATOM      9  C   UNL     1      -1.036  -6.031   2.613  0.00  0.00    +0.003 A 
ATOM     10  C   UNL     1      -0.024  -6.855   2.156  0.00  0.00    +0.004 A 
ATOM     11  C   UNL     1       1.121  -7.026   2.912  0.00  0.00    -0.046 A 
ATOM     12  C   UNL     1       1.254  -6.373   4.123  0.00  0.00    +0.004 A 
ATOM     13  C   UNL     1       0.244  -5.547   4.577  0.00  0.00    +0.003 A 
ENDBRANCH   1  11
BRANCH   5  14
ATOM     14  C   UNL     1       3.248  -5.619   2.414  0.00  0.00    +0.110 C 
BRANCH  14  15
ATOM     15  N   UNL     1       4.415  -4.837   1.998  0.00  0.00    -0.295 N 
ATOM     16  C   UNL     1       5.420  -4.613   2.868  0.00  0.00    +0.247 C 
ATOM     17  O   UNL     1       5.185  -4.518   4.057  0.00  0.00    -0.270 OA
BRANCH  16  18
ATOM     18  C   UNL     1       6.808  -4.484   2.375  0.00  0.00    +0.037 A 
ATOM     19  C   UNL     1       7.052  -4.249   1.021  0.00  0.00    +0.013 A 
ATOM     20  C   UNL     1       8.350  -4.129   0.568  0.00  0.00    +0.001 A 
ATOM     21  C   UNL     1       9.408  -4.240   1.453  0.00  0.00    +0.000 A 
ATOM     22  C   UNL     1       9.172  -4.473   2.796  0.00  0.00    +0.001 A 
ATOM     23  C   UNL     1       7.879  -4.589   3.264  0.00  0.00    +0.013 A 
ENDBRANCH  16  18
BRANCH  15  24
ATOM     24  C   UNL     1       4.489  -4.298   0.638  0.00  0.00    +0.070 C 
ATOM     25  C   UNL     1       5.258  -2.976   0.655  0.00  0.00    +0.028 C 
ATOM     26  C   UNL     1       5.212  -5.297  -0.267  0.00  0.00    +0.028 C 
ENDBRANCH  15  24
ENDBRANCH  14  15
ENDBRANCH   5  14
BRANCH   3  27
ATOM     27  C   UNL     1       4.718  -9.527   4.620  0.00  0.00    -0.039 C 
BRANCH  27  28
ATOM     28  C   UNL     1       4.263 -10.939   4.889  0.00  0.00    -0.022 A 
ATOM     29  C   UNL     1       3.239 -11.174   5.787  0.00  0.00    +0.009 A 
ATOM     30  C   UNL     1       2.820 -12.467   6.036  0.00  0.00    +0.046 A 
ATOM     31  C   UNL     1       3.426 -13.532   5.384  0.00  0.00    +0.124 A 
ATOM     32  C   UNL     1       4.453 -13.298   4.484  0.00  0.00    +0.091 A 
ATOM     33  C   UNL     1       4.868 -12.000   4.231  0.00  0.00    +0.122 A 
BRANCH  33  34
ATOM     34  O   UNL     1       5.871 -11.767   3.344  0.00  0.00    -0.506 OA
ATOM     35  H   UNL     1       6.754 -11.765   3.739  0.00  0.00    +0.292 HD
ENDBRANCH  33  34
BRANCH  31  36
ATOM     36  O   UNL     1       3.013 -14.803   5.630  0.00  0.00    -0.495 OA
ATOM     37  C   UNL     1       1.950 -14.970   6.570  0.00  0.00    +0.277 C 
ENDBRANCH  31  36
ENDBRANCH  27  28
ENDBRANCH   3  27
TORSDOF 9
