REMARK  Name = ZINC66131441
REMARK  4 active torsions:
REMARK  status: ('A' for Active; 'I' for Inactive)
REMARK    1  A    between atoms: C_1  and  C_2
REMARK    2  A    between atoms: C_2  and  C_16
REMARK    3  A    between atoms: N_12  and  C_13
REMARK    4  A    between atoms: C_13  and  C_14
REMARK                            x       y       z     vdW  Elec       q    Type
REMARK                         _______ _______ _______ _____ _____    ______ ____
ROOT
ATOM      1  C   UNL     1      -0.019   1.526   0.010  0.00  0.00    +0.059 C 
ATOM      2  C   UNL     1       0.002  -0.004   0.002  0.00  0.00    +0.125 C 
ATOM      3  N   UNL     1      -1.376  -0.508  -0.008  0.00  0.00    -0.319 N 
ATOM      4  C   UNL     1      -1.605  -1.838   0.328  0.00  0.00    +0.041 A 
ATOM      5  C   UNL     1      -2.679  -2.545  -0.185  0.00  0.00    +0.024 A 
ATOM      6  C   UNL     1      -2.872  -3.862   0.187  0.00  0.00    +0.002 A 
ATOM      7  C   UNL     1      -1.999  -4.479   1.070  0.00  0.00    +0.001 A 
ATOM      8  C   UNL     1      -0.922  -3.790   1.587  0.00  0.00    +0.015 A 
ATOM      9  C   UNL     1      -0.713  -2.464   1.216  0.00  0.00    +0.058 A 
ATOM     10  C   UNL     1       0.437  -1.693   1.722  0.00  0.00    +0.250 C 
ATOM     11  O   UNL     1       1.132  -2.141   2.613  0.00  0.00    -0.270 OA
ATOM     12  N   UNL     1       0.710  -0.485   1.188  0.00  0.00    -0.269 N 
ATOM     13  H   UNL     1      -2.114   0.075  -0.245  0.00  0.00    +0.148 HD
ENDROOT
BRANCH   2  14
ATOM     14  C   UNL     1       0.715  -0.486  -1.235  0.00  0.00    -0.006 A 
ATOM     15  C   UNL     1       2.081  -0.702  -1.205  0.00  0.00    +0.009 A 
ATOM     16  C   UNL     1       2.735  -1.145  -2.339  0.00  0.00    +0.020 A 
ATOM     17  C   UNL     1       2.024  -1.372  -3.504  0.00  0.00    +0.041 A 
ATOM     18  C   UNL     1       0.658  -1.155  -3.533  0.00  0.00    +0.020 A 
ATOM     19  C   UNL     1       0.004  -0.718  -2.397  0.00  0.00    +0.009 A 
ATOM     20 CL   UNL     1       2.846  -1.927  -4.929  0.00  0.00    -0.084 Cl
ENDBRANCH   2  14
BRANCH  12  21
ATOM     21  C   UNL     1       1.735   0.359   1.807  0.00  0.00    +0.137 C 
BRANCH  21  22
ATOM     22  C   UNL     1       1.097   1.241   2.849  0.00  0.00    -0.016 C 
ATOM     23  C   UNL     1       1.550   1.234   4.079  0.00  0.00    +0.005 C 
ENDBRANCH  21  22
ENDBRANCH  12  21
TORSDOF 3
