REMARK  Name = ZINC20504065
REMARK  7 active torsions:
REMARK  status: ('A' for Active; 'I' for Inactive)
REMARK    1  A    between atoms: C_1  and  O_2
REMARK    2  A    between atoms: O_2  and  C_3
REMARK    3  A    between atoms: C_3  and  C_5
REMARK    4  A    between atoms: C_21  and  C_34
REMARK    5  A    between atoms: C_24  and  N_27
REMARK    6  A    between atoms: N_27  and  C_28
REMARK    7  A    between atoms: C_28  and  C_29
REMARK                            x       y       z     vdW  Elec       q    Type
REMARK                         _______ _______ _______ _____ _____    ______ ____
ROOT
ATOM      1  C   UNL     1      -0.013   1.086   0.008  0.00  0.00    +0.172 C 
ATOM      2  C   UNL     1      -0.923   1.218   1.237  0.00  0.00    +0.068 C 
ATOM      3  C   UNL     1      -1.046   2.682   1.577  0.00  0.00    -0.016 A 
ATOM      4  C   UNL     1      -2.005   3.346   2.431  0.00  0.00    +0.003 A 
ATOM      5  C   UNL     1      -3.085   2.882   3.189  0.00  0.00    +0.010 A 
ATOM      6  C   UNL     1      -3.797   3.820   3.895  0.00  0.00    +0.001 A 
ATOM      7  C   UNL     1      -3.471   5.167   3.866  0.00  0.00    +0.002 A 
ATOM      8  C   UNL     1      -2.408   5.653   3.126  0.00  0.00    +0.026 A 
ATOM      9  C   UNL     1      -1.667   4.724   2.399  0.00  0.00    +0.047 A 
ATOM     10  N   UNL     1      -0.581   4.858   1.581  0.00  0.00    -0.356 N 
ATOM     11  H   UNL     1      -0.141   5.852   1.410  0.00  0.00    +0.166 HD
ATOM     12  C   UNL     1      -0.216   3.634   1.091  0.00  0.00    +0.038 A 
ATOM     13  C   UNL     1       0.924   3.325   0.153  0.00  0.00    +0.103 C 
ATOM     14  N   UNL     1       1.202   1.882   0.212  0.00  0.00    -0.274 NA
ATOM     15  C   UNL     1       2.260   1.514  -0.736  0.00  0.00    +0.087 C 
ATOM     16  C   UNL     1       3.553   2.233  -0.368  0.00  0.00    +0.008 C 
ATOM     17  C   UNL     1       3.320   3.746  -0.388  0.00  0.00    -0.068 C 
ATOM     18  C   UNL     1       2.176   4.097   0.570  0.00  0.00    +0.009 C 
ENDROOT
BRANCH  15  19
ATOM     19  C   UNL     1       2.481   0.024  -0.689  0.00  0.00    -0.030 A 
ATOM     20  C   UNL     1       2.462  -0.640   0.524  0.00  0.00    +0.008 A 
ATOM     21  C   UNL     1       2.659  -2.007   0.568  0.00  0.00    +0.038 A 
ATOM     22  C   UNL     1       2.887  -2.710  -0.603  0.00  0.00    +0.123 A 
ATOM     23  C   UNL     1       2.912  -2.044  -1.816  0.00  0.00    +0.038 A 
ATOM     24  C   UNL     1       2.709  -0.678  -1.858  0.00  0.00    +0.008 A 
ATOM     25  F   UNL     1       3.085  -4.046  -0.561  0.00  0.00    -0.205 F 
ENDBRANCH  15  19
BRANCH  17  26
ATOM     26  N   UNL     1       4.545   4.437   0.038  0.00  0.00    +0.384 N 
ATOM     27  H   UNL     1       4.285   5.422   0.452  0.00  0.00    -0.085 HD
ATOM     28  H   UNL     1       5.055   3.838   0.807  0.00  0.00    -0.085 HD
BRANCH  26  29
ATOM     29  C   UNL     1       5.461   4.629  -1.094  0.00  0.00    -0.039 C 
BRANCH  29  30
ATOM     30  C   UNL     1       6.703   5.338  -0.620  0.00  0.00    -0.027 A 
ATOM     31  C   UNL     1       7.856   4.812  -0.139  0.00  0.00    +0.009 A 
ATOM     32  C   UNL     1       8.876   5.665   0.237  0.00  0.00    +0.008 A 
ATOM     33  C   UNL     1       8.691   7.003   0.124  0.00  0.00    +0.045 A 
ATOM     34  S   UNL     1       7.035   7.090  -0.539  0.00  0.00    -0.104 S 
ENDBRANCH  29  30
ENDBRANCH  26  29
ENDBRANCH  17  26
BRANCH   1  35
ATOM     35  C   UNL     1      -0.742   1.585  -1.213  0.00  0.00    +0.325 C 
ATOM     36  O   UNL     1      -0.201   2.364  -1.963  0.00  0.00    -0.249 OA
BRANCH  35  38
ATOM     37  C   UNL     1      -2.631   1.687  -2.661  0.00  0.00    +0.280 C 
ATOM     38  O   UNL     1      -1.990   1.165  -1.468  0.00  0.00    -0.467 OA
ENDBRANCH  35  38
ENDBRANCH   1  35
TORSDOF 6
