REMARK  Name = ZINC03351145
REMARK  5 active torsions:
REMARK  status: ('A' for Active; 'I' for Inactive)
REMARK    1  A    between atoms: C_4  and  C_7
REMARK    2  A    between atoms: C_8  and  C_18
REMARK    3  A    between atoms: N_10  and  C_12
REMARK    4  A    between atoms: N_20  and  N_21
REMARK    5  A    between atoms: N_21  and  C_22
REMARK                            x       y       z     vdW  Elec       q    Type
REMARK                         _______ _______ _______ _____ _____    ______ ____
ROOT
ATOM      1  C   UNL     1       1.169   3.569   0.010  0.00  0.00    +0.105 A 
ATOM      2  C   UNL     1       2.133   4.446   0.681  0.00  0.00    +0.084 A 
ATOM      3  C   UNL     1       1.730   5.740   0.420  0.00  0.00    +0.128 A 
ATOM      4  N   UNL     1       0.623   5.681  -0.341  0.00  0.00    -0.239 N 
ATOM      5  N   UNL     1       0.294   4.346  -0.589  0.00  0.00    -0.166 NA
ENDROOT
BRANCH   1   9
ATOM      6  C   UNL     1       1.208  -0.682  -0.013  0.00  0.00    +0.000 A 
ATOM      7  C   UNL     1       0.002  -0.004   0.002  0.00  0.00    +0.001 A 
ATOM      8  C   UNL     1      -0.017   1.376   0.010  0.00  0.00    +0.010 A 
ATOM      9  C   UNL     1       1.183   2.087   0.002  0.00  0.00    +0.003 A 
ATOM     10  C   UNL     1       2.394   1.398  -0.013  0.00  0.00    +0.010 A 
ATOM     11  C   UNL     1       2.401   0.018  -0.021  0.00  0.00    +0.001 A 
ENDBRANCH   1   9
BRANCH   4  12
ATOM     12  C   UNL     1      -0.088   6.790  -0.817  0.00  0.00    +0.065 A 
ATOM     13  C   UNL     1       0.335   8.075  -0.505  0.00  0.00    +0.028 A 
ATOM     14  C   UNL     1      -0.365   9.166  -0.982  0.00  0.00    +0.002 A 
ATOM     15  C   UNL     1      -1.494   8.979  -1.758  0.00  0.00    +0.000 A 
ATOM     16  C   UNL     1      -1.922   7.701  -2.066  0.00  0.00    +0.002 A 
ATOM     17  C   UNL     1      -1.222   6.606  -1.597  0.00  0.00    +0.028 A 
ENDBRANCH   4  12
BRANCH   2  18
ATOM     18  C   UNL     1       3.300   4.029   1.478  0.00  0.00    +0.264 C 
ATOM     19  O   UNL     1       3.541   2.847   1.630  0.00  0.00    -0.269 OA
ATOM     20  N   UNL     1       4.100   4.958   2.038  0.00  0.00    -0.233 N 
ATOM     21  H   UNL     1       3.908   5.901   1.916  0.00  0.00    +0.173 HD
BRANCH  20  22
ATOM     22  N   UNL     1       5.210   4.561   2.795  0.00  0.00    -0.269 N 
ATOM     23  H   UNL     1       5.402   3.619   2.917  0.00  0.00    +0.170 HD
BRANCH  22  24
ATOM     24  C   UNL     1       6.035   5.519   3.372  0.00  0.00    +0.018 C 
ATOM     25  C   UNL     1       5.773   6.787   3.207  0.00  0.00    -0.007 C 
ATOM     26  C   UNL     1       6.665   7.839   3.830  0.00  0.00    +0.029 C 
ATOM     27  C   UNL     1       7.994   7.864   3.072  0.00  0.00    +0.004 C 
ATOM     28  C   UNL     1       8.951   6.826   3.629  0.00  0.00    +0.001 C 
ATOM     29  C   UNL     1       8.504   5.394   3.395  0.00  0.00    +0.006 C 
ATOM     30  C   UNL     1       7.229   5.086   4.195  0.00  0.00    +0.052 C 
ENDBRANCH  22  24
ENDBRANCH  20  22
ENDBRANCH   2  18
TORSDOF 5
