REMARK  Name = ZINC10031288
REMARK  9 active torsions:
REMARK  status: ('A' for Active; 'I' for Inactive)
REMARK    1  A    between atoms: C_1  and  N_58
REMARK    2  A    between atoms: C_7  and  N_18
REMARK    3  A    between atoms: C_8  and  C_9
REMARK    4  A    between atoms: C_19  and  C_21
REMARK    5  A    between atoms: C_21  and  C_22
REMARK    6  A    between atoms: C_22  and  S_23
REMARK    7  A    between atoms: S_23  and  C_24
REMARK    8  A    between atoms: C_27  and  O_30
REMARK    9  A    between atoms: O_30  and  C_31
REMARK                            x       y       z     vdW  Elec       q    Type
REMARK                         _______ _______ _______ _____ _____    ______ ____
ROOT
ATOM      1  C   UNL     1       5.139   3.772  -0.240  0.00  0.00    -0.096 C 
ATOM      2  C   UNL     1       2.822   3.942   0.444  0.00  0.00    -0.074 C 
ATOM      3  C   UNL     1       1.395   3.597   0.012  0.00  0.00    +0.018 C 
ATOM      4  C   UNL     1       1.255   2.077   0.001  0.00  0.00    -0.029 A 
ATOM      5  C   UNL     1       2.364   1.299  -0.015  0.00  0.00    -0.021 A 
ATOM      6  S   UNL     1       1.750  -0.361  -0.017  0.00  0.00    -0.079 S 
ATOM      7  C   UNL     1       0.002  -0.004   0.002  0.00  0.00    +0.082 A 
ATOM      8  C   UNL     1      -0.017   1.382   0.010  0.00  0.00    +0.039 A 
ATOM      9  C   UNL     1       3.784   1.771  -0.028  0.00  0.00    -0.036 C 
ATOM     10  N   UNL     1       3.783   3.205  -0.403  0.00  0.00    +0.381 N 
ATOM     11  H   UNL     1       3.499   3.294  -1.385  0.00  0.00    -0.082 HD
ENDROOT
BRANCH   8  12
ATOM     12  C   UNL     1      -1.289   2.124   0.020  0.00  0.00    +0.112 A 
ATOM     13  N   UNL     1      -1.485   3.427   0.033  0.00  0.00    -0.239 NA
ATOM     14  C   UNL     1      -2.719   3.973   0.036  0.00  0.00    +0.079 A 
ATOM     15  C   UNL     1      -3.067   5.344   0.045  0.00  0.00    +0.029 A 
ATOM     16  C   UNL     1      -4.380   5.733   0.053  0.00  0.00    +0.002 A 
ATOM     17  C   UNL     1      -5.412   4.804   0.054  0.00  0.00    +0.001 A 
ATOM     18  C   UNL     1      -5.108   3.455   0.045  0.00  0.00    +0.017 A 
ATOM     19  C   UNL     1      -3.795   3.055   0.037  0.00  0.00    +0.040 A 
ATOM     20  S   UNL     1      -2.959   1.488   0.025  0.00  0.00    -0.067 S 
ENDBRANCH   8  12
BRANCH   7  21
ATOM     21  N   UNL     1      -1.069  -0.891   0.007  0.00  0.00    -0.279 N 
ATOM     22  C   UNL     1      -0.844  -2.219  -0.002  0.00  0.00    +0.218 C 
ATOM     23  O   UNL     1       0.293  -2.642  -0.015  0.00  0.00    -0.275 OA
ATOM     24  H   UNL     1      -1.978  -0.553   0.018  0.00  0.00    +0.155 HD
BRANCH  22  25
ATOM     25  C   UNL     1      -2.005  -3.180   0.004  0.00  0.00    +0.107 C 
BRANCH  25  26
ATOM     26  C   UNL     1      -1.478  -4.617  -0.009  0.00  0.00    +0.083 C 
BRANCH  26  27
ATOM     27  S   UNL     1      -2.876  -5.773  -0.002  0.00  0.00    -0.125 S 
BRANCH  27  28
ATOM     28  C   UNL     1      -2.114  -7.362  -0.018  0.00  0.00    +0.008 A 
ATOM     29  C   UNL     1      -0.729  -7.469  -0.037  0.00  0.00    +0.018 A 
ATOM     30  C   UNL     1      -0.133  -8.715  -0.044  0.00  0.00    +0.047 A 
ATOM     31  C   UNL     1      -0.917  -9.859  -0.043  0.00  0.00    +0.120 A 
ATOM     32  C   UNL     1      -2.300  -9.754  -0.029  0.00  0.00    +0.047 A 
ATOM     33  C   UNL     1      -2.898  -8.509  -0.017  0.00  0.00    +0.018 A 
BRANCH  31  34
ATOM     34  O   UNL     1      -0.329 -11.085  -0.055  0.00  0.00    -0.495 OA
ATOM     35  C   UNL     1       1.099 -11.120  -0.069  0.00  0.00    +0.277 C 
ENDBRANCH  31  34
ENDBRANCH  27  28
ENDBRANCH  26  27
ENDBRANCH  25  26
ENDBRANCH  22  25
ENDBRANCH   7  21
TORSDOF 7
