REMARK  Name = ZINC15227073
REMARK  5 active torsions:
REMARK  status: ('A' for Active; 'I' for Inactive)
REMARK    1  A    between atoms: C_1  and  N_2
REMARK    2  A    between atoms: C_6  and  C_13
REMARK    3  A    between atoms: N_9  and  C_12
REMARK    4  A    between atoms: N_14  and  N_15
REMARK    5  A    between atoms: C_16  and  C_18
REMARK                            x       y       z     vdW  Elec       q    Type
REMARK                         _______ _______ _______ _____ _____    ______ ____
ROOT
ATOM      1  C   UNL     1      -2.351   0.989   0.117  0.00  0.00    +0.138 C 
ATOM      2  N   UNL     1      -3.484   1.618   0.190  0.00  0.00    -0.187 NA
ENDROOT
BRANCH   1   8
ATOM      3  C   UNL     1      -1.580  -5.707   0.191  0.00  0.00    +0.154 C 
ATOM      4  N   UNL     1      -2.551  -4.621   0.035  0.00  0.00    -0.295 N 
ATOM      5  C   UNL     1      -2.266  -3.260   0.095  0.00  0.00    +0.070 A 
ATOM      6  C   UNL     1      -1.095  -2.543   0.302  0.00  0.00    +0.028 A 
ATOM      7  C   UNL     1      -1.120  -1.166   0.304  0.00  0.00    +0.011 A 
ATOM      8  C   UNL     1      -2.326  -0.485   0.109  0.00  0.00    -0.003 A 
ATOM      9  C   UNL     1      -3.505  -1.203  -0.099  0.00  0.00    +0.037 A 
ATOM     10  C   UNL     1      -3.475  -2.586  -0.106  0.00  0.00    +0.070 A 
ATOM     11  N   UNL     1      -4.455  -3.561  -0.282  0.00  0.00    -0.295 N 
ATOM     12  C   UNL     1      -3.869  -4.770  -0.192  0.00  0.00    +0.330 A 
ATOM     13  O   UNL     1      -4.445  -5.837  -0.301  0.00  0.00    -0.246 OA
ATOM     14  C   UNL     1      -5.878  -3.313  -0.523  0.00  0.00    +0.154 C 
ENDBRANCH   1   8
BRANCH   2  15
ATOM     15  N   UNL     1      -4.613   0.971   0.707  0.00  0.00    -0.200 N 
ATOM     16  C   UNL     1      -5.815   1.579   0.671  0.00  0.00    +0.299 C 
ATOM     17  O   UNL     1      -5.920   2.690   0.183  0.00  0.00    -0.265 OA
ATOM     18  H   UNL     1      -4.529   0.086   1.095  0.00  0.00    +0.178 HD
BRANCH  16  19
ATOM     19  C   UNL     1      -6.998   0.903   1.219  0.00  0.00    +0.192 A 
ATOM     20  C   UNL     1      -8.255   1.417   1.236  0.00  0.00    +0.063 A 
ATOM     21  C   UNL     1      -9.099   0.405   1.869  0.00  0.00    +0.022 A 
ATOM     22  C   UNL     1     -10.459   0.325   2.179  0.00  0.00    +0.027 A 
ATOM     23  C   UNL     1     -10.950  -0.795   2.790  0.00  0.00    +0.019 A 
ATOM     24  C   UNL     1     -10.106  -1.852   3.104  0.00  0.00    +0.019 A 
ATOM     25  C   UNL     1      -8.762  -1.793   2.807  0.00  0.00    +0.048 A 
ATOM     26  C   UNL     1      -8.240  -0.664   2.185  0.00  0.00    +0.136 A 
ATOM     27  O   UNL     1      -7.001  -0.326   1.776  0.00  0.00    -0.450 OA
ATOM     28 BR   UNL     1     -12.791  -0.904   3.211  0.00  0.00    -0.050 Br
ENDBRANCH  16  19
ENDBRANCH   2  15
TORSDOF 3
