REMARK  Name = ZINC10000739
REMARK  14 active torsions:
REMARK  status: ('A' for Active; 'I' for Inactive)
REMARK    1  A    between atoms: C_1  and  C_2
REMARK    2  A    between atoms: C_2  and  O_3
REMARK    3  A    between atoms: O_3  and  C_4
REMARK    4  A    between atoms: C_4  and  C_6
REMARK    5  A    between atoms: C_6  and  N_7
REMARK    6  A    between atoms: C_8  and  C_36
REMARK    7  A    between atoms: C_9  and  C_16
REMARK    8  A    between atoms: N_17  and  N_18
REMARK    9  A    between atoms: C_19  and  C_21
REMARK   10  A    between atoms: C_21  and  C_23
REMARK   11  A    between atoms: C_21  and  N_26
REMARK   12  A    between atoms: C_23  and  C_24
REMARK   13  A    between atoms: C_23  and  C_25
REMARK   14  A    between atoms: C_27  and  C_29
REMARK                            x       y       z     vdW  Elec       q    Type
REMARK                         _______ _______ _______ _____ _____    ______ ____
ROOT
ATOM      1  N   UNL     1       4.812  -5.541  -0.879  0.00  0.00    -0.205 N 
ATOM      2  C   UNL     1       4.197  -4.365  -1.118  0.00  0.00    +0.253 C 
ATOM      3  O   UNL     1       4.824  -3.437  -1.584  0.00  0.00    -0.272 OA
ATOM      4  H   UNL     1       4.300  -6.299  -0.557  0.00  0.00    +0.177 HD
ENDROOT
BRANCH   1   6
ATOM      5  C   UNL     1       6.791  -6.785  -0.818  0.00  0.00    +0.140 C 
ATOM      6  N   UNL     1       6.190  -5.668  -1.096  0.00  0.00    -0.188 NA
BRANCH   5   9
ATOM      7  N   UNL     1       5.270  -9.701   0.775  0.00  0.00    -0.333 N 
ATOM      8  C   UNL     1       6.193  -8.699   0.728  0.00  0.00    +0.026 A 
ATOM      9  C   UNL     1       6.007  -7.958  -0.398  0.00  0.00    +0.023 A 
ATOM     10  C   UNL     1       4.872  -8.562  -1.117  0.00  0.00    +0.009 A 
ATOM     11  C   UNL     1       4.452  -9.650  -0.333  0.00  0.00    +0.050 A 
ATOM     12  C   UNL     1       3.380 -10.426  -0.762  0.00  0.00    +0.026 A 
ATOM     13  C   UNL     1       2.742 -10.124  -1.945  0.00  0.00    +0.002 A 
ATOM     14  C   UNL     1       3.158  -9.049  -2.718  0.00  0.00    +0.001 A 
ATOM     15  C   UNL     1       4.217  -8.268  -2.311  0.00  0.00    +0.010 A 
ATOM     16  C   UNL     1       7.256  -8.448   1.767  0.00  0.00    +0.064 C 
BRANCH   7  17
ATOM     17  C   UNL     1       5.167 -10.694   1.847  0.00  0.00    +0.242 C 
BRANCH  17  18
ATOM     18  C   UNL     1       6.028 -11.885   1.514  0.00  0.00    +0.327 C 
ATOM     19  O   UNL     1       6.663 -11.902   0.486  0.00  0.00    -0.249 OA
BRANCH  18  20
ATOM     20  O   UNL     1       6.090 -12.926   2.359  0.00  0.00    -0.464 OA
BRANCH  20  22
ATOM     21  C   UNL     1       6.883 -15.122   3.051  0.00  0.00    +0.048 C 
ATOM     22  C   UNL     1       6.940 -14.039   1.973  0.00  0.00    +0.229 C 
ENDBRANCH  20  22
ENDBRANCH  18  20
ENDBRANCH  17  18
ENDBRANCH   7  17
ENDBRANCH   5   9
ENDBRANCH   1   6
BRANCH   2  23
ATOM     23  C   UNL     1       2.732  -4.204  -0.805  0.00  0.00    +0.163 C 
BRANCH  23  24
ATOM     24  N   UNL     1       2.227  -2.987  -1.447  0.00  0.00    -0.300 N 
ATOM     25  C   UNL     1       0.918  -2.878  -1.748  0.00  0.00    +0.245 C 
ATOM     26  O   UNL     1       0.157  -3.789  -1.488  0.00  0.00    -0.270 OA
ATOM     27  H   UNL     1       2.835  -2.260  -1.654  0.00  0.00    +0.150 HD
BRANCH  25  28
ATOM     28  C   UNL     1       0.409  -1.651  -2.395  0.00  0.00    +0.037 A 
ATOM     29  C   UNL     1      -0.947  -1.535  -2.709  0.00  0.00    +0.014 A 
ATOM     30  C   UNL     1      -1.416  -0.388  -3.313  0.00  0.00    +0.021 A 
ATOM     31  C   UNL     1      -0.545   0.649  -3.609  0.00  0.00    +0.041 A 
ATOM     32  C   UNL     1       0.800   0.539  -3.300  0.00  0.00    +0.021 A 
ATOM     33  C   UNL     1       1.281  -0.603  -2.696  0.00  0.00    +0.014 A 
ATOM     34 CL   UNL     1      -1.143   2.090  -4.370  0.00  0.00    -0.084 Cl
ENDBRANCH  25  28
ENDBRANCH  23  24
BRANCH  23  35
ATOM     35  C   UNL     1       2.542  -4.098   0.709  0.00  0.00    +0.012 C 
ATOM     36  C   UNL     1       1.073  -3.806   1.020  0.00  0.00    +0.009 C 
ATOM     37  C   UNL     1       2.950  -5.418   1.367  0.00  0.00    +0.009 C 
ENDBRANCH  23  35
ENDBRANCH   2  23
TORSDOF 10
