REMARK  Name = ZINC26422446
REMARK  6 active torsions:
REMARK  status: ('A' for Active; 'I' for Inactive)
REMARK    1  A    between atoms: C_4  and  S_25
REMARK    2  A    between atoms: C_5  and  N_7
REMARK    3  A    between atoms: C_8  and  C_10
REMARK    4  A    between atoms: C_10  and  N_11
REMARK    5  A    between atoms: S_25  and  C_26
REMARK    6  A    between atoms: C_26  and  C_27
REMARK                            x       y       z     vdW  Elec       q    Type
REMARK                         _______ _______ _______ _____ _____    ______ ____
ROOT
ATOM      1  N   UNL     1      -6.706   1.016   1.732  0.00  0.00    -0.283 N 
ATOM      2  C   UNL     1      -5.455   1.449   1.479  0.00  0.00    +0.236 C 
ATOM      3  O   UNL     1      -4.671   1.604   2.391  0.00  0.00    -0.274 OA
ATOM      4  H   UNL     1      -7.440   0.946   0.915  0.00  0.00    +0.155 HD
ENDROOT
BRANCH   1   9
ATOM      5  C   UNL     1      -6.909   0.983   5.406  0.00  0.00    +0.002 A 
ATOM      6  C   UNL     1      -7.795  -0.058   5.615  0.00  0.00    +0.001 A 
ATOM      7  C   UNL     1      -8.324  -0.747   4.540  0.00  0.00    +0.016 A 
ATOM      8  C   UNL     1      -7.966  -0.395   3.246  0.00  0.00    +0.030 A 
ATOM      9  C   UNL     1      -7.072   0.655   3.035  0.00  0.00    +0.047 A 
ATOM     10  C   UNL     1      -6.543   1.337   4.120  0.00  0.00    +0.024 A 
BRANCH   8  11
ATOM     11  S   UNL     1      -8.638  -1.272   1.873  0.00  0.00    -0.114 S 
BRANCH  11  12
ATOM     12  C   UNL     1      -9.720  -2.514   2.633  0.00  0.00    +0.169 C 
BRANCH  12  13
ATOM     13  C   UNL     1     -10.367  -3.344   1.554  0.00  0.00    +0.221 C 
ATOM     14  O   UNL     1     -10.122  -3.119   0.388  0.00  0.00    -0.275 OA
ATOM     15  N   UNL     1     -11.217  -4.335   1.886  0.00  0.00    -0.329 N 
ATOM     16  H   UNL     1     -11.690  -4.941   1.099  0.00  0.00    +0.145 HD
ATOM     17  H   UNL     1     -11.440  -4.539   2.944  0.00  0.00    +0.145 HD
ENDBRANCH  12  13
ENDBRANCH  11  12
ENDBRANCH   8  11
ENDBRANCH   1   9
BRANCH   2  18
ATOM     18  C   UNL     1      -5.031   1.741   0.062  0.00  0.00    +0.227 C 
BRANCH  18  19
ATOM     19  N   UNL     1      -3.638   2.193   0.053  0.00  0.00    -0.194 N 
ATOM     20  C   UNL     1      -2.484   1.393   0.030  0.00  0.00    +0.061 A 
ATOM     21  C   UNL     1      -2.409   0.001   0.012  0.00  0.00    +0.025 A 
ATOM     22  C   UNL     1      -1.180  -0.646  -0.010  0.00  0.00    +0.002 A 
ATOM     23  C   UNL     1       0.003   0.033  -0.015  0.00  0.00    +0.009 A 
ATOM     24  C   UNL     1      -0.021   1.437   0.003  0.00  0.00    -0.014 A 
ATOM     25  C   UNL     1      -1.274   2.084   0.031  0.00  0.00    +0.031 A 
ATOM     26  C   UNL     1      -1.339   3.482   0.044  0.00  0.00    +0.118 A 
ATOM     27  C   UNL     1      -0.213   4.219   0.041  0.00  0.00    +0.029 A 
ATOM     28  C   UNL     1       1.036   3.586   0.018  0.00  0.00    +0.003 A 
ATOM     29  C   UNL     1       1.141   2.227  -0.000  0.00  0.00    +0.009 A 
ATOM     30  S   UNL     1      -3.084   3.776   0.068  0.00  0.00    +0.076 S 
ATOM     31  O   UNL     1      -3.440   4.372  -1.173  0.00  0.00    -0.150 OA
ATOM     32  O   UNL     1      -3.412   4.339   1.331  0.00  0.00    -0.150 OA
ENDBRANCH  18  19
ENDBRANCH   2  18
TORSDOF 6
