REMARK  Name = ZINC35684202
REMARK  4 active torsions:
REMARK  status: ('A' for Active; 'I' for Inactive)
REMARK    1  A    between atoms: C_4  and  C_7
REMARK    2  A    between atoms: C_17  and  N_18
REMARK    3  A    between atoms: N_18  and  S_19
REMARK    4  A    between atoms: S_19  and  C_22
REMARK                            x       y       z     vdW  Elec       q    Type
REMARK                         _______ _______ _______ _____ _____    ______ ____
ROOT
ATOM      1  C   UNL     1       3.593  -0.479  -0.089  0.00  0.00    +0.019 A 
ATOM      2  C   UNL     1       3.910  -1.160  -1.293  0.00  0.00    +0.011 A 
ATOM      3  C   UNL     1       3.017  -1.182  -2.372  0.00  0.00    +0.026 A 
ATOM      4  C   UNL     1       3.354  -1.845  -3.514  0.00  0.00    +0.019 A 
ATOM      5  C   UNL     1       4.578  -2.502  -3.622  0.00  0.00    +0.017 A 
ATOM      6  C   UNL     1       5.468  -2.500  -2.591  0.00  0.00    +0.029 A 
ATOM      7  C   UNL     1       5.154  -1.826  -1.399  0.00  0.00    +0.076 A 
ATOM      8  N   UNL     1       6.016  -1.809  -0.374  0.00  0.00    -0.207 NA
ATOM      9  C   UNL     1       5.744  -1.185   0.750  0.00  0.00    +0.294 A 
ATOM     10  O   UNL     1       6.656  -1.202   1.754  0.00  0.00    -0.264 OA
ATOM     11  C   UNL     1       4.533  -0.497   0.936  0.00  0.00    +0.122 A 
ATOM     12 BR   UNL     1       2.147  -1.875  -4.969  0.00  0.00    -0.050 Br
ENDROOT
BRANCH   1  16
ATOM     13  C   UNL     1      -0.106   1.563   0.363  0.00  0.00    +0.000 A 
ATOM     14  C   UNL     1       1.079   2.277   0.361  0.00  0.00    +0.001 A 
ATOM     15  C   UNL     1       2.283   1.620   0.214  0.00  0.00    +0.008 A 
ATOM     16  C   UNL     1       2.304   0.233   0.069  0.00  0.00    -0.015 A 
ATOM     17  C   UNL     1       1.105  -0.481   0.073  0.00  0.00    +0.008 A 
ATOM     18  C   UNL     1      -0.092   0.188   0.219  0.00  0.00    +0.001 A 
ENDBRANCH   1  16
BRANCH  11  19
ATOM     19  N   UNL     1       4.275   0.161   2.140  0.00  0.00    -0.210 N 
ATOM     20  H   UNL     1       3.498  -0.081   2.668  0.00  0.00    +0.174 HD
BRANCH  19  21
ATOM     21  S   UNL     1       5.295   1.355   2.666  0.00  0.00    +0.073 S 
ATOM     22  O   UNL     1       4.721   1.884   3.854  0.00  0.00    -0.150 OA
ATOM     23  O   UNL     1       6.607   0.812   2.631  0.00  0.00    -0.150 OA
BRANCH  21  24
ATOM     24  C   UNL     1       5.250   2.644   1.467  0.00  0.00    +0.112 A 
ATOM     25  C   UNL     1       6.053   2.569   0.343  0.00  0.00    +0.032 A 
ATOM     26  C   UNL     1       6.022   3.580  -0.599  0.00  0.00    +0.051 A 
ATOM     27  C   UNL     1       5.184   4.671  -0.421  0.00  0.00    +0.162 A 
ATOM     28  C   UNL     1       4.376   4.745   0.707  0.00  0.00    +0.164 A 
ATOM     29  C   UNL     1       4.410   3.726   1.648  0.00  0.00    +0.078 A 
ATOM     30  O   UNL     1       3.542   5.803   0.898  0.00  0.00    -0.485 OA
ATOM     31  C   UNL     1       3.804   6.978   0.122  0.00  0.00    +0.270 C 
ATOM     32  C   UNL     1       4.045   6.549  -1.332  0.00  0.00    +0.270 C 
ATOM     33  O   UNL     1       5.167   5.660  -1.356  0.00  0.00    -0.485 OA
ENDBRANCH  21  24
ENDBRANCH  19  21
ENDBRANCH  11  19
TORSDOF 4
