REMARK  Name = ZINC39899339
REMARK  15 active torsions:
REMARK  status: ('A' for Active; 'I' for Inactive)
REMARK    1  A    between atoms: C_1  and  C_2
REMARK    2  A    between atoms: C_2  and  O_3
REMARK    3  A    between atoms: O_3  and  C_4
REMARK    4  A    between atoms: C_6  and  C_14
REMARK    5  A    between atoms: C_9  and  O_10
REMARK    6  A    between atoms: O_10  and  C_11
REMARK    7  A    between atoms: C_11  and  C_12
REMARK    8  A    between atoms: C_17  and  C_32
REMARK    9  A    between atoms: N_24  and  C_25
REMARK   10  A    between atoms: C_25  and  C_26
REMARK   11  A    between atoms: C_26  and  C_27
REMARK   12  A    between atoms: C_27  and  O_28
REMARK   13  A    between atoms: O_28  and  C_29
REMARK   14  A    between atoms: C_29  and  C_30
REMARK   15  A    between atoms: C_29  and  C_31
REMARK                            x       y       z     vdW  Elec       q    Type
REMARK                         _______ _______ _______ _____ _____    ______ ____
ROOT
ATOM      1  C   UNL     1      -0.217  -4.963  -0.535  0.00  0.00    +0.141 C 
ATOM      2  C   UNL     1      -1.516  -5.536  -0.038  0.00  0.00    +0.035 A 
ATOM      3  C   UNL     1      -2.784  -5.304   0.388  0.00  0.00    +0.075 A 
ATOM      4  N   UNL     1      -3.332  -6.523   0.670  0.00  0.00    -0.276 N 
ATOM      5  N   UNL     1      -2.475  -7.453   0.439  0.00  0.00    -0.168 NA
ATOM      6  H   UNL     1      -4.234  -6.666   0.996  0.00  0.00    +0.189 HD
ATOM      7  C   UNL     1      -1.342  -6.938   0.004  0.00  0.00    +0.153 A 
ATOM      8  C   UNL     1       0.028  -7.238  -0.452  0.00  0.00    +0.268 C 
ATOM      9  O   UNL     1       0.502  -8.354  -0.535  0.00  0.00    -0.268 OA
ATOM     10  N   UNL     1       0.678  -6.103  -0.764  0.00  0.00    -0.285 N 
ENDROOT
BRANCH   3  11
ATOM     11  C   UNL     1      -3.445  -3.987   0.522  0.00  0.00    +0.048 A 
ATOM     12  C   UNL     1      -3.816  -3.514   1.780  0.00  0.00    +0.033 A 
ATOM     13  C   UNL     1      -4.431  -2.283   1.899  0.00  0.00    +0.042 A 
ATOM     14  C   UNL     1      -4.681  -1.517   0.772  0.00  0.00    +0.024 A 
ATOM     15  C   UNL     1      -4.317  -1.977  -0.479  0.00  0.00    +0.053 A 
ATOM     16  C   UNL     1      -3.694  -3.207  -0.613  0.00  0.00    +0.188 A 
ATOM     17  O   UNL     1      -3.330  -3.657  -1.843  0.00  0.00    -0.287 OA
ATOM     18 CL   UNL     1      -4.893  -1.695   3.465  0.00  0.00    -0.084 Cl
ENDBRANCH   3  11
BRANCH   1  21
ATOM     19  C   UNL     1       0.802  -1.825   1.306  0.00  0.00    +0.162 A 
ATOM     20  C   UNL     1       0.261  -2.673   0.353  0.00  0.00    +0.055 A 
ATOM     21  C   UNL     1       0.372  -4.043   0.502  0.00  0.00    -0.019 A 
ATOM     22  C   UNL     1       1.024  -4.570   1.602  0.00  0.00    +0.009 A 
ATOM     23  C   UNL     1       1.566  -3.730   2.557  0.00  0.00    +0.050 A 
ATOM     24  C   UNL     1       1.462  -2.356   2.410  0.00  0.00    +0.162 A 
BRANCH  19  25
ATOM     25  O   UNL     1       0.693  -0.477   1.160  0.00  0.00    -0.489 OA
BRANCH  25  27
ATOM     26  C   UNL     1      -0.019   1.526   0.010  0.00  0.00    +0.048 C 
ATOM     27  C   UNL     1       0.002  -0.004   0.002  0.00  0.00    +0.226 C 
ENDBRANCH  25  27
ENDBRANCH  19  25
BRANCH  24  28
ATOM     28  O   UNL     1       2.000  -1.528   3.345  0.00  0.00    -0.484 OA
BRANCH  28  29
ATOM     29  C   UNL     1       2.664  -2.143   4.451  0.00  0.00    +0.256 C 
BRANCH  29  30
ATOM     30  C   UNL     1       3.191  -1.077   5.376  0.00  0.00    +0.006 C 
ATOM     31  C   UNL     1       3.026  -1.192   6.671  0.00  0.00    +0.007 C 
ENDBRANCH  29  30
ENDBRANCH  28  29
ENDBRANCH  24  28
ENDBRANCH   1  21
BRANCH  10  32
ATOM     32  C   UNL     1       2.057  -6.018  -1.254  0.00  0.00    +0.111 C 
BRANCH  32  33
ATOM     33  C   UNL     1       3.012  -5.887  -0.066  0.00  0.00    +0.047 C 
BRANCH  33  34
ATOM     34  C   UNL     1       4.452  -5.798  -0.577  0.00  0.00    +0.161 C 
BRANCH  34  35
ATOM     35  O   UNL     1       5.344  -5.676   0.532  0.00  0.00    -0.377 OA
BRANCH  35  36
ATOM     36  C   UNL     1       6.722  -5.586   0.163  0.00  0.00    +0.112 C 
ATOM     37  C   UNL     1       7.101  -4.117  -0.037  0.00  0.00    +0.037 C 
ATOM     38  C   UNL     1       7.588  -6.190   1.270  0.00  0.00    +0.037 C 
ENDBRANCH  35  36
ENDBRANCH  34  35
ENDBRANCH  33  34
ENDBRANCH  32  33
ENDBRANCH  10  32
TORSDOF 12
