REMARK  Name = ZINC12833508
REMARK  15 active torsions:
REMARK  status: ('A' for Active; 'I' for Inactive)
REMARK    1  A    between atoms: C_1  and  C_2
REMARK    2  A    between atoms: C_2  and  O_3
REMARK    3  A    between atoms: O_3  and  C_4
REMARK    4  A    between atoms: C_11  and  C_16
REMARK    5  A    between atoms: C_16  and  N_75
REMARK    6  A    between atoms: C_17  and  C_18
REMARK    7  A    between atoms: C_17  and  N_75
REMARK    8  A    between atoms: C_18  and  C_19
REMARK    9  A    between atoms: C_22  and  O_27
REMARK   10  A    between atoms: C_23  and  O_25
REMARK   11  A    between atoms: O_25  and  C_26
REMARK   12  A    between atoms: O_27  and  C_28
REMARK   13  A    between atoms: C_29  and  C_30
REMARK   14  A    between atoms: C_29  and  N_75
REMARK   15  A    between atoms: N_34  and  C_35
REMARK                            x       y       z     vdW  Elec       q    Type
REMARK                         _______ _______ _______ _____ _____    ______ ____
ROOT
ATOM      1  N   UNL     1      -0.830   1.555  -0.986  0.00  0.00    +0.387 N 
ATOM      2  H   UNL     1      -1.843   1.399  -0.925  0.00  0.00    -0.081 HD
ENDROOT
BRANCH   1   3
ATOM      3  C   UNL     1      -0.275   0.701  -2.057  0.00  0.00    -0.037 C 
BRANCH   3  11
ATOM      4  C   UNL     1      -4.305  -3.864  -3.216  0.00  0.00    +0.121 A 
ATOM      5  C   UNL     1      -3.721  -4.799  -2.365  0.00  0.00    +0.047 A 
ATOM      6  C   UNL     1      -2.599  -4.478  -1.634  0.00  0.00    +0.030 A 
ATOM      7  C   UNL     1      -2.037  -3.210  -1.744  0.00  0.00    +0.049 A 
ATOM      8  C   UNL     1      -2.624  -2.263  -2.603  0.00  0.00    +0.002 A 
ATOM      9  C   UNL     1      -3.764  -2.600  -3.340  0.00  0.00    +0.055 A 
ATOM     10  C   UNL     1      -2.026  -0.930  -2.705  0.00  0.00    +0.017 A 
ATOM     11  C   UNL     1      -0.918  -0.659  -1.971  0.00  0.00    +0.001 A 
ATOM     12  C   UNL     1      -0.368  -1.645  -1.124  0.00  0.00    +0.251 A 
ATOM     13  O   UNL     1       0.626  -1.379  -0.470  0.00  0.00    -0.268 OA
ATOM     14  N   UNL     1      -0.913  -2.870  -1.020  0.00  0.00    -0.322 N 
ATOM     15  H   UNL     1      -0.509  -3.524  -0.428  0.00  0.00    +0.169 HD
BRANCH   4  16
ATOM     16  O   UNL     1      -5.413  -4.198  -3.929  0.00  0.00    -0.492 OA
BRANCH  16  18
ATOM     17  C   UNL     1      -7.162  -5.711  -4.632  0.00  0.00    +0.048 C 
ATOM     18  C   UNL     1      -5.922  -5.522  -3.756  0.00  0.00    +0.225 C 
ENDBRANCH  16  18
ENDBRANCH   4  16
ENDBRANCH   3  11
ENDBRANCH   1   3
BRANCH   1  19
ATOM     19  C   UNL     1      -0.213   1.205   0.311  0.00  0.00    -0.073 C 
BRANCH  19  20
ATOM     20  C   UNL     1      -0.958   1.939   1.427  0.00  0.00    +0.017 C 
BRANCH  20  21
ATOM     21  C   UNL     1      -0.353   1.575   2.759  0.00  0.00    -0.045 A 
ATOM     22  C   UNL     1      -0.843   0.493   3.466  0.00  0.00    +0.007 A 
ATOM     23  C   UNL     1      -0.288   0.151   4.685  0.00  0.00    +0.049 A 
ATOM     24  C   UNL     1       0.754   0.901   5.206  0.00  0.00    +0.161 A 
ATOM     25  C   UNL     1       1.243   1.994   4.497  0.00  0.00    +0.162 A 
ATOM     26  C   UNL     1       0.686   2.327   3.273  0.00  0.00    +0.053 A 
BRANCH  25  27
ATOM     27  O   UNL     1       2.266   2.733   5.004  0.00  0.00    -0.491 OA
ATOM     28  C   UNL     1       2.717   3.840   4.221  0.00  0.00    +0.277 C 
ENDBRANCH  25  27
BRANCH  24  29
ATOM     29  O   UNL     1       1.297   0.570   6.408  0.00  0.00    -0.491 OA
ATOM     30  C   UNL     1       0.745  -0.564   7.080  0.00  0.00    +0.277 C 
ENDBRANCH  24  29
ENDBRANCH  20  21
ENDBRANCH  19  20
ENDBRANCH   1  19
BRANCH   1  31
ATOM     31  C   UNL     1      -0.582   2.979  -1.295  0.00  0.00    +0.001 C 
BRANCH  31  32
ATOM     32  C   UNL     1      -1.487   3.394  -2.426  0.00  0.00    +0.135 A 
ATOM     33  N   UNL     1      -1.189   3.409  -3.702  0.00  0.00    -0.115 NA
ATOM     34  N   UNL     1      -2.225   3.822  -4.348  0.00  0.00    -0.023 NA
ATOM     35  N   UNL     1      -3.173   4.078  -3.516  0.00  0.00    -0.044 NA
ATOM     36  N   UNL     1      -2.758   3.826  -2.321  0.00  0.00    -0.228 N 
BRANCH  36  37
ATOM     37  C   UNL     1      -3.524   3.982  -1.082  0.00  0.00    +0.111 C 
ATOM     38  C   UNL     1      -4.809   3.130  -1.145  0.00  0.00    +0.027 C 
ATOM     39  C   UNL     1      -5.875   3.998  -0.429  0.00  0.00    +0.002 C 
ATOM     40  C   UNL     1      -5.516   5.432  -0.891  0.00  0.00    +0.002 C 
ATOM     41  C   UNL     1      -3.974   5.445  -0.921  0.00  0.00    +0.027 C 
ENDBRANCH  36  37
ENDBRANCH  31  32
ENDBRANCH   1  31
TORSDOF 12
