REMARK  Name = ZINC23375469
REMARK  9 active torsions:
REMARK  status: ('A' for Active; 'I' for Inactive)
REMARK    1  A    between atoms: C_1  and  C_2
REMARK    2  A    between atoms: C_2  and  C_3
REMARK    3  A    between atoms: C_3  and  N_4
REMARK    4  A    between atoms: C_6  and  C_10
REMARK    5  A    between atoms: C_7  and  C_9
REMARK    6  A    between atoms: C_10  and  N_11
REMARK    7  A    between atoms: N_11  and  C_12
REMARK    8  A    between atoms: C_12  and  C_13
REMARK    9  A    between atoms: C_13  and  N_22
REMARK                            x       y       z     vdW  Elec       q    Type
REMARK                         _______ _______ _______ _____ _____    ______ ____
ROOT
ATOM      1  C   UNL     1       3.543  -7.590  -1.342  0.00  0.00    +0.015 C 
ATOM      2  C   UNL     1       4.052  -9.042  -1.457  0.00  0.00    +0.056 C 
ATOM      3  C   UNL     1       2.824  -9.908  -1.274  0.00  0.00    -0.042 A 
ATOM      4  C   UNL     1       2.713 -11.254  -0.969  0.00  0.00    +0.004 A 
ATOM      5  C   UNL     1       1.467 -11.839  -0.850  0.00  0.00    +0.000 A 
ATOM      6  C   UNL     1       0.328 -11.079  -1.036  0.00  0.00    +0.000 A 
ATOM      7  C   UNL     1       0.437  -9.736  -1.340  0.00  0.00    +0.004 A 
ATOM      8  C   UNL     1       1.685  -9.148  -1.460  0.00  0.00    -0.042 A 
ATOM      9  C   UNL     1       2.069  -7.720  -1.781  0.00  0.00    +0.056 C 
ENDROOT
BRANCH   1  10
ATOM     10  N   UNL     1       4.281  -6.700  -2.248  0.00  0.00    -0.298 NA
ATOM     11  C   UNL     1       4.211  -7.184  -3.633  0.00  0.00    +0.085 C 
ATOM     12  C   UNL     1       4.864  -6.161  -4.566  0.00  0.00    +0.015 C 
ATOM     13  C   UNL     1       6.323  -5.956  -4.150  0.00  0.00    +0.002 C 
ATOM     14  C   UNL     1       6.370  -5.499  -2.690  0.00  0.00    +0.015 C 
ATOM     15  C   UNL     1       5.674  -6.541  -1.811  0.00  0.00    +0.085 C 
ENDBRANCH   1  10
BRANCH   1  16
ATOM     16  C   UNL     1       3.639  -7.093   0.102  0.00  0.00    -0.059 C 
BRANCH  16  17
ATOM     17  N   UNL     1       3.103  -5.728   0.186  0.00  0.00    +0.383 N 
ATOM     18  H   UNL     1       2.116  -5.740  -0.025  0.00  0.00    -0.085 HD
ATOM     19  H   UNL     1       3.582  -5.136  -0.476  0.00  0.00    -0.085 HD
BRANCH  17  20
ATOM     20  C   UNL     1       3.305  -5.205   1.544  0.00  0.00    -0.043 C 
BRANCH  20  23
ATOM     21  N   UNL     1       2.615  -1.627   1.681  0.00  0.00    -0.271 N 
ATOM     22  C   UNL     1       3.475  -2.661   1.564  0.00  0.00    +0.110 A 
ATOM     23  C   UNL     1       2.755  -3.805   1.631  0.00  0.00    -0.024 A 
ATOM     24  C   UNL     1       1.410  -3.458   1.794  0.00  0.00    +0.061 A 
ATOM     25  N   UNL     1       1.326  -2.153   1.831  0.00  0.00    -0.176 NA
ATOM     26  C   UNL     1       0.257  -4.422   1.915  0.00  0.00    +0.068 C 
BRANCH  21  27
ATOM     27  C   UNL     1       2.970  -0.206   1.661  0.00  0.00    +0.143 C 
BRANCH  27  29
ATOM     28  C   UNL     1       2.523   1.993   0.562  0.00  0.00    +0.005 C 
ATOM     29  C   UNL     1       2.153   0.508   0.583  0.00  0.00    +0.020 C 
ENDBRANCH  27  29
ENDBRANCH  21  27
ENDBRANCH  20  23
ENDBRANCH  17  20
ENDBRANCH  16  17
ENDBRANCH   1  16
TORSDOF 7
