REMARK  Name = ZINC32865459
REMARK  8 active torsions:
REMARK  status: ('A' for Active; 'I' for Inactive)
REMARK    1  A    between atoms: C_1  and  C_2
REMARK    2  A    between atoms: C_2  and  O_3
REMARK    3  A    between atoms: O_3  and  C_4
REMARK    4  A    between atoms: C_9  and  N_10
REMARK    5  A    between atoms: C_11  and  C_13
REMARK    6  A    between atoms: C_13  and  C_15
REMARK    7  A    between atoms: C_13  and  S_21
REMARK    8  A    between atoms: S_21  and  C_22
REMARK                            x       y       z     vdW  Elec       q    Type
REMARK                         _______ _______ _______ _____ _____    ______ ____
ROOT
ATOM      1  C   UNL     1      -0.010   1.077  -0.005  0.00  0.00    +0.170 C 
ENDROOT
BRANCH   1   2
ATOM      2  C   UNL     1      -0.724   1.555   1.233  0.00  0.00    -0.025 A 
ATOM      3  C   UNL     1      -0.870   2.910   1.467  0.00  0.00    +0.005 A 
ATOM      4  C   UNL     1      -1.529   3.348   2.600  0.00  0.00    +0.000 A 
ATOM      5  C   UNL     1      -2.035   2.433   3.503  0.00  0.00    +0.000 A 
ATOM      6  C   UNL     1      -1.885   1.078   3.272  0.00  0.00    +0.000 A 
ATOM      7  C   UNL     1      -1.230   0.639   2.137  0.00  0.00    +0.005 A 
ENDBRANCH   1   2
BRANCH   1   9
ATOM      8  N   UNL     1       2.371   0.940   0.654  0.00  0.00    -0.281 N 
ATOM      9  C   UNL     1       1.402   1.605  -0.006  0.00  0.00    +0.235 C 
ATOM     10  O   UNL     1       1.665   2.629  -0.601  0.00  0.00    -0.274 OA
ATOM     11  H   UNL     1       2.116   0.064   1.268  0.00  0.00    +0.155 HD
BRANCH   8  17
ATOM     12  C   UNL     1       4.608   1.058   1.571  0.00  0.00    +0.142 A 
ATOM     13  C   UNL     1       5.924   1.481   1.471  0.00  0.00    +0.047 A 
ATOM     14  C   UNL     1       6.335   2.207   0.368  0.00  0.00    +0.004 A 
ATOM     15  C   UNL     1       5.436   2.513  -0.637  0.00  0.00    +0.002 A 
ATOM     16  C   UNL     1       4.123   2.089  -0.548  0.00  0.00    +0.027 A 
ATOM     17  C   UNL     1       3.702   1.365   0.558  0.00  0.00    +0.076 A 
BRANCH  12  18
ATOM     18  O   UNL     1       4.203   0.344   2.654  0.00  0.00    -0.490 OA
BRANCH  18  20
ATOM     19  C   UNL     1       4.548  -0.741   4.786  0.00  0.00    +0.048 C 
ATOM     20  C   UNL     1       5.186   0.065   3.653  0.00  0.00    +0.226 C 
ENDBRANCH  18  20
ENDBRANCH  12  18
ENDBRANCH   8  17
ENDBRANCH   1   9
BRANCH   1  21
ATOM     21  S   UNL     1      -0.880   1.677  -1.474  0.00  0.00    -0.070 S 
BRANCH  21  22
ATOM     22  C   UNL     1      -2.405   0.811  -1.302  0.00  0.00    +0.171 A 
ATOM     23  N   UNL     1      -3.385   0.983  -2.235  0.00  0.00    -0.301 N 
ATOM     24  H   UNL     1      -3.221   1.659  -3.088  0.00  0.00    +0.171 HD
ATOM     25  C   UNL     1      -4.563   0.338  -2.138  0.00  0.00    +0.260 A 
ATOM     26  O   UNL     1      -5.429   0.503  -2.980  0.00  0.00    -0.267 OA
ATOM     27  C   UNL     1      -4.785  -0.543  -1.033  0.00  0.00    +0.072 A 
ATOM     28  C   UNL     1      -5.957  -1.340  -0.714  0.00  0.00    +0.023 A 
ATOM     29  C   UNL     1      -5.948  -2.106   0.387  0.00  0.00    +0.048 A 
ATOM     30  S   UNL     1      -4.336  -1.806   1.088  0.00  0.00    -0.077 S 
ATOM     31  C   UNL     1      -3.720  -0.660  -0.119  0.00  0.00    +0.116 A 
ATOM     32  N   UNL     1      -2.580   0.002  -0.277  0.00  0.00    -0.216 NA
ENDBRANCH  21  22
ENDBRANCH   1  21
TORSDOF 7
