REMARK  Name = ZINC55022127
REMARK  6 active torsions:
REMARK  status: ('A' for Active; 'I' for Inactive)
REMARK    1  A    between atoms: C_4  and  C_7
REMARK    2  A    between atoms: C_7  and  C_9
REMARK    3  A    between atoms: C_7  and  O_14
REMARK    4  A    between atoms: C_9  and  C_10
REMARK    5  A    between atoms: N_11  and  O_12
REMARK    6  A    between atoms: O_14  and  C_15
REMARK                            x       y       z     vdW  Elec       q    Type
REMARK                         _______ _______ _______ _____ _____    ______ ____
ROOT
ATOM      1  C   UNL     1       3.828  -0.803   0.000  0.00  0.00    +0.211 C 
ENDROOT
BRANCH   1   5
ATOM      2  C   UNL     1       1.079   2.466  -0.081  0.00  0.00    +0.000 A 
ATOM      3  C   UNL     1       2.441   2.708  -0.076  0.00  0.00    +0.000 A 
ATOM      4  C   UNL     1       3.330   1.650  -0.050  0.00  0.00    +0.007 A 
ATOM      5  C   UNL     1       2.858   0.350  -0.028  0.00  0.00    -0.007 A 
ATOM      6  C   UNL     1       1.497   0.109  -0.031  0.00  0.00    +0.007 A 
ATOM      7  C   UNL     1       0.608   1.167  -0.059  0.00  0.00    +0.000 A 
ENDBRANCH   1   5
BRANCH   1   8
ATOM      8  C   UNL     1       3.956  -1.327   1.432  0.00  0.00    +0.124 C 
BRANCH   8   9
ATOM      9  C   UNL     1       5.011  -2.403   1.480  0.00  0.00    +0.135 C 
ATOM     10  N   UNL     1       5.716  -2.663   0.430  0.00  0.00    -0.077 NA
ATOM     11  N   UNL     1       5.222  -3.108   2.644  0.00  0.00    -0.344 N 
ATOM     12  H   UNL     1       4.692  -2.913   3.433  0.00  0.00    +0.144 HD
ATOM     13  H   UNL     1       5.900  -3.800   2.675  0.00  0.00    +0.144 HD
BRANCH  10  14
ATOM     14  O   UNL     1       6.781  -3.594   0.505  0.00  0.00    -0.408 OA
ATOM     15  H   UNL     1       7.298  -3.666  -0.308  0.00  0.00    +0.328 HD
ENDBRANCH  10  14
ENDBRANCH   8   9
ENDBRANCH   1   8
BRANCH   1  16
ATOM     16  O   UNL     1       3.349  -1.848  -0.849  0.00  0.00    -0.482 OA
BRANCH  16  17
ATOM     17  C   UNL     1       3.658  -1.761  -2.170  0.00  0.00    +0.141 A 
ATOM     18  C   UNL     1       4.305  -0.636  -2.659  0.00  0.00    +0.067 A 
ATOM     19  C   UNL     1       4.618  -0.549  -4.002  0.00  0.00    +0.045 A 
ATOM     20  C   UNL     1       4.287  -1.584  -4.859  0.00  0.00    +0.021 A 
ATOM     21  C   UNL     1       3.642  -2.707  -4.374  0.00  0.00    +0.025 A 
ATOM     22  C   UNL     1       3.331  -2.800  -3.030  0.00  0.00    +0.083 A 
ATOM     23 CL   UNL     1       2.527  -4.213  -2.421  0.00  0.00    -0.080 Cl
ATOM     24 CL   UNL     1       5.428   0.859  -4.615  0.00  0.00    -0.083 Cl
ENDBRANCH  16  17
ENDBRANCH   1  16
TORSDOF 6
