REMARK  Name = ZINC04800139
REMARK  13 active torsions:
REMARK  status: ('A' for Active; 'I' for Inactive)
REMARK    1  A    between atoms: C_1  and  C_2
REMARK    2  A    between atoms: C_5  and  C_39
REMARK    3  A    between atoms: C_9  and  C_10
REMARK    4  A    between atoms: C_9  and  N_75
REMARK    5  A    between atoms: C_10  and  C_11
REMARK    6  A    between atoms: C_11  and  N_12
REMARK    7  A    between atoms: C_13  and  C_15
REMARK    8  A    between atoms: N_20  and  C_31
REMARK    9  A    between atoms: C_21  and  C_23
REMARK   10  A    between atoms: C_26  and  O_29
REMARK   11  A    between atoms: O_29  and  C_30
REMARK   12  A    between atoms: C_34  and  O_37
REMARK   13  A    between atoms: O_37  and  C_38
REMARK                            x       y       z     vdW  Elec       q    Type
REMARK                         _______ _______ _______ _____ _____    ______ ____
ROOT
ATOM      1  C   UNL     1      -2.356   0.909  -0.233  0.00  0.00    +0.109 C 
ATOM      2  C   UNL     1      -2.967   0.173  -1.447  0.00  0.00    +0.111 C 
ATOM      3  C   UNL     1      -3.944   1.169  -2.032  0.00  0.00    +0.221 C 
ATOM      4  O   UNL     1      -4.424   1.101  -3.144  0.00  0.00    -0.275 OA
ATOM      5  N   UNL     1      -4.202   2.141  -1.140  0.00  0.00    -0.263 N 
ATOM      6  C   UNL     1      -3.467   1.925   0.112  0.00  0.00    +0.124 C 
ENDROOT
BRANCH   6   7
ATOM      7  C   UNL     1      -2.861   3.219   0.591  0.00  0.00    -0.026 A 
ATOM      8  C   UNL     1      -2.362   4.128  -0.323  0.00  0.00    +0.009 A 
ATOM      9  C   UNL     1      -1.811   5.317   0.113  0.00  0.00    +0.046 A 
ATOM     10  C   UNL     1      -1.748   5.593   1.471  0.00  0.00    +0.120 A 
ATOM     11  C   UNL     1      -2.245   4.677   2.387  0.00  0.00    +0.046 A 
ATOM     12  C   UNL     1      -2.800   3.492   1.945  0.00  0.00    +0.009 A 
BRANCH  10  13
ATOM     13  O   UNL     1      -1.202   6.760   1.904  0.00  0.00    -0.495 OA
ATOM     14  C   UNL     1      -0.711   7.656   0.904  0.00  0.00    +0.277 C 
ENDBRANCH  10  13
ENDBRANCH   6   7
BRANCH   5  15
ATOM     15  C   UNL     1      -5.061   3.223  -1.376  0.00  0.00    +0.037 A 
ATOM     16  C   UNL     1      -5.379   4.095  -0.344  0.00  0.00    +0.027 A 
ATOM     17  C   UNL     1      -6.221   5.164  -0.578  0.00  0.00    +0.047 A 
ATOM     18  C   UNL     1      -6.759   5.360  -1.842  0.00  0.00    +0.120 A 
ATOM     19  C   UNL     1      -6.446   4.485  -2.872  0.00  0.00    +0.047 A 
ATOM     20  C   UNL     1      -5.599   3.419  -2.641  0.00  0.00    +0.027 A 
BRANCH  18  21
ATOM     21  O   UNL     1      -7.592   6.409  -2.071  0.00  0.00    -0.495 OA
ATOM     22  C   UNL     1      -7.871   7.270  -0.964  0.00  0.00    +0.277 C 
ENDBRANCH  18  21
ENDBRANCH   5  15
BRANCH   1  24
ATOM     23  N   UNL     1      -0.196   1.972   0.337  0.00  0.00    -0.315 N 
ATOM     24  C   UNL     1      -1.080   1.614  -0.615  0.00  0.00    +0.219 C 
ATOM     25  O   UNL     1      -0.849   1.860  -1.780  0.00  0.00    -0.275 OA
ATOM     26  H   UNL     1      -0.381   1.775   1.269  0.00  0.00    +0.149 HD
BRANCH  23  27
ATOM     27  C   UNL     1       1.047   2.652  -0.035  0.00  0.00    +0.102 C 
BRANCH  27  28
ATOM     28  C   UNL     1       1.869   2.937   1.223  0.00  0.00    +0.000 C 
BRANCH  28  29
ATOM     29  C   UNL     1       3.167   3.648   0.835  0.00  0.00    -0.077 C 
BRANCH  29  37
ATOM     30  C   UNL     1       7.461   5.261   2.610  0.00  0.00    +0.005 C 
ATOM     31  C   UNL     1       6.047   4.799   2.969  0.00  0.00    -0.031 C 
ATOM     32  C   UNL     1       6.127   3.600   3.919  0.00  0.00    +0.003 C 
ATOM     33  C   UNL     1       4.710   3.107   4.226  0.00  0.00    -0.031 C 
ATOM     34  C   UNL     1       4.008   2.743   2.916  0.00  0.00    -0.076 C 
ATOM     35  C   UNL     1       5.305   4.386   1.696  0.00  0.00    -0.076 C 
ATOM     36  C   UNL     1       4.784   1.873   5.127  0.00  0.00    +0.005 C 
ATOM     37  N   UNL     1       3.942   3.944   2.057  0.00  0.00    +0.380 N 
ATOM     38  H   UNL     1       3.474   4.698   2.574  0.00  0.00    -0.082 HD
ENDBRANCH  29  37
ENDBRANCH  28  29
ENDBRANCH  27  28
ENDBRANCH  23  27
ENDBRANCH   1  24
TORSDOF 9
