REMARK  Name = ZINC13991091
REMARK  9 active torsions:
REMARK  status: ('A' for Active; 'I' for Inactive)
REMARK    1  A    between atoms: C_4  and  C_7
REMARK    2  A    between atoms: C_7  and  C_8
REMARK    3  A    between atoms: C_8  and  N_9
REMARK    4  A    between atoms: C_10  and  C_12
REMARK    5  A    between atoms: C_17  and  N_18
REMARK    6  A    between atoms: N_18  and  C_19
REMARK    7  A    between atoms: C_19  and  N_21
REMARK    8  A    between atoms: C_22  and  C_24
REMARK    9  A    between atoms: C_25  and  C_26
REMARK                            x       y       z     vdW  Elec       q    Type
REMARK                         _______ _______ _______ _____ _____    ______ ____
ROOT
ATOM      1  N   UNL     1       9.591   4.199  -0.090  0.00  0.00    -0.296 N 
ATOM      2  H   UNL     1       9.435   4.927  -0.712  0.00  0.00    +0.154 HD
ENDROOT
BRANCH   1   8
ATOM      3  C   UNL     1      11.996   4.421   0.098  0.00  0.00    +0.058 A 
ATOM      4  C   UNL     1      13.256   3.823   0.185  0.00  0.00    +0.015 A 
ATOM      5  C   UNL     1      13.367   2.450   0.170  0.00  0.00    +0.001 A 
ATOM      6  C   UNL     1      12.235   1.657   0.070  0.00  0.00    +0.002 A 
ATOM      7  C   UNL     1      10.984   2.233  -0.011  0.00  0.00    +0.024 A 
ATOM      8  C   UNL     1      10.852   3.615  -0.003  0.00  0.00    +0.045 A 
BRANCH   3  10
ATOM      9  N   UNL     1      12.975   6.662   0.097  0.00  0.00    -0.311 N 
ATOM     10  C   UNL     1      11.870   5.891   0.112  0.00  0.00    +0.246 C 
ATOM     11  O   UNL     1      10.769   6.406   0.138  0.00  0.00    -0.270 OA
ATOM     12  H   UNL     1      13.853   6.251   0.076  0.00  0.00    +0.149 HD
BRANCH   9  13
ATOM     13  C   UNL     1      12.849   8.122   0.111  0.00  0.00    +0.109 C 
BRANCH  13  14
ATOM     14  C   UNL     1      14.242   8.754   0.088  0.00  0.00    +0.054 C 
BRANCH  14  18
ATOM     15  C   UNL     1      13.877  13.010   0.130  0.00  0.00    +0.000 A 
ATOM     16  C   UNL     1      13.960  12.311   1.320  0.00  0.00    +0.000 A 
ATOM     17  C   UNL     1      14.078  10.934   1.307  0.00  0.00    +0.004 A 
ATOM     18  C   UNL     1      14.113  10.255   0.103  0.00  0.00    -0.046 A 
ATOM     19  C   UNL     1      14.036  10.954  -1.087  0.00  0.00    +0.004 A 
ATOM     20  C   UNL     1      13.912  12.331  -1.074  0.00  0.00    +0.000 A 
ENDBRANCH  14  18
ENDBRANCH  13  14
ENDBRANCH   9  13
ENDBRANCH   3  10
ENDBRANCH   1   8
BRANCH   1  21
ATOM     21  C   UNL     1       8.587   3.752   0.689  0.00  0.00    +0.141 C 
ATOM     22  S   UNL     1       8.827   2.389   1.698  0.00  0.00    -0.018 S 
BRANCH  21  23
ATOM     23  N   UNL     1       7.393   4.378   0.675  0.00  0.00    -0.264 N 
ATOM     24  C   UNL     1       6.389   3.931   1.455  0.00  0.00    +0.242 C 
ATOM     25  O   UNL     1       6.559   2.962   2.171  0.00  0.00    -0.270 OA
ATOM     26  H   UNL     1       7.257   5.150   0.104  0.00  0.00    +0.157 HD
BRANCH  24  27
ATOM     27  C   UNL     1       5.095   4.609   1.439  0.00  0.00    +0.068 C 
ATOM     28  C   UNL     1       4.087   4.161   2.221  0.00  0.00    +0.013 C 
BRANCH  28  29
ATOM     29  C   UNL     1       2.788   4.842   2.206  0.00  0.00    -0.017 A 
ATOM     30  C   UNL     1       2.576   5.951   1.391  0.00  0.00    +0.008 A 
ATOM     31  C   UNL     1       1.346   6.593   1.380  0.00  0.00    +0.001 A 
ATOM     32  C   UNL     1       0.308   6.171   2.154  0.00  0.00    +0.008 A 
ATOM     33  C   UNL     1       0.449   5.058   3.000  0.00  0.00    -0.017 A 
ATOM     34  C   UNL     1       1.687   4.370   3.046  0.00  0.00    -0.011 A 
ATOM     35  C   UNL     1       1.831   3.261   3.887  0.00  0.00    +0.009 A 
ATOM     36  C   UNL     1       0.779   2.855   4.653  0.00  0.00    +0.001 A 
ATOM     37  C   UNL     1      -0.441   3.525   4.607  0.00  0.00    +0.001 A 
ATOM     38  C   UNL     1      -0.614   4.611   3.804  0.00  0.00    +0.008 A 
ENDBRANCH  28  29
ENDBRANCH  24  27
ENDBRANCH  21  23
ENDBRANCH   1  21
TORSDOF 9
