REMARK  Name = ZINC09391461
REMARK  15 active torsions:
REMARK  status: ('A' for Active; 'I' for Inactive)
REMARK    1  A    between atoms: C_1  and  C_2
REMARK    2  A    between atoms: C_2  and  N_71
REMARK    3  A    between atoms: C_8  and  N_13
REMARK    4  A    between atoms: C_9  and  C_10
REMARK    5  A    between atoms: C_14  and  C_16
REMARK    6  A    between atoms: C_19  and  S_22
REMARK    7  A    between atoms: S_22  and  N_25
REMARK    8  A    between atoms: N_25  and  C_26
REMARK    9  A    between atoms: N_25  and  C_30
REMARK   10  A    between atoms: C_26  and  C_27
REMARK   11  A    between atoms: C_27  and  C_28
REMARK   12  A    between atoms: C_27  and  C_29
REMARK   13  A    between atoms: C_30  and  C_31
REMARK   14  A    between atoms: C_31  and  C_32
REMARK   15  A    between atoms: C_31  and  C_33
REMARK                            x       y       z     vdW  Elec       q    Type
REMARK                         _______ _______ _______ _____ _____    ______ ____
ROOT
ATOM      1  N   UNL     1      -0.976   0.514   2.405  0.00  0.00    -0.275 N 
ATOM      2  C   UNL     1       0.011   1.173   3.042  0.00  0.00    +0.249 C 
ATOM      3  O   UNL     1       0.918   1.672   2.405  0.00  0.00    -0.270 OA
ATOM      4  H   UNL     1      -1.700   0.115   2.913  0.00  0.00    +0.156 HD
ENDROOT
BRANCH   1  10
ATOM      5  C   UNL     1      -2.180  -0.203  -3.644  0.00  0.00    -0.074 C 
ATOM      6  C   UNL     1      -2.528  -0.821  -2.287  0.00  0.00    +0.018 C 
ATOM      7  C   UNL     1      -1.626  -0.190  -1.233  0.00  0.00    -0.027 A 
ATOM      8  C   UNL     1      -0.501   0.463  -1.605  0.00  0.00    -0.021 A 
ATOM      9  S   UNL     1       0.217   1.025  -0.089  0.00  0.00    -0.079 S 
ATOM     10  C   UNL     1      -0.958   0.406   1.024  0.00  0.00    +0.085 A 
ATOM     11  C   UNL     1      -1.877  -0.227   0.196  0.00  0.00    +0.068 A 
ATOM     12  C   UNL     1      -0.004   0.650  -3.004  0.00  0.00    -0.035 C 
ATOM     13  N   UNL     1      -0.724  -0.312  -3.873  0.00  0.00    +0.383 N 
ATOM     14  H   UNL     1      -0.420  -1.265  -3.641  0.00  0.00    -0.081 HD
BRANCH  11  15
ATOM     15  C   UNL     1      -3.057  -0.902   0.744  0.00  0.00    +0.244 C 
ATOM     16  O   UNL     1      -3.001  -2.080   1.044  0.00  0.00    -0.270 OA
ATOM     17  N   UNL     1      -4.207  -0.218   0.910  0.00  0.00    -0.325 N 
ATOM     18  H   UNL     1      -4.990  -0.666   1.269  0.00  0.00    +0.145 HD
ATOM     19  H   UNL     1      -4.252   0.721   0.671  0.00  0.00    +0.145 HD
ENDBRANCH  11  15
BRANCH  13  21
ATOM     20  C   UNL     1      -0.949   1.332  -5.705  0.00  0.00    -0.017 C 
ATOM     21  C   UNL     1      -0.414  -0.041  -5.294  0.00  0.00    -0.082 C 
ENDBRANCH  13  21
ENDBRANCH   1  10
BRANCH   2  22
ATOM     22  C   UNL     1      -0.008   1.288   4.516  0.00  0.00    +0.037 A 
ATOM     23  C   UNL     1      -1.051   0.720   5.250  0.00  0.00    +0.015 A 
ATOM     24  C   UNL     1      -1.060   0.826   6.625  0.00  0.00    +0.029 A 
ATOM     25  C   UNL     1      -0.044   1.504   7.276  0.00  0.00    +0.106 A 
ATOM     26  C   UNL     1       0.990   2.073   6.554  0.00  0.00    +0.029 A 
ATOM     27  C   UNL     1       1.014   1.970   5.179  0.00  0.00    +0.015 A 
BRANCH  25  28
ATOM     28  S   UNL     1      -0.067   1.641   9.033  0.00  0.00    +0.061 S 
ATOM     29  O   UNL     1      -0.737   0.487   9.521  0.00  0.00    -0.153 OA
ATOM     30  O   UNL     1       1.254   1.981   9.431  0.00  0.00    -0.153 OA
BRANCH  28  31
ATOM     31  N   UNL     1      -1.024   2.939   9.410  0.00  0.00    -0.176 NA
BRANCH  31  32
ATOM     32  C   UNL     1      -2.450   2.743   9.680  0.00  0.00    +0.112 C 
BRANCH  32  33
ATOM     33  C   UNL     1      -2.665   2.562  11.184  0.00  0.00    -0.001 C 
ATOM     34  C   UNL     1      -2.279   3.850  11.913  0.00  0.00    +0.008 C 
ATOM     35  C   UNL     1      -4.136   2.244  11.455  0.00  0.00    +0.008 C 
ENDBRANCH  32  33
ENDBRANCH  31  32
BRANCH  31  36
ATOM     36  C   UNL     1      -0.444   4.282   9.473  0.00  0.00    +0.112 C 
BRANCH  36  37
ATOM     37  C   UNL     1      -1.082   5.165   8.399  0.00  0.00    -0.001 C 
ATOM     38  C   UNL     1      -0.573   6.600   8.549  0.00  0.00    +0.008 C 
ATOM     39  C   UNL     1      -0.709   4.633   7.014  0.00  0.00    +0.008 C 
ENDBRANCH  36  37
ENDBRANCH  31  36
ENDBRANCH  28  31
ENDBRANCH  25  28
ENDBRANCH   2  22
TORSDOF 10
