REMARK  Name = ZINC01296507
REMARK  3 active torsions:
REMARK  status: ('A' for Active; 'I' for Inactive)
REMARK    1  A    between atoms: C_3  and  C_9
REMARK    2  A    between atoms: N_10  and  N_11
REMARK    3  A    between atoms: C_12  and  C_18
REMARK                            x       y       z     vdW  Elec       q    Type
REMARK                         _______ _______ _______ _____ _____    ______ ____
ROOT
ATOM      1  N   UNL     1       5.987   2.238  -0.150  0.00  0.00    -0.185 N 
ATOM      2  C   UNL     1       7.248   1.685  -0.280  0.00  0.00    +0.218 A 
ATOM      3  N   UNL     1       8.120   2.655  -0.360  0.00  0.00    -0.148 NA
ATOM      4  N   UNL     1       7.424   3.869  -0.281  0.00  0.00    -0.252 N 
ATOM      5  H   UNL     1       7.814   4.757  -0.313  0.00  0.00    +0.191 HD
ATOM      6  C   UNL     1       6.112   3.580  -0.157  0.00  0.00    +0.197 A 
ATOM      7  S   UNL     1       4.836   4.714  -0.028  0.00  0.00    -0.010 S 
ENDROOT
BRANCH   2   8
ATOM      8  C   UNL     1       7.556   0.245  -0.322  0.00  0.00    +0.173 A 
ATOM      9  C   UNL     1       8.797  -0.303  -0.445  0.00  0.00    +0.053 A 
ATOM     10  C   UNL     1       8.624  -1.701  -0.439  0.00  0.00    +0.042 A 
ATOM     11  C   UNL     1       7.303  -1.936  -0.315  0.00  0.00    +0.196 A 
ATOM     12  O   UNL     1       6.661  -0.758  -0.239  0.00  0.00    -0.460 OA
ENDBRANCH   2   8
BRANCH   1  14
ATOM     13  C   UNL     1       3.676   2.159   0.196  0.00  0.00    +0.142 C 
ATOM     14  N   UNL     1       4.785   1.526  -0.036  0.00  0.00    -0.170 NA
BRANCH  13  17
ATOM     15  C   UNL     1       0.005   1.416   0.431  0.00  0.00    +0.002 A 
ATOM     16  C   UNL     1       1.200   2.105   0.439  0.00  0.00    +0.011 A 
ATOM     17  C   UNL     1       2.396   1.428   0.190  0.00  0.00    +0.014 A 
ATOM     18  C   UNL     1       2.373   0.054  -0.067  0.00  0.00    +0.068 A 
ATOM     19  C   UNL     1       1.168  -0.624  -0.071  0.00  0.00    +0.060 A 
ATOM     20  C   UNL     1      -0.012   0.056   0.177  0.00  0.00    +0.021 A 
ATOM     21 CL   UNL     1       1.135  -2.330  -0.390  0.00  0.00    -0.082 Cl
ATOM     22 CL   UNL     1       3.852  -0.798  -0.378  0.00  0.00    -0.081 Cl
ENDBRANCH  13  17
ENDBRANCH   1  14
TORSDOF 3
