REMARK  Name = ZINC11865351
REMARK  7 active torsions:
REMARK  status: ('A' for Active; 'I' for Inactive)
REMARK    1  A    between atoms: C_1  and  C_2
REMARK    2  A    between atoms: C_2  and  O_3
REMARK    3  A    between atoms: O_3  and  C_4
REMARK    4  A    between atoms: C_7  and  C_10
REMARK    5  A    between atoms: C_17  and  O_38
REMARK    6  A    between atoms: C_18  and  C_21
REMARK    7  A    between atoms: C_21  and  N_22
REMARK                            x       y       z     vdW  Elec       q    Type
REMARK                         _______ _______ _______ _____ _____    ______ ____
ROOT
ATOM      1  C   UNL     1      -1.997  -6.057  -0.011  0.00  0.00    +0.058 C 
ATOM      2  C   UNL     1      -3.239  -6.594   0.095  0.00  0.00    +0.176 C 
ATOM      3  C   UNL     1      -3.560  -8.024   0.212  0.00  0.00    +0.231 C 
ATOM      4  O   UNL     1      -2.784  -8.963   0.235  0.00  0.00    -0.283 OA
ATOM      5  C   UNL     1      -5.031  -8.067   0.297  0.00  0.00    +0.068 A 
ATOM      6  C   UNL     1      -5.950  -9.110   0.420  0.00  0.00    +0.019 A 
ATOM      7  C   UNL     1      -7.287  -8.836   0.474  0.00  0.00    +0.046 A 
ATOM      8  C   UNL     1      -7.735  -7.519   0.407  0.00  0.00    +0.122 A 
ATOM      9  C   UNL     1      -6.834  -6.474   0.285  0.00  0.00    +0.020 A 
ATOM     10  C   UNL     1      -5.471  -6.735   0.229  0.00  0.00    +0.144 A 
ATOM     11  O   UNL     1      -4.407  -5.910   0.118  0.00  0.00    -0.451 OA
ENDROOT
BRANCH   1  15
ATOM     12  C   UNL     1      -1.497  -1.847   0.023  0.00  0.00    +0.121 A 
ATOM     13  C   UNL     1      -2.776  -2.393   0.002  0.00  0.00    +0.046 A 
ATOM     14  C   UNL     1      -2.944  -3.759  -0.009  0.00  0.00    +0.011 A 
ATOM     15  C   UNL     1      -1.824  -4.599  -0.000  0.00  0.00    -0.021 A 
ATOM     16  C   UNL     1      -0.538  -4.044   0.020  0.00  0.00    +0.011 A 
ATOM     17  C   UNL     1      -0.381  -2.677   0.026  0.00  0.00    +0.046 A 
BRANCH  12  18
ATOM     18  O   UNL     1      -1.337  -0.499   0.034  0.00  0.00    -0.492 OA
BRANCH  18  20
ATOM     19  C   UNL     1      -2.147   1.778   0.043  0.00  0.00    +0.048 C 
ATOM     20  C   UNL     1      -2.525   0.295   0.029  0.00  0.00    +0.225 C 
ENDBRANCH  18  20
ENDBRANCH  12  18
ENDBRANCH   1  15
BRANCH   8  21
ATOM     21  O   UNL     1      -9.066  -7.257   0.462  0.00  0.00    -0.506 OA
ATOM     22  H   UNL     1      -9.403  -7.120   1.358  0.00  0.00    +0.292 HD
ENDBRANCH   8  21
BRANCH   9  23
ATOM     23  C   UNL     1      -7.333  -5.053   0.213  0.00  0.00    -0.036 C 
BRANCH  23  24
ATOM     24  N   UNL     1      -7.419  -4.495   1.569  0.00  0.00    +0.383 N 
ATOM     25  C   UNL     1      -7.781  -3.077   1.490  0.00  0.00    -0.073 C 
ATOM     26  C   UNL     1      -7.884  -2.458   2.876  0.00  0.00    -0.007 C 
ATOM     27  C   UNL     1      -8.885  -3.230   3.740  0.00  0.00    +0.011 C 
ATOM     28  C   UNL     1      -8.428  -4.693   3.776  0.00  0.00    +0.020 C 
ATOM     29  C   UNL     1      -8.438  -5.228   2.335  0.00  0.00    -0.069 C 
ATOM     30  C   UNL     1      -7.006  -4.754   4.287  0.00  0.00    +0.023 A 
ATOM     31  C   UNL     1      -6.623  -5.881   4.944  0.00  0.00    +0.022 A 
ATOM     32  C   UNL     1      -5.304  -6.031   5.387  0.00  0.00    +0.007 A 
ATOM     33  C   UNL     1      -4.404  -5.039   5.126  0.00  0.00    +0.070 A 
ATOM     34  C   UNL     1      -4.832  -3.892   4.442  0.00  0.00    +0.251 A 
ATOM     35  O   UNL     1      -4.022  -3.027   4.149  0.00  0.00    -0.268 OA
ATOM     36  N   UNL     1      -6.135  -3.735   4.104  0.00  0.00    -0.312 N 
ATOM     37  C   UNL     1      -6.539  -2.432   3.583  0.00  0.00    +0.126 C 
ATOM     38  H   UNL     1      -6.525  -4.588   2.027  0.00  0.00    -0.081 HD
ENDBRANCH  23  24
ENDBRANCH   9  23
TORSDOF 6
