REMARK  Name = ZINC08964208
REMARK  10 active torsions:
REMARK  status: ('A' for Active; 'I' for Inactive)
REMARK    1  A    between atoms: C_1  and  C_2
REMARK    2  A    between atoms: C_2  and  C_3
REMARK    3  A    between atoms: C_2  and  C_4
REMARK    4  A    between atoms: C_7  and  N_10
REMARK    5  A    between atoms: C_11  and  C_13
REMARK    6  A    between atoms: N_15  and  C_16
REMARK    7  A    between atoms: C_16  and  C_17
REMARK    8  A    between atoms: C_17  and  C_19
REMARK    9  A    between atoms: C_17  and  N_66
REMARK   10  A    between atoms: N_27  and  C_28
REMARK                            x       y       z     vdW  Elec       q    Type
REMARK                         _______ _______ _______ _____ _____    ______ ____
ROOT
ATOM      1  C   UNL     1      -5.143   5.741  -1.149  0.00  0.00    +0.094 C 
ENDROOT
BRANCH   1   4
ATOM      2  C   UNL     1      -6.507   4.160  -2.404  0.00  0.00    +0.299 C 
ATOM      3  O   UNL     1      -7.494   4.660  -1.904  0.00  0.00    -0.265 OA
ATOM      4  N   UNL     1      -5.283   4.628  -2.092  0.00  0.00    -0.309 N 
ATOM      5  H   UNL     1      -4.494   4.229  -2.491  0.00  0.00    +0.149 HD
BRANCH   2   7
ATOM      6  N   UNL     1      -7.875   2.557  -3.677  0.00  0.00    -0.278 N 
ATOM      7  C   UNL     1      -6.650   3.025  -3.365  0.00  0.00    +0.303 C 
ATOM      8  O   UNL     1      -5.663   2.525  -3.865  0.00  0.00    -0.265 OA
ATOM      9  H   UNL     1      -8.658   2.909  -3.226  0.00  0.00    +0.155 HD
BRANCH   6  13
ATOM     10  C   UNL     1      -8.295  -0.404  -6.575  0.00  0.00    -0.045 A 
ATOM     11  C   UNL     1      -7.194  -0.408  -5.739  0.00  0.00    +0.006 A 
ATOM     12  C   UNL     1      -7.051   0.572  -4.777  0.00  0.00    +0.023 A 
ATOM     13  C   UNL     1      -8.016   1.564  -4.650  0.00  0.00    +0.034 A 
ATOM     14  C   UNL     1      -9.123   1.562  -5.488  0.00  0.00    +0.023 A 
ATOM     15  C   UNL     1      -9.257   0.582  -6.451  0.00  0.00    +0.006 A 
BRANCH  10  17
ATOM     16  C   UNL     1      -9.742  -2.251  -7.377  0.00  0.00    +0.012 C 
ATOM     17  C   UNL     1      -8.447  -1.475  -7.625  0.00  0.00    +0.013 C 
ATOM     18  C   UNL     1      -8.497  -0.828  -9.010  0.00  0.00    +0.012 C 
ENDBRANCH  10  17
ENDBRANCH   6  13
ENDBRANCH   2   7
ENDBRANCH   1   4
BRANCH   1  19
ATOM     19  C   UNL     1      -3.672   6.156  -1.065  0.00  0.00    -0.020 C 
BRANCH  19  20
ATOM     20  C   UNL     1      -2.868   5.033  -0.461  0.00  0.00    -0.059 A 
ATOM     21  C   UNL     1      -2.858   4.847   0.909  0.00  0.00    +0.004 A 
ATOM     22  C   UNL     1      -2.125   3.820   1.466  0.00  0.00    +0.023 A 
ATOM     23  C   UNL     1      -1.389   2.962   0.651  0.00  0.00    +0.033 A 
ATOM     24  C   UNL     1      -1.402   3.160  -0.725  0.00  0.00    -0.025 A 
ATOM     25  C   UNL     1      -2.138   4.188  -1.277  0.00  0.00    +0.007 A 
ATOM     26  C   UNL     1      -0.521   2.102  -1.358  0.00  0.00    +0.056 C 
ATOM     27  C   UNL     1       0.297   1.573  -0.157  0.00  0.00    +0.109 C 
ATOM     28  N   UNL     1      -0.586   1.864   0.994  0.00  0.00    -0.332 N 
ATOM     29  C   UNL     1       0.200   2.139   2.204  0.00  0.00    +0.129 C 
ENDBRANCH  19  20
BRANCH  19  34
ATOM     30  C   UNL     1      -2.137   7.808  -0.149  0.00  0.00    -0.078 C 
ATOM     31  C   UNL     1      -2.264   9.289   0.290  0.00  0.00    -0.020 C 
ATOM     32  C   UNL     1      -3.520   9.769  -0.473  0.00  0.00    -0.020 C 
ATOM     33  C   UNL     1      -4.307   8.486  -0.799  0.00  0.00    -0.078 C 
ATOM     34  N   UNL     1      -3.543   7.380  -0.219  0.00  0.00    +0.385 N 
ATOM     35  H   UNL     1      -3.891   7.176   0.725  0.00  0.00    -0.081 HD
ENDBRANCH  19  34
ENDBRANCH   1  19
TORSDOF 7
