REMARK  Name = ZINC04470623
REMARK  10 active torsions:
REMARK  status: ('A' for Active; 'I' for Inactive)
REMARK    1  A    between atoms: C_1  and  C_2
REMARK    2  A    between atoms: C_2  and  N_3
REMARK    3  A    between atoms: N_3  and  N_4
REMARK    4  A    between atoms: C_5  and  C_7
REMARK    5  A    between atoms: C_10  and  N_14
REMARK    6  A    between atoms: C_17  and  C_18
REMARK    7  A    between atoms: N_20  and  C_21
REMARK    8  A    between atoms: C_21  and  C_22
REMARK    9  A    between atoms: C_21  and  C_23
REMARK   10  A    between atoms: C_21  and  C_24
REMARK                            x       y       z     vdW  Elec       q    Type
REMARK                         _______ _______ _______ _____ _____    ______ ____
ROOT
ATOM      1  N   UNL     1      -0.706   1.862  -3.562  0.00  0.00    -0.233 N 
ATOM      2  C   UNL     1      -0.009   1.946  -4.712  0.00  0.00    +0.260 C 
ATOM      3  O   UNL     1       1.201   2.053  -4.683  0.00  0.00    -0.269 OA
ATOM      4  H   UNL     1      -1.672   1.777  -3.585  0.00  0.00    +0.173 HD
ENDROOT
BRANCH   2   5
ATOM      5  C   UNL     1      -0.717   1.907  -6.010  0.00  0.00    +0.040 A 
ATOM      6  C   UNL     1      -2.107   1.790  -6.046  0.00  0.00    +0.015 A 
ATOM      7  C   UNL     1      -2.762   1.754  -7.260  0.00  0.00    +0.035 A 
ATOM      8  C   UNL     1      -2.044   1.834  -8.440  0.00  0.00    +0.144 A 
ATOM      9  C   UNL     1      -0.665   1.950  -8.411  0.00  0.00    +0.072 A 
ATOM     10  C   UNL     1       0.002   1.993  -7.202  0.00  0.00    +0.035 A 
ATOM     11 CL   UNL     1       0.228   2.049  -9.897  0.00  0.00    -0.081 Cl
BRANCH   8  12
ATOM     12  N   UNL     1      -2.753   1.795  -9.738  0.00  0.00    +0.058 N 
ATOM     13  O   UNL     1      -3.958   1.693  -9.767  0.00  0.00    -0.126 OA
ATOM     14  O   UNL     1      -2.128   1.864 -10.771  0.00  0.00    -0.126 OA
ENDBRANCH   8  12
ENDBRANCH   2   5
BRANCH   1  15
ATOM     15  N   UNL     1      -0.036   1.899  -2.332  0.00  0.00    -0.268 N 
ATOM     16  H   UNL     1       0.930   1.984  -2.309  0.00  0.00    +0.170 HD
BRANCH  15  18
ATOM     17  C   UNL     1      -0.021   1.854   0.157  0.00  0.00    +0.062 C 
ATOM     18  C   UNL     1      -0.743   1.814  -1.165  0.00  0.00    +0.024 C 
ATOM     19  C   UNL     1      -2.086   1.696  -1.198  0.00  0.00    +0.087 C 
BRANCH  19  20
ATOM     20  C   UNL     1      -2.803   1.445  -0.004  0.00  0.00    +0.239 C 
ATOM     21  O   UNL     1      -2.202   1.218   1.030  0.00  0.00    -0.271 OA
ATOM     22  N   UNL     1      -4.150   1.456  -0.013  0.00  0.00    -0.307 N 
ATOM     23  H   UNL     1      -4.629   1.637  -0.837  0.00  0.00    +0.150 HD
BRANCH  22  24
ATOM     24  C   UNL     1      -4.893   1.196   1.223  0.00  0.00    +0.026 C 
ATOM     25  C   UNL     1      -4.521   2.246   2.272  0.00  0.00    +0.031 C 
ATOM     26  C   UNL     1      -6.395   1.268   0.941  0.00  0.00    +0.031 C 
ATOM     27  C   UNL     1      -4.538  -0.197   1.748  0.00  0.00    +0.031 C 
ENDBRANCH  22  24
ENDBRANCH  19  20
ENDBRANCH  15  18
ENDBRANCH   1  15
TORSDOF 6
