REMARK  Name = ZINC52517083
REMARK  8 active torsions:
REMARK  status: ('A' for Active; 'I' for Inactive)
REMARK    1  A    between atoms: C_1  and  C_2
REMARK    2  A    between atoms: C_4  and  C_9
REMARK    3  A    between atoms: C_6  and  C_7
REMARK    4  A    between atoms: C_7  and  N_8
REMARK    5  A    between atoms: C_9  and  N_10
REMARK    6  A    between atoms: N_10  and  C_11
REMARK    7  A    between atoms: N_10  and  C_12
REMARK    8  A    between atoms: C_12  and  C_13
REMARK                            x       y       z     vdW  Elec       q    Type
REMARK                         _______ _______ _______ _____ _____    ______ ____
ROOT
ATOM      1  C   UNL     1      -0.018   1.503   0.010  0.00  0.00    +0.047 C 
ATOM      2  C   UNL     1       0.002  -0.004   0.002  0.00  0.00    -0.011 A 
ATOM      3  C   UNL     1       0.009  -0.840  -1.138  0.00  0.00    +0.046 A 
ATOM      4  C   UNL     1       0.029  -2.109  -0.691  0.00  0.00    +0.089 A 
ATOM      5  O   UNL     1       0.034  -2.085   0.652  0.00  0.00    -0.468 OA
ATOM      6  C   UNL     1       0.023  -0.811   1.078  0.00  0.00    +0.091 A 
ENDROOT
BRANCH   6   7
ATOM      7  C   UNL     1       0.030  -0.363   2.516  0.00  0.00    -0.010 C 
BRANCH   7   8
ATOM      8  N   UNL     1      -1.353  -0.236   2.996  0.00  0.00    +0.383 N 
ATOM      9  H   UNL     1      -1.816  -1.130   2.925  0.00  0.00    -0.089 HD
ATOM     10  H   UNL     1      -1.348   0.064   3.960  0.00  0.00    -0.089 HD
ATOM     11  H   UNL     1      -1.843   0.443   2.434  0.00  0.00    -0.089 HD
ENDBRANCH   7   8
ENDBRANCH   6   7
BRANCH   4  12
ATOM     12  C   UNL     1       0.042  -3.346  -1.550  0.00  0.00    -0.003 C 
BRANCH  12  13
ATOM     13  N   UNL     1       1.431  -3.729  -1.836  0.00  0.00    +0.386 N 
ATOM     14  C   UNL     1       2.099  -4.117  -0.587  0.00  0.00    -0.095 C 
ATOM     15  H   UNL     1       1.917  -2.947  -2.249  0.00  0.00    -0.081 HD
BRANCH  13  16
ATOM     16  C   UNL     1       1.444  -4.863  -2.771  0.00  0.00    -0.035 C 
BRANCH  16  17
ATOM     17  C   UNL     1       2.866  -5.176  -3.160  0.00  0.00    -0.026 A 
ATOM     18  C   UNL     1       3.744  -6.026  -2.572  0.00  0.00    +0.024 A 
ATOM     19  C   UNL     1       5.012  -6.156  -3.108  0.00  0.00    +0.025 A 
ATOM     20  C   UNL     1       5.339  -5.430  -4.205  0.00  0.00    +0.060 A 
ATOM     21  S   UNL     1       3.828  -4.532  -4.518  0.00  0.00    -0.102 S 
ATOM     22 BR   UNL     1       6.270  -7.329  -2.322  0.00  0.00    -0.050 Br
ENDBRANCH  16  17
ENDBRANCH  13  16
ENDBRANCH  12  13
ENDBRANCH   4  12
TORSDOF 6
