REMARK  Name = ZINC38263825
REMARK  9 active torsions:
REMARK  status: ('A' for Active; 'I' for Inactive)
REMARK    1  A    between atoms: C_1  and  C_2
REMARK    2  A    between atoms: C_5  and  C_9
REMARK    3  A    between atoms: C_7  and  C_8
REMARK    4  A    between atoms: C_9  and  C_11
REMARK    5  A    between atoms: C_9  and  N_12
REMARK    6  A    between atoms: C_13  and  C_15
REMARK    7  A    between atoms: C_15  and  N_16
REMARK    8  A    between atoms: N_19  and  C_22
REMARK    9  A    between atoms: C_25  and  O_28
REMARK                            x       y       z     vdW  Elec       q    Type
REMARK                         _______ _______ _______ _____ _____    ______ ____
ROOT
ATOM      1  C   UNL     1       2.459  -6.441  -2.102  0.00  0.00    +0.180 C 
ENDROOT
BRANCH   1   2
ATOM      2  N   UNL     1       2.943  -7.785  -1.764  0.00  0.00    -0.291 NA
ATOM      3  C   UNL     1       1.843  -8.758  -1.768  0.00  0.00    +0.104 C 
ATOM      4  C   UNL     1       2.352 -10.103  -1.238  0.00  0.00    +0.120 C 
ATOM      5  N   UNL     1       3.533 -10.497  -2.021  0.00  0.00    -0.327 N 
ATOM      6  C   UNL     1       4.621  -9.521  -2.178  0.00  0.00    +0.120 C 
ATOM      7  C   UNL     1       4.023  -8.199  -2.671  0.00  0.00    +0.104 C 
BRANCH   5   8
ATOM      8  C   UNL     1       3.618 -11.767  -2.602  0.00  0.00    +0.030 A 
ATOM      9  C   UNL     1       4.687 -12.082  -3.430  0.00  0.00    +0.027 A 
ATOM     10  C   UNL     1       4.771 -13.336  -4.002  0.00  0.00    +0.047 A 
ATOM     11  C   UNL     1       3.787 -14.281  -3.750  0.00  0.00    +0.117 A 
ATOM     12  C   UNL     1       2.719 -13.968  -2.922  0.00  0.00    +0.047 A 
ATOM     13  C   UNL     1       2.637 -12.716  -2.345  0.00  0.00    +0.027 A 
BRANCH  11  14
ATOM     14  O   UNL     1       3.871 -15.516  -4.313  0.00  0.00    -0.507 OA
ATOM     15  H   UNL     1       4.351 -16.162  -3.778  0.00  0.00    +0.292 HD
ENDBRANCH  11  14
ENDBRANCH   5   8
ENDBRANCH   1   2
BRANCH   1  17
ATOM     16  N   UNL     1       0.967  -4.734  -1.111  0.00  0.00    -0.308 N 
ATOM     17  C   UNL     1       1.535  -5.952  -1.015  0.00  0.00    +0.228 C 
ATOM     18  O   UNL     1       1.304  -6.655  -0.054  0.00  0.00    -0.274 OA
ATOM     19  H   UNL     1       1.152  -4.172  -1.880  0.00  0.00    +0.149 HD
BRANCH  16  20
ATOM     20  C   UNL     1       0.069  -4.259  -0.055  0.00  0.00    +0.100 C 
ATOM     21  C   UNL     1      -1.346  -4.779  -0.317  0.00  0.00    +0.033 C 
BRANCH  20  26
ATOM     22  C   UNL     1       0.020   1.519  -0.020  0.00  0.00    +0.044 C 
ATOM     23  C   UNL     1       0.033   0.012  -0.029  0.00  0.00    -0.048 A 
ATOM     24  C   UNL     1       0.047  -0.672  -1.231  0.00  0.00    +0.004 A 
ATOM     25  C   UNL     1       0.058  -2.054  -1.239  0.00  0.00    +0.006 A 
ATOM     26  C   UNL     1       0.057  -2.752  -0.046  0.00  0.00    -0.027 A 
ATOM     27  C   UNL     1       0.045  -2.069   1.155  0.00  0.00    +0.009 A 
ATOM     28  C   UNL     1       0.037  -0.686   1.163  0.00  0.00    -0.047 A 
ATOM     29  C   UNL     1       0.029   0.059   2.473  0.00  0.00    +0.044 C 
ENDBRANCH  20  26
ENDBRANCH  16  20
ENDBRANCH   1  17
TORSDOF 6
