REMARK  Name = ZINC45343778
REMARK  9 active torsions:
REMARK  status: ('A' for Active; 'I' for Inactive)
REMARK    1  A    between atoms: C_1  and  C_2
REMARK    2  A    between atoms: C_2  and  C_4
REMARK    3  A    between atoms: C_2  and  N_11
REMARK    4  A    between atoms: N_11  and  C_12
REMARK    5  A    between atoms: C_12  and  C_14
REMARK    6  A    between atoms: C_12  and  C_15
REMARK    7  A    between atoms: N_17  and  C_18
REMARK    8  A    between atoms: C_21  and  S_24
REMARK    9  A    between atoms: S_24  and  N_27
REMARK                            x       y       z     vdW  Elec       q    Type
REMARK                         _______ _______ _______ _____ _____    ______ ____
ROOT
ATOM      1  C   UNL     1       0.500  -0.655   3.749  0.00  0.00    +0.203 C 
ATOM      2  O   UNL     1       1.603  -1.159   3.762  0.00  0.00    -0.277 OA
ATOM      3  N   UNL     1      -0.147  -0.421   4.908  0.00  0.00    -0.287 N 
ATOM      4  H   UNL     1      -1.058  -0.089   4.896  0.00  0.00    +0.155 HD
ENDROOT
BRANCH   3   5
ATOM      5  C   UNL     1       0.497  -0.655   6.128  0.00  0.00    +0.033 A 
ATOM      6  C   UNL     1      -0.231  -1.098   7.225  0.00  0.00    +0.025 A 
ATOM      7  C   UNL     1       0.407  -1.329   8.428  0.00  0.00    +0.030 A 
ATOM      8  C   UNL     1       1.769  -1.119   8.541  0.00  0.00    +0.106 A 
ATOM      9  C   UNL     1       2.497  -0.678   7.451  0.00  0.00    +0.030 A 
ATOM     10  C   UNL     1       1.865  -0.452   6.244  0.00  0.00    +0.025 A 
BRANCH   8  11
ATOM     11  S   UNL     1       2.579  -1.415  10.078  0.00  0.00    +0.061 S 
ATOM     12  O   UNL     1       3.759  -0.623  10.073  0.00  0.00    -0.153 OA
ATOM     13  O   UNL     1       1.588  -1.299  11.089  0.00  0.00    -0.153 OA
BRANCH  11  14
ATOM     14  N   UNL     1       3.071  -2.996  10.076  0.00  0.00    -0.177 NA
ATOM     15  C   UNL     1       2.188  -4.055  10.585  0.00  0.00    +0.109 C 
ATOM     16  C   UNL     1       2.044  -5.137   9.510  0.00  0.00    +0.017 C 
ATOM     17  C   UNL     1       3.434  -5.624   9.093  0.00  0.00    +0.003 C 
ATOM     18  C   UNL     1       4.229  -4.457   8.502  0.00  0.00    +0.017 C 
ATOM     19  C   UNL     1       4.395  -3.368   9.560  0.00  0.00    +0.109 C 
ENDBRANCH  11  14
ENDBRANCH   8  11
ENDBRANCH   3   5
BRANCH   1  20
ATOM     20  C   UNL     1      -0.148  -0.293   2.438  0.00  0.00    +0.014 C 
ATOM     21  C   UNL     1      -0.429   1.211   2.407  0.00  0.00    -0.004 C 
BRANCH  20  22
ATOM     22  N   UNL     1       0.752  -0.646   1.332  0.00  0.00    +0.391 N 
ATOM     23  H   UNL     1       1.015  -1.617   1.409  0.00  0.00    -0.084 HD
ATOM     24  H   UNL     1       1.580  -0.070   1.375  0.00  0.00    -0.084 HD
BRANCH  22  26
ATOM     25  C   UNL     1       1.049  -0.653  -1.099  0.00  0.00    -0.009 C 
ATOM     26  C   UNL     1       0.067  -0.423   0.052  0.00  0.00    -0.043 C 
BRANCH  26  27
ATOM     27  C   UNL     1      -1.088  -1.383  -0.073  0.00  0.00    -0.060 A 
ATOM     28  C   UNL     1      -0.950  -2.690   0.358  0.00  0.00    +0.002 A 
ATOM     29  C   UNL     1      -2.009  -3.571   0.244  0.00  0.00    +0.002 A 
ATOM     30  C   UNL     1      -3.206  -3.147  -0.302  0.00  0.00    +0.020 A 
ATOM     31  C   UNL     1      -3.344  -1.840  -0.734  0.00  0.00    +0.041 A 
ATOM     32  C   UNL     1      -2.286  -0.957  -0.613  0.00  0.00    +0.022 A 
ATOM     33 CL   UNL     1      -4.847  -1.307  -1.420  0.00  0.00    -0.084 Cl
ENDBRANCH  26  27
ENDBRANCH  22  26
ENDBRANCH  20  22
ENDBRANCH   1  20
TORSDOF 7
