REMARK  Name = ZINC64365110
REMARK  3 active torsions:
REMARK  status: ('A' for Active; 'I' for Inactive)
REMARK    1  A    between atoms: C_6  and  C_12
REMARK    2  A    between atoms: N_14  and  N_15
REMARK    3  A    between atoms: C_16  and  C_18
REMARK                            x       y       z     vdW  Elec       q    Type
REMARK                         _______ _______ _______ _____ _____    ______ ____
ROOT
ATOM      1  C   UNL     1       3.655  -2.766   1.188  0.00  0.00    +0.257 C 
ATOM      2  O   UNL     1       4.330  -2.167   1.998  0.00  0.00    -0.272 OA
ATOM      3  N   UNL     1       3.363  -4.067   1.385  0.00  0.00    -0.232 N 
ATOM      4  H   UNL     1       2.823  -4.546   0.737  0.00  0.00    +0.173 HD
ENDROOT
BRANCH   1  10
ATOM      5  C   UNL     1      -0.016   1.349   0.009  0.00  0.00    +0.001 A 
ATOM      6  C   UNL     1       1.165   2.101   0.002  0.00  0.00    +0.002 A 
ATOM      7  C   UNL     1       2.391   1.533  -0.013  0.00  0.00    +0.026 A 
ATOM      8  C   UNL     1       2.526   0.118  -0.021  0.00  0.00    +0.045 A 
ATOM      9  N   UNL     1       3.585  -0.657  -0.036  0.00  0.00    -0.369 N 
ATOM     10  C   UNL     1       3.142  -2.056  -0.039  0.00  0.00    +0.210 C 
ATOM     11  C   UNL     1       1.631  -2.012  -0.024  0.00  0.00    +0.059 C 
ATOM     12  C   UNL     1       1.294  -0.698  -0.014  0.00  0.00    +0.015 A 
ATOM     13  C   UNL     1       0.002  -0.004   0.002  0.00  0.00    +0.011 A 
ATOM     14 CL   UNL     1       0.547  -3.368  -0.022  0.00  0.00    -0.085 Cl
ATOM     15  H   UNL     1       4.507  -0.356  -0.043  0.00  0.00    +0.161 HD
ENDBRANCH   1  10
BRANCH   3  16
ATOM     16  N   UNL     1       3.839  -4.727   2.525  0.00  0.00    -0.230 N 
ATOM     17  C   UNL     1       3.547  -6.028   2.722  0.00  0.00    +0.260 C 
ATOM     18  O   UNL     1       2.870  -6.629   1.910  0.00  0.00    -0.269 OA
ATOM     19  H   UNL     1       4.379  -4.248   3.172  0.00  0.00    +0.173 HD
BRANCH  17  20
ATOM     20  C   UNL     1       4.050  -6.724   3.925  0.00  0.00    +0.038 A 
ATOM     21  C   UNL     1       4.822  -6.036   4.861  0.00  0.00    +0.014 A 
ATOM     22  C   UNL     1       5.288  -6.691   5.982  0.00  0.00    +0.016 A 
ATOM     23  C   UNL     1       4.991  -8.029   6.179  0.00  0.00    +0.018 A 
ATOM     24  C   UNL     1       4.226  -8.718   5.253  0.00  0.00    +0.016 A 
ATOM     25  C   UNL     1       3.749  -8.072   4.131  0.00  0.00    +0.014 A 
ATOM     26 BR   UNL     1       5.634  -8.920   7.718  0.00  0.00    -0.050 Br
ENDBRANCH  17  20
ENDBRANCH   3  16
TORSDOF 3
