REMARK  Name = ZINC05254625
REMARK  5 active torsions:
REMARK  status: ('A' for Active; 'I' for Inactive)
REMARK    1  A    between atoms: C_1  and  C_2
REMARK    2  A    between atoms: C_2  and  C_4
REMARK    3  A    between atoms: C_2  and  S_16
REMARK    4  A    between atoms: S_16  and  C_17
REMARK    5  A    between atoms: N_29  and  C_30
REMARK                            x       y       z     vdW  Elec       q    Type
REMARK                         _______ _______ _______ _____ _____    ______ ____
ROOT
ATOM      1  S   UNL     1       1.065   3.826   0.013  0.00  0.00    -0.077 S 
ENDROOT
BRANCH   1   2
ATOM      2  C   UNL     1       1.141   2.066   0.002  0.00  0.00    +0.173 A 
ATOM      3  N   UNL     1       2.315   1.466  -0.013  0.00  0.00    -0.216 NA
ATOM      4  C   UNL     1       2.400   0.141  -0.021  0.00  0.00    +0.117 A 
ATOM      5  C   UNL     1       1.263  -0.679  -0.014  0.00  0.00    +0.076 A 
ATOM      6  C   UNL     1       1.513  -2.130  -0.024  0.00  0.00    -0.023 A 
ATOM      7  C   UNL     1       2.796  -2.525  -0.042  0.00  0.00    -0.004 A 
ATOM      8  S   UNL     1       3.741  -1.019  -0.042  0.00  0.00    -0.073 S 
ATOM      9  C   UNL     1       2.929  -4.024  -0.054  0.00  0.00    +0.043 C 
ATOM     10  C   UNL     1       1.533  -4.534  -0.477  0.00  0.00    +0.010 C 
ATOM     11  C   UNL     1       0.625  -3.378  -0.015  0.00  0.00    +0.037 C 
ATOM     12  C   UNL     1       0.002  -0.004   0.002  0.00  0.00    +0.263 A 
ATOM     13  O   UNL     1      -1.040  -0.637   0.009  0.00  0.00    -0.267 OA
ATOM     14  N   UNL     1      -0.016   1.342   0.009  0.00  0.00    -0.290 N 
ATOM     15  C   UNL     1      -1.302   2.043   0.019  0.00  0.00    +0.154 C 
ENDBRANCH   1   2
BRANCH   1  17
ATOM     16  C   UNL     1       3.474   3.725   1.296  0.00  0.00    +0.027 C 
ATOM     17  C   UNL     1       2.832   4.217  -0.002  0.00  0.00    +0.117 C 
BRANCH  17  18
ATOM     18  C   UNL     1       3.015   5.708  -0.120  0.00  0.00    +0.124 A 
ATOM     19  N   UNL     1       2.011   6.517   0.308  0.00  0.00    -0.309 N 
ATOM     20  H   UNL     1       1.177   6.114   0.685  0.00  0.00    +0.170 HD
ATOM     21  C   UNL     1       2.129   7.863   0.230  0.00  0.00    +0.259 A 
ATOM     22  O   UNL     1       1.239   8.599   0.613  0.00  0.00    -0.267 OA
ATOM     23  C   UNL     1       3.372   8.401  -0.344  0.00  0.00    +0.065 A 
ATOM     24  C   UNL     1       3.590   9.771  -0.475  0.00  0.00    +0.015 A 
ATOM     25  C   UNL     1       4.773  10.220  -1.019  0.00  0.00    +0.001 A 
ATOM     26  C   UNL     1       5.745   9.321  -1.437  0.00  0.00    +0.002 A 
ATOM     27  C   UNL     1       5.549   7.964  -1.316  0.00  0.00    +0.028 A 
ATOM     28  C   UNL     1       4.358   7.483  -0.767  0.00  0.00    +0.078 A 
ATOM     29  N   UNL     1       4.123   6.154  -0.630  0.00  0.00    -0.233 NA
ENDBRANCH  17  18
ENDBRANCH   1  17
TORSDOF 3
