REMARK  Name = ZINC15932621
REMARK  9 active torsions:
REMARK  status: ('A' for Active; 'I' for Inactive)
REMARK    1  A    between atoms: C_1  and  C_2
REMARK    2  A    between atoms: C_2  and  O_3
REMARK    3  A    between atoms: O_3  and  C_4
REMARK    4  A    between atoms: C_7  and  C_10
REMARK    5  A    between atoms: C_14  and  C_24
REMARK    6  A    between atoms: C_19  and  N_23
REMARK    7  A    between atoms: C_20  and  C_21
REMARK    8  A    between atoms: C_26  and  C_30
REMARK    9  A    between atoms: C_28  and  C_29
REMARK                            x       y       z     vdW  Elec       q    Type
REMARK                         _______ _______ _______ _____ _____    ______ ____
ROOT
ATOM      1  C   UNL     1       1.228  -5.931  -1.965  0.00  0.00    +0.082 C 
ATOM      2  C   UNL     1       2.683  -6.414  -1.945  0.00  0.00    +0.140 C 
ATOM      3  C   UNL     1       3.151  -6.664  -0.531  0.00  0.00    +0.084 C 
ATOM      4  N   UNL     1       3.398  -7.946  -0.453  0.00  0.00    -0.150 NA
ATOM      5  N   UNL     1       3.110  -8.612  -1.643  0.00  0.00    -0.115 NA
ATOM      6  C   UNL     1       2.665  -7.811  -2.561  0.00  0.00    +0.227 C 
ATOM      7  O   UNL     1       2.169  -8.021  -3.801  0.00  0.00    -0.425 OA
ATOM      8  C   UNL     1       1.066  -7.284  -4.091  0.00  0.00    +0.200 C 
ATOM      9  C   UNL     1       0.601  -6.310  -3.280  0.00  0.00    +0.095 C 
ENDROOT
BRANCH   3  10
ATOM     10  C   UNL     1       3.300  -5.669   0.540  0.00  0.00    +0.009 A 
ATOM     11  C   UNL     1       2.483  -5.710   1.729  0.00  0.00    +0.021 A 
ATOM     12  C   UNL     1       2.719  -4.739   2.635  0.00  0.00    -0.012 A 
ATOM     13  S   UNL     1       4.026  -3.793   1.883  0.00  0.00    -0.098 S 
ATOM     14  C   UNL     1       4.230  -4.656   0.459  0.00  0.00    -0.004 A 
ATOM     15  C   UNL     1       5.207  -4.384  -0.656  0.00  0.00    +0.052 C 
ATOM     16  C   UNL     1       2.042  -4.511   3.962  0.00  0.00    +0.051 C 
ENDBRANCH   3  10
BRANCH   1  20
ATOM     17  C   UNL     1       1.125  -1.684  -1.502  0.00  0.00    +0.121 A 
ATOM     18  C   UNL     1       0.487  -2.499  -0.578  0.00  0.00    +0.046 A 
ATOM     19  C   UNL     1       0.522  -3.872  -0.730  0.00  0.00    +0.008 A 
ATOM     20  C   UNL     1       1.191  -4.434  -1.802  0.00  0.00    -0.038 A 
ATOM     21  C   UNL     1       1.828  -3.623  -2.723  0.00  0.00    +0.008 A 
ATOM     22  C   UNL     1       1.791  -2.250  -2.579  0.00  0.00    +0.046 A 
BRANCH  17  23
ATOM     23  O   UNL     1       1.092  -0.334  -1.354  0.00  0.00    -0.492 OA
BRANCH  23  25
ATOM     24  C   UNL     1       0.459   1.707  -0.225  0.00  0.00    +0.048 C 
ATOM     25  C   UNL     1       0.388   0.179  -0.222  0.00  0.00    +0.225 C 
ENDBRANCH  23  25
ENDBRANCH  17  23
ENDBRANCH   1  20
BRANCH   8  26
ATOM     26  N   UNL     1       0.392  -7.541  -5.260  0.00  0.00    -0.328 N 
ATOM     27  H   UNL     1       0.707  -8.237  -5.858  0.00  0.00    +0.145 HD
ATOM     28  H   UNL     1      -0.398  -7.027  -5.487  0.00  0.00    +0.145 HD
ENDBRANCH   8  26
BRANCH   9  29
ATOM     29  C   UNL     1      -0.563  -5.588  -3.698  0.00  0.00    +0.100 C 
ATOM     30  N   UNL     1      -1.487  -5.016  -4.029  0.00  0.00    -0.191 NA
ENDBRANCH   9  29
TORSDOF 6
