REMARK  Name = ZINC02380147
REMARK  6 active torsions:
REMARK  status: ('A' for Active; 'I' for Inactive)
REMARK    1  A    between atoms: C_1  and  C_2
REMARK    2  A    between atoms: C_5  and  N_8
REMARK    3  A    between atoms: C_11  and  C_15
REMARK    4  A    between atoms: C_11  and  N_19
REMARK    5  A    between atoms: N_19  and  S_20
REMARK    6  A    between atoms: S_20  and  C_23
REMARK                            x       y       z     vdW  Elec       q    Type
REMARK                         _______ _______ _______ _____ _____    ______ ____
ROOT
ATOM      1  N   UNL     1       0.455  -4.641   0.411  0.00  0.00    -0.187 N 
ATOM      2  C   UNL     1       0.361  -5.533   1.419  0.00  0.00    +0.281 C 
ATOM      3  O   UNL     1       0.437  -5.312   2.609  0.00  0.00    -0.270 OA
ATOM      4  C   UNL     1       0.141  -6.871   0.742  0.00  0.00    +0.306 C 
ATOM      5  N   UNL     1       0.136  -6.544  -0.693  0.00  0.00    -0.190 NA
ATOM      6  C   UNL     1       0.314  -5.267  -0.804  0.00  0.00    +0.345 C 
ATOM      7  O   UNL     1       0.359  -4.619  -1.988  0.00  0.00    -0.247 OA
ENDROOT
BRANCH   1  12
ATOM      8  C   UNL     1       1.288   0.931   1.094  0.00  0.00    +0.044 C 
ATOM      9  C   UNL     1       1.067  -0.548   0.913  0.00  0.00    -0.050 A 
ATOM     10  C   UNL     1       1.067  -1.095  -0.357  0.00  0.00    +0.005 A 
ATOM     11  C   UNL     1       0.864  -2.451  -0.527  0.00  0.00    +0.024 A 
ATOM     12  C   UNL     1       0.661  -3.265   0.580  0.00  0.00    +0.046 A 
ATOM     13  C   UNL     1       0.663  -2.713   1.853  0.00  0.00    +0.024 A 
ATOM     14  C   UNL     1       0.871  -1.357   2.017  0.00  0.00    +0.005 A 
ENDBRANCH   1  12
BRANCH   4  15
ATOM     15  C   UNL     1       1.285  -7.833   1.069  0.00  0.00    +0.438 C 
ATOM     16  F   UNL     1       1.273  -8.123   2.438  0.00  0.00    -0.166 F 
ATOM     17  F   UNL     1       1.121  -9.017   0.342  0.00  0.00    -0.166 F 
ATOM     18  F   UNL     1       2.505  -7.241   0.728  0.00  0.00    -0.166 F 
ENDBRANCH   4  15
BRANCH   4  19
ATOM     19  N   UNL     1      -1.146  -7.445   1.143  0.00  0.00    -0.147 NA
ATOM     20  H   UNL     1      -1.172  -8.269   1.653  0.00  0.00    +0.151 HD
BRANCH  19  21
ATOM     21  S   UNL     1      -2.557  -6.685   0.725  0.00  0.00    +0.061 S 
ATOM     22  O   UNL     1      -3.613  -7.456   1.281  0.00  0.00    -0.153 OA
ATOM     23  O   UNL     1      -2.380  -5.307   1.022  0.00  0.00    -0.153 OA
BRANCH  21  24
ATOM     24  C   UNL     1      -2.714  -6.806  -1.026  0.00  0.00    +0.105 A 
ATOM     25  C   UNL     1      -2.322  -5.752  -1.830  0.00  0.00    +0.030 A 
ATOM     26  C   UNL     1      -2.445  -5.846  -3.203  0.00  0.00    +0.022 A 
ATOM     27  C   UNL     1      -2.962  -6.995  -3.774  0.00  0.00    +0.041 A 
ATOM     28  C   UNL     1      -3.354  -8.050  -2.969  0.00  0.00    +0.022 A 
ATOM     29  C   UNL     1      -3.225  -7.957  -1.596  0.00  0.00    +0.030 A 
ATOM     30 CL   UNL     1      -3.117  -7.114  -5.499  0.00  0.00    -0.084 Cl
ENDBRANCH  21  24
ENDBRANCH  19  21
ENDBRANCH   4  19
TORSDOF 5
