REMARK  Name = ZINC39533834
REMARK  6 active torsions:
REMARK  status: ('A' for Active; 'I' for Inactive)
REMARK    1  A    between atoms: C_4  and  C_7
REMARK    2  A    between atoms: C_10  and  C_13
REMARK    3  A    between atoms: C_13  and  C_15
REMARK    4  A    between atoms: C_13  and  N_18
REMARK    5  A    between atoms: C_15  and  N_16
REMARK    6  A    between atoms: N_16  and  O_17
REMARK                            x       y       z     vdW  Elec       q    Type
REMARK                         _______ _______ _______ _____ _____    ______ ____
ROOT
ATOM      1  C   UNL     1       7.434  -2.768  -0.085  0.00  0.00    +0.103 C 
ENDROOT
BRANCH   1   2
ATOM      2  N   UNL     1       7.340  -4.001  -0.878  0.00  0.00    -0.291 NA
ATOM      3  C   UNL     1       6.740  -5.088  -0.092  0.00  0.00    +0.100 C 
ATOM      4  C   UNL     1       6.586  -6.328  -0.976  0.00  0.00    +0.097 C 
ATOM      5  N   UNL     1       7.903  -6.722  -1.496  0.00  0.00    -0.303 NA
ATOM      6  C   UNL     1       8.502  -5.635  -2.282  0.00  0.00    +0.132 C 
ATOM      7  C   UNL     1       8.656  -4.395  -1.399  0.00  0.00    +0.114 C 
ATOM      8  I   UNL     1      10.445  -6.252  -3.004  0.00  0.00    -0.063 I 
ATOM      9  H   UNL     1       8.517  -7.008  -0.748  0.00  0.00    +0.123 HD
ENDBRANCH   1   2
BRANCH   1  13
ATOM     10  C   UNL     1       3.562  -0.985   0.245  0.00  0.00    -0.018 A 
ATOM     11  C   UNL     1       4.684  -0.315   0.730  0.00  0.00    +0.009 A 
ATOM     12  C   UNL     1       5.932  -0.896   0.621  0.00  0.00    +0.006 A 
ATOM     13  C   UNL     1       6.069  -2.140   0.032  0.00  0.00    -0.029 A 
ATOM     14  C   UNL     1       4.959  -2.808  -0.451  0.00  0.00    +0.006 A 
ATOM     15  C   UNL     1       3.706  -2.240  -0.342  0.00  0.00    +0.009 A 
BRANCH  10  19
ATOM     16  C   UNL     1      -0.288   0.789   0.574  0.00  0.00    +0.000 A 
ATOM     17  C   UNL     1       0.823   1.460   1.052  0.00  0.00    +0.001 A 
ATOM     18  C   UNL     1       2.075   0.889   0.948  0.00  0.00    +0.008 A 
ATOM     19  C   UNL     1       2.219  -0.366   0.360  0.00  0.00    -0.018 A 
ATOM     20  C   UNL     1       1.096  -1.038  -0.119  0.00  0.00    +0.008 A 
ATOM     21  C   UNL     1      -0.151  -0.458  -0.010  0.00  0.00    +0.001 A 
ENDBRANCH  10  19
ENDBRANCH   1  13
BRANCH   1  22
ATOM     22  C   UNL     1       7.964  -3.100   1.312  0.00  0.00    +0.134 C 
BRANCH  22  23
ATOM     23  N   UNL     1       9.281  -3.740   1.196  0.00  0.00    -0.202 NA
ATOM     24  H   UNL     1       9.923  -3.156   0.680  0.00  0.00    +0.154 HD
BRANCH  23  25
ATOM     25  O   UNL     1       9.820  -4.072   2.515  0.00  0.00    -0.315 OA
ATOM     26  H   UNL     1      10.688  -4.496   2.490  0.00  0.00    +0.236 HD
ENDBRANCH  23  25
ENDBRANCH  22  23
ENDBRANCH   1  22
TORSDOF 6
