REMARK  Name = ZINC12489421
REMARK  6 active torsions:
REMARK  status: ('A' for Active; 'I' for Inactive)
REMARK    1  A    between atoms: C_1  and  C_2
REMARK    2  A    between atoms: C_6  and  C_9
REMARK    3  A    between atoms: N_17  and  N_18
REMARK    4  A    between atoms: C_21  and  C_30
REMARK    5  A    between atoms: C_21  and  O_36
REMARK    6  A    between atoms: C_22  and  C_24
REMARK                            x       y       z     vdW  Elec       q    Type
REMARK                         _______ _______ _______ _____ _____    ______ ____
ROOT
ATOM      1  N   UNL     1       7.506  -0.017  -0.422  0.00  0.00    -0.167 NA
ATOM      2  C   UNL     1       7.478   1.286  -0.395  0.00  0.00    +0.066 C 
ATOM      3  C   UNL     1       6.287   2.139  -0.019  0.00  0.00    +0.101 C 
ATOM      4  C   UNL     1       6.803   3.584  -0.152  0.00  0.00    +0.122 C 
ATOM      5  C   UNL     1       8.238   3.441  -0.600  0.00  0.00    -0.002 C 
ATOM      6  C   UNL     1       8.552   2.143  -0.717  0.00  0.00    +0.032 C 
ENDROOT
BRANCH   1  17
ATOM      7  C   UNL     1       7.369  -1.541   1.910  0.00  0.00    +0.088 C 
ATOM      8  C   UNL     1       6.225  -1.504   0.929  0.00  0.00    +0.133 A 
ATOM      9  N   UNL     1       5.146  -2.199   1.174  0.00  0.00    -0.225 NA
ATOM     10  C   UNL     1       4.118  -2.188   0.331  0.00  0.00    +0.116 A 
ATOM     11  C   UNL     1       4.139  -1.437  -0.856  0.00  0.00    +0.082 A 
ATOM     12  C   UNL     1       2.933  -1.534  -1.670  0.00  0.00    +0.004 A 
ATOM     13  C   UNL     1       1.915  -2.317  -1.236  0.00  0.00    +0.056 A 
ATOM     14  S   UNL     1       2.527  -2.971   0.305  0.00  0.00    -0.076 S 
ATOM     15  C   UNL     1       5.334  -0.688  -1.095  0.00  0.00    +0.283 A 
ATOM     16  O   UNL     1       5.446  -0.004  -2.099  0.00  0.00    -0.265 OA
ATOM     17  N   UNL     1       6.333  -0.748  -0.196  0.00  0.00    -0.182 N 
BRANCH  12  18
ATOM     18  C   UNL     1       2.823  -0.792  -2.949  0.00  0.00    -0.017 A 
ATOM     19  C   UNL     1       3.114   0.570  -2.994  0.00  0.00    +0.008 A 
ATOM     20  C   UNL     1       3.015   1.255  -4.189  0.00  0.00    +0.001 A 
ATOM     21  C   UNL     1       2.616   0.594  -5.337  0.00  0.00    +0.000 A 
ATOM     22  C   UNL     1       2.321  -0.757  -5.296  0.00  0.00    +0.001 A 
ATOM     23  C   UNL     1       2.422  -1.453  -4.109  0.00  0.00    +0.008 A 
ENDBRANCH  12  18
ENDBRANCH   1  17
BRANCH   5  24
ATOM     24  C   UNL     1       9.155   4.561  -0.869  0.00  0.00    -0.019 A 
ATOM     25  C   UNL     1       8.911   5.428  -1.939  0.00  0.00    +0.008 A 
ATOM     26  C   UNL     1       9.771   6.478  -2.181  0.00  0.00    +0.001 A 
ATOM     27  C   UNL     1      10.881   6.668  -1.375  0.00  0.00    +0.000 A 
ATOM     28  C   UNL     1      11.132   5.810  -0.318  0.00  0.00    +0.001 A 
ATOM     29  C   UNL     1      10.278   4.759  -0.060  0.00  0.00    +0.008 A 
ENDBRANCH   5  24
BRANCH   4  30
ATOM     30  C   UNL     1       6.736   4.297   1.174  0.00  0.00    -0.011 A 
ATOM     31  C   UNL     1       7.287   3.715   2.301  0.00  0.00    +0.007 A 
ATOM     32  C   UNL     1       7.229   4.371   3.516  0.00  0.00    +0.000 A 
ATOM     33  C   UNL     1       6.613   5.605   3.607  0.00  0.00    +0.000 A 
ATOM     34  C   UNL     1       6.059   6.185   2.481  0.00  0.00    +0.000 A 
ATOM     35  C   UNL     1       6.120   5.531   1.265  0.00  0.00    +0.007 A 
ENDBRANCH   4  30
BRANCH   4  36
ATOM     36  O   UNL     1       6.043   4.290  -1.134  0.00  0.00    -0.379 OA
ATOM     37  H   UNL     1       5.112   4.411  -0.899  0.00  0.00    +0.211 HD
ENDBRANCH   4  36
TORSDOF 5
