REMARK  Name = ZINC62951601
REMARK  9 active torsions:
REMARK  status: ('A' for Active; 'I' for Inactive)
REMARK    1  A    between atoms: C_1  and  C_2
REMARK    2  A    between atoms: C_2  and  C_3
REMARK    3  A    between atoms: C_3  and  C_20
REMARK    4  A    between atoms: C_9  and  C_11
REMARK    5  A    between atoms: C_13  and  N_19
REMARK    6  A    between atoms: N_15  and  C_16
REMARK    7  A    between atoms: C_16  and  C_17
REMARK    8  A    between atoms: C_16  and  C_18
REMARK    9  A    between atoms: C_20  and  C_21
REMARK                            x       y       z     vdW  Elec       q    Type
REMARK                         _______ _______ _______ _____ _____    ______ ____
ROOT
ATOM      1  C   UNL     1      -3.220  -0.849   0.041  0.00  0.00    -0.027 C 
ATOM      2  C   UNL     1      -3.207  -0.282  -1.380  0.00  0.00    +0.026 C 
ATOM      3  C   UNL     1      -1.952  -0.772  -2.110  0.00  0.00    +0.108 C 
ATOM      4  N   UNL     1      -1.911  -2.240  -2.045  0.00  0.00    -0.296 N 
ATOM      5  C   UNL     1      -2.008  -2.892  -0.732  0.00  0.00    +0.108 C 
ATOM      6  C   UNL     1      -3.262  -2.378  -0.018  0.00  0.00    +0.026 C 
ATOM      7  C   UNL     1      -1.786  -2.974  -3.168  0.00  0.00    +0.263 C 
ATOM      8  O   UNL     1      -1.864  -2.437  -4.258  0.00  0.00    -0.268 OA
ENDROOT
BRANCH   7   9
ATOM      9  C   UNL     1      -1.556  -4.419  -3.078  0.00  0.00    +0.107 A 
ATOM     10  C   UNL     1      -0.929  -5.081  -2.043  0.00  0.00    +0.055 A 
ATOM     11  C   UNL     1      -0.928  -6.445  -2.366  0.00  0.00    +0.043 A 
ATOM     12  C   UNL     1      -1.542  -6.587  -3.569  0.00  0.00    +0.109 A 
ATOM     13  N   UNL     1      -1.933  -5.361  -4.008  0.00  0.00    -0.339 N 
BRANCH  13  14
ATOM     14  C   UNL     1      -2.635  -5.087  -5.264  0.00  0.00    +0.081 C 
ATOM     15  C   UNL     1      -1.822  -5.644  -6.435  0.00  0.00    +0.030 C 
ATOM     16  C   UNL     1      -4.011  -5.755  -5.236  0.00  0.00    +0.030 C 
ENDBRANCH  13  14
BRANCH  11  17
ATOM     17  N   UNL     1      -0.387  -7.482  -1.583  0.00  0.00    -0.357 N 
ATOM     18  H   UNL     1       0.034  -7.279  -0.733  0.00  0.00    +0.142 HD
ATOM     19  H   UNL     1      -0.434  -8.400  -1.894  0.00  0.00    +0.142 HD
ENDBRANCH  11  17
ENDBRANCH   7   9
BRANCH   1  21
ATOM     20  C   UNL     1      -1.941   1.124   0.885  0.00  0.00    +0.004 C 
ATOM     21  C   UNL     1      -1.957  -0.402   0.780  0.00  0.00    +0.003 C 
ENDBRANCH   1  21
BRANCH   1  22
ATOM     22  C   UNL     1      -4.454  -0.334   0.784  0.00  0.00    +0.003 C 
ATOM     23  C   UNL     1      -5.716  -0.900   0.131  0.00  0.00    +0.004 C 
ENDBRANCH   1  22
TORSDOF 5
