REMARK  Name = ZINC08919637
REMARK  9 active torsions:
REMARK  status: ('A' for Active; 'I' for Inactive)
REMARK    1  A    between atoms: C_1  and  C_2
REMARK    2  A    between atoms: C_2  and  C_3
REMARK    3  A    between atoms: C_3  and  C_4
REMARK    4  A    between atoms: C_3  and  C_5
REMARK    5  A    between atoms: C_3  and  C_6
REMARK    6  A    between atoms: C_15  and  O_34
REMARK    7  A    between atoms: C_17  and  C_20
REMARK    8  A    between atoms: C_23  and  C_25
REMARK    9  A    between atoms: C_30  and  N_31
REMARK                            x       y       z     vdW  Elec       q    Type
REMARK                         _______ _______ _______ _____ _____    ______ ____
ROOT
ATOM      1  C   UNL     1       0.739  -2.027  -1.265  0.00  0.00    -0.000 C 
ATOM      2  C   UNL     1       1.450  -2.524  -2.527  0.00  0.00    +0.009 C 
ATOM      3  C   UNL     1       1.695  -4.031  -2.429  0.00  0.00    +0.037 C 
ATOM      4  C   UNL     1       0.379  -4.719  -2.092  0.00  0.00    -0.023 A 
ATOM      5  C   UNL     1      -0.661  -4.025  -1.576  0.00  0.00    -0.004 A 
ATOM      6  S   UNL     1      -1.943  -5.228  -1.356  0.00  0.00    -0.078 S 
ATOM      7  C   UNL     1      -1.152  -6.576  -1.910  0.00  0.00    +0.080 A 
ATOM      8  C   UNL     1       0.122  -6.134  -2.287  0.00  0.00    +0.068 A 
ATOM      9  C   UNL     1       1.060  -7.142  -2.844  0.00  0.00    +0.220 C 
ATOM     10  N   UNL     1       0.740  -8.402  -2.719  0.00  0.00    -0.220 NA
ATOM     11  C   UNL     1      -0.440  -8.889  -2.015  0.00  0.00    +0.260 C 
ATOM     12  N   UNL     1      -1.529  -7.895  -2.027  0.00  0.00    -0.311 N 
ATOM     13  C   UNL     1      -0.701  -2.562  -1.261  0.00  0.00    +0.046 C 
ATOM     14  H   UNL     1      -2.459  -8.156  -2.113  0.00  0.00    +0.149 HD
ENDROOT
BRANCH  11  15
ATOM     15  C   UNL     1      -0.070  -9.192  -0.586  0.00  0.00    +0.148 A 
ATOM     16  C   UNL     1       1.144  -9.589  -0.157  0.00  0.00    +0.049 A 
ATOM     17  C   UNL     1       1.053  -9.760   1.239  0.00  0.00    +0.050 A 
ATOM     18  C   UNL     1      -0.225  -9.454   1.588  0.00  0.00    +0.138 A 
ATOM     19  O   UNL     1      -0.893  -9.106   0.472  0.00  0.00    -0.456 OA
BRANCH  18  20
ATOM     20  C   UNL     1      -0.783  -9.492   2.956  0.00  0.00    +0.047 A 
ATOM     21  C   UNL     1      -0.600 -10.621   3.757  0.00  0.00    +0.014 A 
ATOM     22  C   UNL     1      -1.124 -10.650   5.033  0.00  0.00    +0.001 A 
ATOM     23  C   UNL     1      -1.830  -9.564   5.519  0.00  0.00    +0.002 A 
ATOM     24  C   UNL     1      -2.015  -8.442   4.731  0.00  0.00    +0.033 A 
ATOM     25  C   UNL     1      -1.491  -8.398   3.455  0.00  0.00    +0.137 A 
BRANCH  25  26
ATOM     26  N   UNL     1      -1.684  -7.194   2.615  0.00  0.00    +0.057 N 
ATOM     27  O   UNL     1      -2.298  -6.247   3.049  0.00  0.00    -0.126 OA
ATOM     28  O   UNL     1      -1.229  -7.159   1.496  0.00  0.00    -0.126 OA
ENDBRANCH  25  26
ENDBRANCH  18  20
ENDBRANCH  11  15
BRANCH   1  29
ATOM     29  C   UNL     1       0.718  -0.497  -1.257  0.00  0.00    -0.032 C 
ATOM     30  C   UNL     1      -0.022   0.009  -2.496  0.00  0.00    +0.011 C 
ATOM     31  C   UNL     1       2.154   0.032  -1.268  0.00  0.00    +0.011 C 
BRANCH  29  33
ATOM     32  C   UNL     1      -0.019   1.526   0.010  0.00  0.00    +0.004 C 
ATOM     33  C   UNL     1       0.002  -0.004   0.002  0.00  0.00    +0.003 C 
ENDBRANCH  29  33
ENDBRANCH   1  29
BRANCH   9  34
ATOM     34  O   UNL     1       2.205  -6.769  -3.460  0.00  0.00    -0.492 OA
ATOM     35  H   UNL     1       2.737  -7.508  -3.784  0.00  0.00    +0.294 HD
ENDBRANCH   9  34
TORSDOF 6
