REMARK  Name = ZINC57839866
REMARK  10 active torsions:
REMARK  status: ('A' for Active; 'I' for Inactive)
REMARK    1  A    between atoms: C_1  and  C_2
REMARK    2  A    between atoms: C_2  and  C_3
REMARK    3  A    between atoms: C_3  and  C_4
REMARK    4  A    between atoms: C_3  and  C_6
REMARK    5  A    between atoms: C_3  and  N_20
REMARK    6  A    between atoms: C_4  and  C_5
REMARK    7  A    between atoms: C_6  and  S_7
REMARK    8  A    between atoms: S_7  and  C_8
REMARK    9  A    between atoms: C_13  and  C_19
REMARK   10  A    between atoms: C_14  and  C_18
REMARK                            x       y       z     vdW  Elec       q    Type
REMARK                         _______ _______ _______ _____ _____    ______ ____
ROOT
ATOM      1  C   UNL     1      -2.916  -4.443   0.147  0.00  0.00    +0.171 A 
ATOM      2  N   UNL     1      -1.712  -4.947   0.321  0.00  0.00    -0.185 NA
ATOM      3  C   UNL     1      -1.496  -6.260   0.445  0.00  0.00    +0.282 A 
ATOM      4  O   UNL     1      -0.363  -6.686   0.606  0.00  0.00    -0.265 OA
ATOM      5  C   UNL     1      -2.646  -7.193   0.385  0.00  0.00    +0.075 A 
ATOM      6  C   UNL     1      -2.669  -8.641   0.492  0.00  0.00    -0.026 A 
ATOM      7  C   UNL     1      -3.843  -9.285   0.408  0.00  0.00    -0.008 A 
ATOM      8  S   UNL     1      -5.018  -7.963   0.175  0.00  0.00    -0.075 S 
ATOM      9  C   UNL     1      -3.894  -6.593   0.198  0.00  0.00    +0.092 A 
ATOM     10  N   UNL     1      -4.019  -5.242   0.087  0.00  0.00    -0.328 N 
ATOM     11  C   UNL     1      -4.106 -10.767   0.489  0.00  0.00    +0.052 C 
ATOM     12  C   UNL     1      -1.389  -9.411   0.694  0.00  0.00    +0.045 C 
ATOM     13  H   UNL     1      -4.895  -4.846  -0.038  0.00  0.00    +0.168 HD
ENDROOT
BRANCH   1  14
ATOM     14  S   UNL     1      -3.106  -2.698  -0.005  0.00  0.00    -0.089 S 
BRANCH  14  15
ATOM     15  C   UNL     1      -1.413  -2.059   0.130  0.00  0.00    +0.064 C 
BRANCH  15  16
ATOM     16  C   UNL     1      -1.433  -0.534   0.013  0.00  0.00    -0.062 C 
BRANCH  16  17
ATOM     17  N   UNL     1      -2.157   0.036   1.157  0.00  0.00    +0.382 N 
ATOM     18  H   UNL     1      -2.170   1.042   1.080  0.00  0.00    -0.089 HD
ATOM     19  H   UNL     1      -3.103  -0.313   1.165  0.00  0.00    -0.089 HD
ATOM     20  H   UNL     1      -1.694  -0.229   2.014  0.00  0.00    -0.089 HD
ENDBRANCH  16  17
BRANCH  16  22
ATOM     21  C   UNL     1      -0.019   1.526   0.010  0.00  0.00    +0.002 C 
ATOM     22  C   UNL     1       0.002  -0.004   0.002  0.00  0.00    -0.016 C 
ENDBRANCH  16  22
BRANCH  16  23
ATOM     23  C   UNL     1      -2.135  -0.131  -1.286  0.00  0.00    -0.016 C 
ATOM     24  C   UNL     1      -1.382  -0.725  -2.478  0.00  0.00    +0.002 C 
ENDBRANCH  16  23
ENDBRANCH  15  16
ENDBRANCH  14  15
ENDBRANCH   1  14
TORSDOF 6
