REMARK  Name = ZINC32971955
REMARK  16 active torsions:
REMARK  status: ('A' for Active; 'I' for Inactive)
REMARK    1  A    between atoms: C_1  and  C_2
REMARK    2  A    between atoms: C_2  and  C_3
REMARK    3  A    between atoms: C_2  and  C_4
REMARK    4  A    between atoms: C_4  and  N_5
REMARK    5  A    between atoms: C_6  and  N_35
REMARK    6  A    between atoms: C_7  and  N_14
REMARK    7  A    between atoms: N_14  and  C_15
REMARK    8  A    between atoms: C_15  and  C_16
REMARK    9  A    between atoms: C_16  and  C_17
REMARK   10  A    between atoms: C_16  and  C_18
REMARK   11  A    between atoms: C_19  and  C_21
REMARK   12  A    between atoms: C_21  and  N_22
REMARK   13  A    between atoms: N_22  and  C_23
REMARK   14  A    between atoms: C_24  and  C_26
REMARK   15  A    between atoms: C_26  and  C_27
REMARK   16  A    between atoms: C_27  and  C_28
REMARK                            x       y       z     vdW  Elec       q    Type
REMARK                         _______ _______ _______ _____ _____    ______ ____
ROOT
ATOM      1  N   UNL     1      -2.567   3.073   0.494  0.00  0.00    -0.263 N 
ATOM      2  C   UNL     1      -2.512   4.414   0.356  0.00  0.00    +0.237 C 
ATOM      3  O   UNL     1      -1.447   4.989   0.432  0.00  0.00    -0.274 OA
ENDROOT
BRANCH   1   6
ATOM      4  N   UNL     1       0.724   1.601  -0.216  0.00  0.00    -0.280 N 
ATOM      5  C   UNL     1      -0.427   2.337  -0.375  0.00  0.00    +0.127 A 
ATOM      6  C   UNL     1      -1.376   2.328   0.627  0.00  0.00    +0.140 A 
ATOM      7  C   UNL     1      -1.137   1.560   1.782  0.00  0.00    +0.277 A 
ATOM      8  O   UNL     1      -1.961   1.530   2.681  0.00  0.00    -0.266 OA
ATOM      9  N   UNL     1       0.009   0.861   1.890  0.00  0.00    -0.273 N 
ATOM     10  H   UNL     1       0.207   0.264   2.793  0.00  0.00    +0.173 HD
ATOM     11  C   UNL     1       0.923   0.881   0.903  0.00  0.00    +0.331 A 
ATOM     12  O   UNL     1       1.947   0.237   1.025  0.00  0.00    -0.246 OA
BRANCH   5  13
ATOM     13  N   UNL     1      -0.630   3.072  -1.518  0.00  0.00    -0.343 N 
ATOM     14  H   UNL     1      -1.553   3.659  -1.638  0.00  0.00    +0.144 HD
ATOM     15  H   UNL     1       0.131   3.075  -2.312  0.00  0.00    +0.144 HD
ENDBRANCH   5  13
BRANCH   4  16
ATOM     16  C   UNL     1       1.740   1.601  -1.271  0.00  0.00    +0.131 C 
BRANCH  16  18
ATOM     17  C   UNL     1       2.437   0.542  -3.424  0.00  0.00    +0.009 C 
ATOM     18  C   UNL     1       1.452   0.466  -2.256  0.00  0.00    +0.003 C 
ATOM     19  C   UNL     1       1.609  -0.879  -1.543  0.00  0.00    +0.009 C 
ENDBRANCH  16  18
ENDBRANCH   4  16
ENDBRANCH   1   6
BRANCH   1  20
ATOM     20  C   UNL     1      -3.863   2.390   0.506  0.00  0.00    +0.117 C 
BRANCH  20  21
ATOM     21  C   UNL     1      -4.296   2.091  -0.930  0.00  0.00    +0.001 C 
ATOM     22  C   UNL     1      -3.334   1.076  -1.552  0.00  0.00    +0.009 C 
ATOM     23  C   UNL     1      -5.713   1.516  -0.927  0.00  0.00    +0.009 C 
ENDBRANCH  20  21
ENDBRANCH   1  20
BRANCH   2  24
ATOM     24  C   UNL     1      -3.775   5.197   0.106  0.00  0.00    +0.203 C 
BRANCH  24  25
ATOM     25  N   UNL     1      -3.445   6.614  -0.064  0.00  0.00    -0.296 N 
ATOM     26  C   UNL     1      -3.413   7.505   1.099  0.00  0.00    +0.132 C 
ATOM     27  C   UNL     1      -3.170   7.099  -1.292  0.00  0.00    +0.216 C 
ATOM     28  O   UNL     1      -3.196   6.362  -2.254  0.00  0.00    -0.276 OA
BRANCH  27  29
ATOM     29  C   UNL     1      -2.830   8.557  -1.467  0.00  0.00    +0.100 C 
BRANCH  29  30
ATOM     30  C   UNL     1      -2.563   8.844  -2.946  0.00  0.00    +0.046 C 
BRANCH  30  31
ATOM     31  C   UNL     1      -2.223  10.301  -3.122  0.00  0.00    -0.029 A 
ATOM     32  C   UNL     1      -3.210  11.204  -3.471  0.00  0.00    +0.005 A 
ATOM     33  C   UNL     1      -2.900  12.542  -3.628  0.00  0.00    +0.000 A 
ATOM     34  C   UNL     1      -1.600  12.976  -3.445  0.00  0.00    +0.001 A 
ATOM     35  C   UNL     1      -0.611  12.074  -3.102  0.00  0.00    +0.020 A 
ATOM     36  C   UNL     1      -0.922  10.735  -2.940  0.00  0.00    +0.044 A 
ATOM     37 CL   UNL     1       0.319   9.601  -2.509  0.00  0.00    -0.083 Cl
ENDBRANCH  30  31
ENDBRANCH  29  30
ENDBRANCH  27  29
ENDBRANCH  24  25
ENDBRANCH   2  24
TORSDOF 11
