REMARK  Name = ZINC00272450
REMARK  4 active torsions:
REMARK  status: ('A' for Active; 'I' for Inactive)
REMARK    1  A    between atoms: C_4  and  C_7
REMARK    2  A    between atoms: C_7  and  N_17
REMARK    3  A    between atoms: N_17  and  C_18
REMARK    4  A    between atoms: C_21  and  O_24
REMARK                            x       y       z     vdW  Elec       q    Type
REMARK                         _______ _______ _______ _____ _____    ______ ____
ROOT
ATOM      1  C   UNL     1      -1.336   3.528  -0.050  0.00  0.00    +0.233 C 
ATOM      2  C   UNL     1      -0.849   4.125  -1.346  0.00  0.00    +0.033 A 
ATOM      3  C   UNL     1       0.379   4.169  -1.964  0.00  0.00    +0.010 A 
ATOM      4  C   UNL     1       0.517   4.809  -3.184  0.00  0.00    +0.000 A 
ATOM      5  C   UNL     1      -0.577   5.406  -3.785  0.00  0.00    +0.001 A 
ATOM      6  C   UNL     1      -1.814   5.369  -3.175  0.00  0.00    +0.015 A 
ATOM      7  C   UNL     1      -1.961   4.725  -1.944  0.00  0.00    +0.068 A 
ATOM      8  C   UNL     1      -3.122   4.519  -1.060  0.00  0.00    +0.342 C 
ATOM      9  O   UNL     1      -4.247   4.916  -1.286  0.00  0.00    -0.245 OA
ATOM     10  O   UNL     1      -2.757   3.827   0.032  0.00  0.00    -0.428 OA
ENDROOT
BRANCH   1  14
ATOM     11  C   UNL     1       0.727   5.293   3.247  0.00  0.00    +0.000 A 
ATOM     12  C   UNL     1       1.221   4.144   2.658  0.00  0.00    +0.000 A 
ATOM     13  C   UNL     1       0.553   3.573   1.591  0.00  0.00    +0.009 A 
ATOM     14  C   UNL     1      -0.608   4.151   1.113  0.00  0.00    +0.019 A 
ATOM     15  C   UNL     1      -1.099   5.303   1.699  0.00  0.00    +0.009 A 
ATOM     16  C   UNL     1      -0.434   5.871   2.769  0.00  0.00    +0.000 A 
ENDBRANCH   1  14
BRANCH   1  17
ATOM     17  N   UNL     1      -1.127   2.078  -0.055  0.00  0.00    -0.299 N 
ATOM     18  H   UNL     1      -0.562   1.672  -0.731  0.00  0.00    +0.150 HD
BRANCH  17  19
ATOM     19  C   UNL     1      -1.742   1.279   0.915  0.00  0.00    +0.031 A 
ATOM     20  C   UNL     1      -2.431   1.869   1.966  0.00  0.00    +0.026 A 
ATOM     21  C   UNL     1      -3.033   1.080   2.926  0.00  0.00    +0.047 A 
ATOM     22  C   UNL     1      -2.950  -0.302   2.841  0.00  0.00    +0.117 A 
ATOM     23  C   UNL     1      -2.263  -0.892   1.791  0.00  0.00    +0.047 A 
ATOM     24  C   UNL     1      -1.660  -0.105   0.830  0.00  0.00    +0.026 A 
BRANCH  22  25
ATOM     25  O   UNL     1      -3.543  -1.078   3.787  0.00  0.00    -0.507 OA
ATOM     26  H   UNL     1      -2.972  -1.288   4.538  0.00  0.00    +0.292 HD
ENDBRANCH  22  25
ENDBRANCH  17  19
ENDBRANCH   1  17
TORSDOF 4
