REMARK  Name = ZINC25499984
REMARK  5 active torsions:
REMARK  status: ('A' for Active; 'I' for Inactive)
REMARK    1  A    between atoms: C_1  and  C_2
REMARK    2  A    between atoms: C_3  and  C_16
REMARK    3  A    between atoms: N_8  and  C_9
REMARK    4  A    between atoms: C_16  and  C_17
REMARK    5  A    between atoms: C_20  and  C_23
REMARK                            x       y       z     vdW  Elec       q    Type
REMARK                         _______ _______ _______ _____ _____    ______ ____
ROOT
ATOM      1  C   UNL     1      -0.039   1.422  -0.770  0.00  0.00    +0.066 C 
ATOM      2  C   UNL     1      -0.010  -0.051  -0.452  0.00  0.00    +0.050 A 
ATOM      3  C   UNL     1      -1.178  -0.727  -0.246  0.00  0.00    +0.042 A 
ATOM      4  C   UNL     1      -1.125  -2.100   0.050  0.00  0.00    +0.256 A 
ATOM      5  N   UNL     1       0.081  -2.703   0.119  0.00  0.00    -0.295 N 
ATOM      6  C   UNL     1       1.213  -1.978  -0.096  0.00  0.00    +0.200 A 
ATOM      7  N   UNL     1       1.154  -0.692  -0.378  0.00  0.00    -0.221 NA
ATOM      8  N   UNL     1       2.433  -2.597  -0.024  0.00  0.00    -0.285 N 
ATOM      9  O   UNL     1      -2.149  -2.735   0.240  0.00  0.00    -0.267 OA
ATOM     10  H   UNL     1       2.483  -3.558   0.102  0.00  0.00    +0.155 HD
ATOM     11  H   UNL     1       0.141  -3.650   0.322  0.00  0.00    +0.172 HD
ENDROOT
BRANCH   8  12
ATOM     12  C   UNL     1       3.607  -1.844  -0.131  0.00  0.00    +0.034 A 
ATOM     13  C   UNL     1       3.690  -0.595   0.472  0.00  0.00    +0.023 A 
ATOM     14  C   UNL     1       4.850   0.146   0.365  0.00  0.00    +0.002 A 
ATOM     15  C   UNL     1       5.928  -0.353  -0.342  0.00  0.00    +0.000 A 
ATOM     16  C   UNL     1       5.849  -1.596  -0.943  0.00  0.00    +0.002 A 
ATOM     17  C   UNL     1       4.694  -2.345  -0.835  0.00  0.00    +0.023 A 
ENDBRANCH   8  12
BRANCH   3  18
ATOM     18  C   UNL     1      -2.502  -0.012  -0.333  0.00  0.00    +0.077 C 
BRANCH  18  19
ATOM     19  C   UNL     1      -3.072  -0.179  -1.718  0.00  0.00    -0.043 A 
ATOM     20  C   UNL     1      -2.768   0.738  -2.706  0.00  0.00    +0.004 A 
ATOM     21  C   UNL     1      -3.292   0.585  -3.976  0.00  0.00    +0.004 A 
ATOM     22  C   UNL     1      -4.119  -0.486  -4.258  0.00  0.00    -0.044 A 
ATOM     23  C   UNL     1      -4.422  -1.404  -3.270  0.00  0.00    +0.004 A 
ATOM     24  C   UNL     1      -3.895  -1.253  -2.001  0.00  0.00    +0.004 A 
BRANCH  22  25
ATOM     25  C   UNL     1      -4.691  -0.652  -5.643  0.00  0.00    +0.019 C 
ATOM     26  C   UNL     1      -6.219  -0.626  -5.570  0.00  0.00    +0.008 C 
ATOM     27  C   UNL     1      -6.799  -0.795  -6.976  0.00  0.00    +0.001 C 
ATOM     28  C   UNL     1      -6.338  -2.132  -7.560  0.00  0.00    +0.000 C 
ATOM     29  C   UNL     1      -4.810  -2.158  -7.633  0.00  0.00    +0.001 C 
ATOM     30  C   UNL     1      -4.230  -1.989  -6.227  0.00  0.00    +0.008 C 
ENDBRANCH  22  25
ENDBRANCH  18  19
ENDBRANCH   3  18
TORSDOF 4
