REMARK  Name = ZINC21661053
REMARK  5 active torsions:
REMARK  status: ('A' for Active; 'I' for Inactive)
REMARK    1  A    between atoms: C_1  and  C_2
REMARK    2  A    between atoms: C_14  and  C_16
REMARK    3  A    between atoms: C_17  and  C_23
REMARK    4  A    between atoms: C_28  and  O_29
REMARK    5  A    between atoms: O_29  and  C_30
REMARK                            x       y       z     vdW  Elec       q    Type
REMARK                         _______ _______ _______ _____ _____    ______ ____
ROOT
ATOM      1  C   UNL     1      -3.749  -7.798  -0.084  0.00  0.00    +0.044 C 
ATOM      2  C   UNL     1      -2.987  -6.498  -0.070  0.00  0.00    -0.049 A 
ATOM      3  C   UNL     1      -1.599  -6.500  -0.073  0.00  0.00    +0.005 A 
ATOM      4  C   UNL     1      -0.881  -5.332  -0.061  0.00  0.00    +0.029 A 
ATOM      5  C   UNL     1      -1.539  -4.080  -0.045  0.00  0.00    +0.081 A 
ATOM      6  C   UNL     1      -2.952  -4.118  -0.042  0.00  0.00    +0.041 A 
ATOM      7  C   UNL     1      -3.663  -5.292  -0.055  0.00  0.00    +0.020 A 
ATOM      8  S   UNL     1      -3.376  -2.392  -0.013  0.00  0.00    -0.048 S 
ATOM      9  C   UNL     1      -1.707  -1.752  -0.016  0.00  0.00    +0.196 A 
ATOM     10  N   UNL     1      -0.987  -2.849  -0.031  0.00  0.00    -0.221 NA
ATOM     11  N   UNL     1      -1.280  -0.429  -0.001  0.00  0.00    -0.193 N 
ATOM     12  C   UNL     1       0.002  -0.004   0.002  0.00  0.00    +0.135 A 
ATOM     13  C   UNL     1      -0.017   1.365   0.009  0.00  0.00    +0.023 A 
ATOM     14  C   UNL     1      -1.342   1.776   0.019  0.00  0.00    +0.066 A 
ATOM     15  N   UNL     1      -2.105   0.708   0.015  0.00  0.00    -0.168 NA
ATOM     16  C   UNL     1      -1.823   3.204   0.034  0.00  0.00    +0.068 C 
ATOM     17  C   UNL     1       1.246   2.189   0.002  0.00  0.00    +0.066 C 
ATOM     18  C   UNL     1       2.355   1.378   0.681  0.00  0.00    +0.109 C 
ATOM     19  C   UNL     1       2.344  -0.052   0.221  0.00  0.00    +0.219 C 
ATOM     20  O   UNL     1       3.401  -0.620   0.041  0.00  0.00    -0.275 OA
ATOM     21  N   UNL     1       1.194  -0.726   0.003  0.00  0.00    -0.270 N 
ATOM     22  H   UNL     1       1.180  -1.812  -0.171  0.00  0.00    +0.156 HD
ENDROOT
BRANCH  17  23
ATOM     23  C   UNL     1       1.020   3.472   0.758  0.00  0.00    +0.003 A 
ATOM     24  C   UNL     1       0.658   3.434   2.091  0.00  0.00    +0.023 A 
ATOM     25  C   UNL     1       0.451   4.612   2.786  0.00  0.00    +0.018 A 
ATOM     26  C   UNL     1       0.604   5.830   2.148  0.00  0.00    +0.019 A 
ATOM     27  C   UNL     1       0.964   5.873   0.815  0.00  0.00    +0.047 A 
ATOM     28  C   UNL     1       1.180   4.692   0.118  0.00  0.00    +0.124 A 
ATOM     29 BR   UNL     1      -0.044   4.558   4.611  0.00  0.00    -0.050 Br
BRANCH  28  30
ATOM     30  O   UNL     1       1.541   4.732  -1.191  0.00  0.00    -0.495 OA
ATOM     31  C   UNL     1       1.687   6.023  -1.785  0.00  0.00    +0.277 C 
ENDBRANCH  28  30
ENDBRANCH  17  23
TORSDOF 2
