REMARK  Name = ZINC06078220
REMARK  15 active torsions:
REMARK  status: ('A' for Active; 'I' for Inactive)
REMARK    1  A    between atoms: C_1  and  C_2
REMARK    2  A    between atoms: C_2  and  N_3
REMARK    3  A    between atoms: N_3  and  C_4
REMARK    4  A    between atoms: N_3  and  C_6
REMARK    5  A    between atoms: C_4  and  C_5
REMARK    6  A    between atoms: C_6  and  C_7
REMARK    7  A    between atoms: C_7  and  C_8
REMARK    8  A    between atoms: C_8  and  N_9
REMARK    9  A    between atoms: N_9  and  C_10
REMARK   10  A    between atoms: N_9  and  C_26
REMARK   11  A    between atoms: C_10  and  C_11
REMARK   12  A    between atoms: C_26  and  N_28
REMARK   13  A    between atoms: N_28  and  C_29
REMARK   14  A    between atoms: C_34  and  O_35
REMARK   15  A    between atoms: O_35  and  C_36
REMARK                            x       y       z     vdW  Elec       q    Type
REMARK                         _______ _______ _______ _____ _____    ______ ____
ROOT
ATOM      1  N   UNL     1       3.052  -4.451   3.591  0.00  0.00    -0.308 N 
ENDROOT
BRANCH   1   2
ATOM      2  C   UNL     1       4.397  -4.425   3.667  0.00  0.00    +0.138 C 
ATOM      3  S   UNL     1       5.196  -5.198   4.969  0.00  0.00    -0.018 S 
BRANCH   2   4
ATOM      4  N   UNL     1       5.113  -3.790   2.718  0.00  0.00    -0.294 N 
ATOM      5  H   UNL     1       4.660  -3.288   2.023  0.00  0.00    +0.154 HD
BRANCH   4   6
ATOM      6  C   UNL     1       6.513  -3.855   2.736  0.00  0.00    +0.075 A 
ATOM      7  C   UNL     1       7.200  -3.728   3.934  0.00  0.00    +0.027 A 
ATOM      8  C   UNL     1       8.580  -3.793   3.950  0.00  0.00    +0.002 A 
ATOM      9  C   UNL     1       9.280  -3.984   2.772  0.00  0.00    +0.004 A 
ATOM     10  C   UNL     1       8.602  -4.111   1.574  0.00  0.00    +0.047 A 
ATOM     11  C   UNL     1       7.218  -4.052   1.551  0.00  0.00    +0.141 A 
BRANCH  11  12
ATOM     12  O   UNL     1       6.550  -4.182   0.374  0.00  0.00    -0.493 OA
ATOM     13  C   UNL     1       7.338  -4.382  -0.801  0.00  0.00    +0.277 C 
ENDBRANCH  11  12
ENDBRANCH   4   6
ENDBRANCH   2   4
ENDBRANCH   1   2
BRANCH   1  14
ATOM     14  C   UNL     1       2.368  -3.789   2.477  0.00  0.00    +0.105 C 
BRANCH  14  15
ATOM     15  C   UNL     1       2.063  -2.338   2.855  0.00  0.00    +0.000 C 
BRANCH  15  16
ATOM     16  C   UNL     1       1.349  -1.647   1.692  0.00  0.00    -0.077 C 
BRANCH  16  17
ATOM     17  N   UNL     1       0.938  -0.298   2.102  0.00  0.00    +0.379 N 
ATOM     18  H   UNL     1       0.391  -0.355   2.947  0.00  0.00    -0.082 HD
BRANCH  17  20
ATOM     19  C   UNL     1       1.707   1.889   2.891  0.00  0.00    -0.017 C 
ATOM     20  C   UNL     1       2.131   0.524   2.345  0.00  0.00    -0.082 C 
ENDBRANCH  17  20
BRANCH  17  21
ATOM     21  C   UNL     1       0.132   0.313   1.036  0.00  0.00    -0.082 C 
ATOM     22  C   UNL     1      -1.181  -0.457   0.885  0.00  0.00    -0.017 C 
ENDBRANCH  17  21
ENDBRANCH  16  17
ENDBRANCH  15  16
ENDBRANCH  14  15
ENDBRANCH   1  14
BRANCH   1  23
ATOM     23  C   UNL     1       2.273  -5.141   4.622  0.00  0.00    +0.147 C 
BRANCH  23  24
ATOM     24  C   UNL     1       2.072  -6.579   4.221  0.00  0.00    +0.035 A 
ATOM     25  C   UNL     1       2.917  -7.535   4.685  0.00  0.00    +0.020 A 
ATOM     26  C   UNL     1       2.696  -8.922   4.278  0.00  0.00    +0.003 A 
ATOM     27  C   UNL     1       3.537  -9.949   4.725  0.00  0.00    +0.059 A 
ATOM     28  C   UNL     1       3.304 -11.245   4.324  0.00  0.00    +0.167 A 
ATOM     29  C   UNL     1       2.231 -11.539   3.473  0.00  0.00    +0.168 A 
ATOM     30  C   UNL     1       1.395 -10.531   3.027  0.00  0.00    +0.075 A 
ATOM     31  C   UNL     1       1.617  -9.218   3.423  0.00  0.00    +0.053 A 
ATOM     32  N   UNL     1       0.794  -8.200   2.987  0.00  0.00    -0.322 N 
ATOM     33  H   UNL     1       0.050  -8.405   2.398  0.00  0.00    +0.169 HD
ATOM     34  C   UNL     1       1.004  -6.928   3.371  0.00  0.00    +0.254 A 
ATOM     35  O   UNL     1       0.254  -6.055   2.970  0.00  0.00    -0.268 OA
ATOM     36  O   UNL     1       2.224 -12.882   3.233  0.00  0.00    -0.453 OA
ATOM     37  C   UNL     1       3.535 -13.347   3.604  0.00  0.00    +0.466 C 
ATOM     38  O   UNL     1       3.962 -12.408   4.609  0.00  0.00    -0.453 OA
ENDBRANCH  23  24
ENDBRANCH   1  23
TORSDOF 12
