REMARK  Name = ZINC09417470
REMARK  4 active torsions:
REMARK  status: ('A' for Active; 'I' for Inactive)
REMARK    1  A    between atoms: C_1  and  C_2
REMARK    2  A    between atoms: C_5  and  N_8
REMARK    3  A    between atoms: C_11  and  C_16
REMARK    4  A    between atoms: C_16  and  N_17
REMARK                            x       y       z     vdW  Elec       q    Type
REMARK                         _______ _______ _______ _____ _____    ______ ____
ROOT
ATOM      1  N   UNL     1      -0.011   0.966   0.007  0.00  0.00    -0.284 N 
ATOM      2  C   UNL     1       1.084   1.787  -0.177  0.00  0.00    +0.224 A 
ATOM      3  N   UNL     1       2.315   1.289  -0.081  0.00  0.00    -0.198 NA
ATOM      4  C   UNL     1       3.363   2.073  -0.263  0.00  0.00    +0.154 A 
ATOM      5  N   UNL     1       3.194   3.356  -0.529  0.00  0.00    -0.198 NA
ATOM      6  C   UNL     1       1.967   3.863  -0.621  0.00  0.00    +0.217 A 
ATOM      7  N   UNL     1       0.910   3.077  -0.444  0.00  0.00    -0.181 NA
ATOM      8  N   UNL     1       1.792   5.203  -0.899  0.00  0.00    -0.327 N 
ATOM      9  H   UNL     1       0.113   0.010   0.120  0.00  0.00    +0.155 HD
ATOM     10  H   UNL     1       0.897   5.572  -0.966  0.00  0.00    +0.145 HD
ATOM     11  H   UNL     1       2.564   5.777  -1.028  0.00  0.00    +0.145 HD
ENDROOT
BRANCH   1  16
ATOM     12  C   UNL     1      -5.234   3.177   0.083  0.00  0.00    +0.044 C 
ATOM     13  C   UNL     1      -3.846   2.589   0.063  0.00  0.00    -0.050 A 
ATOM     14  C   UNL     1      -3.641   1.322  -0.450  0.00  0.00    +0.005 A 
ATOM     15  C   UNL     1      -2.371   0.781  -0.470  0.00  0.00    +0.023 A 
ATOM     16  C   UNL     1      -1.299   1.511   0.026  0.00  0.00    +0.034 A 
ATOM     17  C   UNL     1      -1.509   2.781   0.546  0.00  0.00    +0.023 A 
ATOM     18  C   UNL     1      -2.781   3.319   0.558  0.00  0.00    +0.005 A 
ENDBRANCH   1  16
BRANCH   4  19
ATOM     19  C   UNL     1       4.754   1.503  -0.160  0.00  0.00    +0.194 C 
BRANCH  19  20
ATOM     20  N   UNL     1       5.221   1.601   1.225  0.00  0.00    -0.217 N 
ATOM     21  C   UNL     1       5.034   0.644   2.157  0.00  0.00    +0.251 C 
ATOM     22  O   UNL     1       4.470  -0.419   2.014  0.00  0.00    -0.272 OA
ATOM     23  C   UNL     1       5.675   1.177   3.419  0.00  0.00    +0.138 C 
ATOM     24  C   UNL     1       6.812   0.264   3.861  0.00  0.00    +0.040 C 
ATOM     25  C   UNL     1       6.207  -1.021   4.439  0.00  0.00    +0.008 C 
ATOM     26  C   UNL     1       5.516  -0.679   5.757  0.00  0.00    +0.035 C 
ATOM     27  C   UNL     1       4.564   0.475   5.575  0.00  0.00    -0.042 A 
ATOM     28  C   UNL     1       4.643   1.334   4.500  0.00  0.00    -0.012 A 
ATOM     29  C   UNL     1       3.744   2.386   4.395  0.00  0.00    +0.006 A 
ATOM     30  C   UNL     1       2.771   2.576   5.355  0.00  0.00    +0.000 A 
ATOM     31  C   UNL     1       2.691   1.713   6.431  0.00  0.00    +0.000 A 
ATOM     32  C   UNL     1       3.584   0.667   6.539  0.00  0.00    +0.004 A 
ATOM     33  N   UNL     1       6.200   2.491   3.022  0.00  0.00    -0.281 N 
ATOM     34  C   UNL     1       5.890   2.648   1.721  0.00  0.00    +0.310 C 
ATOM     35  O   UNL     1       6.183   3.633   1.071  0.00  0.00    -0.252 OA
ATOM     36  H   UNL     1       6.678   3.119   3.585  0.00  0.00    +0.152 HD
ENDBRANCH  19  20
ENDBRANCH   4  19
TORSDOF 3
