REMARK  Name = ZINC06280929
REMARK  9 active torsions:
REMARK  status: ('A' for Active; 'I' for Inactive)
REMARK    1  A    between atoms: C_1  and  C_2
REMARK    2  A    between atoms: C_9  and  C_11
REMARK    3  A    between atoms: C_12  and  C_35
REMARK    4  A    between atoms: C_16  and  C_18
REMARK    5  A    between atoms: C_20  and  O_26
REMARK    6  A    between atoms: C_23  and  O_24
REMARK    7  A    between atoms: O_24  and  C_25
REMARK    8  A    between atoms: O_26  and  C_27
REMARK    9  A    between atoms: C_31  and  C_34
REMARK                            x       y       z     vdW  Elec       q    Type
REMARK                         _______ _______ _______ _____ _____    ______ ____
ROOT
ATOM      1  C   UNL     1       0.542   4.082   1.684  0.00  0.00    +0.043 C 
ATOM      2  C   UNL     1      -0.706   4.450   1.351  0.00  0.00    +0.014 C 
ATOM      3  N   UNL     1      -1.141   4.337   0.060  0.00  0.00    -0.321 N 
ATOM      4  C   UNL     1      -0.245   4.238  -0.971  0.00  0.00    +0.016 C 
ATOM      5  C   UNL     1       1.027   3.856  -0.737  0.00  0.00    +0.024 C 
ATOM      6  C   UNL     1       1.491   3.530   0.661  0.00  0.00    +0.094 C 
ATOM      7  C   UNL     1       1.955   3.747  -1.787  0.00  0.00    +0.162 C 
ATOM      8  O   UNL     1       3.098   3.413  -1.542  0.00  0.00    -0.292 OA
ATOM      9  C   UNL     1       1.560   4.037  -3.209  0.00  0.00    +0.083 C 
ATOM     10  C   UNL     1       0.067   3.738  -3.382  0.00  0.00    -0.001 C 
ATOM     11  C   UNL     1      -0.714   4.571  -2.366  0.00  0.00    +0.055 C 
ATOM     12  C   UNL     1      -0.371   4.108  -4.801  0.00  0.00    +0.008 C 
ATOM     13  C   UNL     1      -1.633   4.992   2.409  0.00  0.00    +0.061 C 
ATOM     14  H   UNL     1      -2.219   4.324  -0.159  0.00  0.00    +0.152 HD
ENDROOT
BRANCH   1  23
ATOM     15  C   UNL     1       3.624   3.933   8.828  0.00  0.00    +0.045 C 
ATOM     16  C   UNL     1       3.270   3.866   7.365  0.00  0.00    -0.032 A 
ATOM     17  C   UNL     1       4.127   3.250   6.463  0.00  0.00    +0.008 A 
ATOM     18  C   UNL     1       3.764   3.210   5.128  0.00  0.00    +0.044 A 
ATOM     19  C   UNL     1       2.560   3.786   4.738  0.00  0.00    +0.125 A 
ATOM     20  N   UNL     1       1.772   4.369   5.627  0.00  0.00    -0.240 NA
ATOM     21  C   UNL     1       2.090   4.417   6.907  0.00  0.00    +0.116 A 
ATOM     22  N   UNL     1       2.182   3.753   3.398  0.00  0.00    -0.267 N 
ATOM     23  C   UNL     1       0.971   4.216   3.027  0.00  0.00    +0.248 C 
ATOM     24  O   UNL     1       0.247   4.750   3.847  0.00  0.00    -0.270 OA
ATOM     25  H   UNL     1       2.871   3.349   2.642  0.00  0.00    +0.157 HD
ENDBRANCH   1  23
BRANCH   6  26
ATOM     26  C   UNL     1       1.574   2.034   0.819  0.00  0.00    +0.010 A 
ATOM     27  C   UNL     1       0.440   1.259   0.663  0.00  0.00    +0.053 A 
ATOM     28  C   UNL     1       0.517  -0.118   0.808  0.00  0.00    +0.121 A 
ATOM     29  C   UNL     1       1.731  -0.718   1.109  0.00  0.00    +0.049 A 
ATOM     30  C   UNL     1       2.864   0.057   1.265  0.00  0.00    +0.049 A 
ATOM     31  C   UNL     1       2.787   1.435   1.120  0.00  0.00    +0.124 A 
BRANCH  31  32
ATOM     32  O   UNL     1       3.903   2.197   1.273  0.00  0.00    -0.495 OA
ATOM     33  C   UNL     1       5.119   1.513   1.582  0.00  0.00    +0.277 C 
ENDBRANCH  31  32
BRANCH  28  34
ATOM     34  O   UNL     1      -0.599  -0.880   0.655  0.00  0.00    -0.495 OA
ATOM     35  C   UNL     1      -0.447  -2.292   0.819  0.00  0.00    +0.277 C 
ENDBRANCH  28  34
ENDBRANCH   6  26
TORSDOF 4
