REMARK  Name = ZINC25589137
REMARK  8 active torsions:
REMARK  status: ('A' for Active; 'I' for Inactive)
REMARK    1  A    between atoms: C_1  and  C_2
REMARK    2  A    between atoms: C_2  and  C_3
REMARK    3  A    between atoms: C_4  and  C_26
REMARK    4  A    between atoms: C_5  and  N_25
REMARK    5  A    between atoms: C_7  and  S_9
REMARK    6  A    between atoms: S_9  and  C_10
REMARK    7  A    between atoms: C_10  and  C_11
REMARK    8  A    between atoms: N_13  and  C_14
REMARK                            x       y       z     vdW  Elec       q    Type
REMARK                         _______ _______ _______ _____ _____    ______ ____
ROOT
ATOM      1  C   UNL     1      -0.280  -7.162  -2.655  0.00  0.00    +0.055 A 
ATOM      2  C   UNL     1      -0.820  -6.859  -3.904  0.00  0.00    +0.043 A 
ATOM      3  C   UNL     1      -1.379  -5.582  -4.096  0.00  0.00    +0.129 A 
ATOM      4  N   UNL     1      -1.370  -4.719  -3.087  0.00  0.00    -0.207 NA
ATOM      5  C   UNL     1      -0.845  -5.051  -1.917  0.00  0.00    +0.191 A 
ATOM      6  N   UNL     1      -0.306  -6.244  -1.703  0.00  0.00    -0.226 NA
ENDROOT
BRANCH   2   7
ATOM      7  C   UNL     1      -0.807  -7.857  -5.000  0.00  0.00    -0.013 A 
ATOM      8  C   UNL     1      -1.535  -9.040  -4.878  0.00  0.00    +0.010 A 
ATOM      9  C   UNL     1      -1.522  -9.964  -5.903  0.00  0.00    +0.020 A 
ATOM     10  C   UNL     1      -0.781  -9.722  -7.047  0.00  0.00    +0.041 A 
ATOM     11  C   UNL     1      -0.052  -8.551  -7.171  0.00  0.00    +0.020 A 
ATOM     12  C   UNL     1      -0.061  -7.619  -6.154  0.00  0.00    +0.010 A 
ATOM     13 CL   UNL     1      -0.764 -10.891  -8.330  0.00  0.00    -0.084 Cl
ENDBRANCH   2   7
BRANCH   3  14
ATOM     14  N   UNL     1      -1.928  -5.231  -5.317  0.00  0.00    -0.343 N 
ATOM     15  H   UNL     1      -2.362  -4.231  -5.458  0.00  0.00    +0.144 HD
ATOM     16  H   UNL     1      -1.929  -5.954  -6.147  0.00  0.00    +0.144 HD
ENDBRANCH   3  14
BRANCH   1  18
ATOM     17  C   UNL     1       1.820  -8.477  -2.741  0.00  0.00    +0.010 C 
ATOM     18  C   UNL     1       0.331  -8.514  -2.395  0.00  0.00    +0.053 C 
ENDBRANCH   1  18
BRANCH   5  19
ATOM     19  S   UNL     1      -0.858  -3.871  -0.608  0.00  0.00    -0.077 S 
BRANCH  19  20
ATOM     20  C   UNL     1      -1.675  -2.487  -1.441  0.00  0.00    +0.173 C 
BRANCH  20  21
ATOM     21  C   UNL     1      -1.798  -1.328  -0.485  0.00  0.00    +0.224 C 
ATOM     22  O   UNL     1      -1.376  -1.428   0.647  0.00  0.00    -0.275 OA
ATOM     23  N   UNL     1      -2.378  -0.181  -0.889  0.00  0.00    -0.308 N 
ATOM     24  H   UNL     1      -2.762  -0.090  -1.916  0.00  0.00    +0.149 HD
BRANCH  23  25
ATOM     25  C   UNL     1      -2.499   0.946   0.040  0.00  0.00    +0.110 C 
ATOM     26  C   UNL     1      -3.672   1.833  -0.385  0.00  0.00    +0.068 C 
ATOM     27  C   UNL     1      -3.598   3.143   0.410  0.00  0.00    +0.231 C 
ATOM     28  O   UNL     1      -2.405   3.833   0.033  0.00  0.00    -0.492 OA
ATOM     29  C   UNL     1      -1.241   3.132   0.026  0.00  0.00    +0.125 A 
ATOM     30  C   UNL     1      -1.223   1.748   0.017  0.00  0.00    +0.014 A 
ATOM     31  C   UNL     1      -0.013   1.076   0.008  0.00  0.00    +0.009 A 
ATOM     32  C   UNL     1       1.176   1.780   0.000  0.00  0.00    +0.001 A 
ATOM     33  C   UNL     1       1.161   3.162   0.008  0.00  0.00    +0.004 A 
ATOM     34  C   UNL     1      -0.042   3.838   0.020  0.00  0.00    +0.046 A 
ENDBRANCH  23  25
ENDBRANCH  20  21
ENDBRANCH  19  20
ENDBRANCH   5  19
TORSDOF 7
