REMARK  Name = ZINC08020209
REMARK  3 active torsions:
REMARK  status: ('A' for Active; 'I' for Inactive)
REMARK    1  A    between atoms: C_1  and  C_2
REMARK    2  A    between atoms: C_8  and  C_25
REMARK    3  A    between atoms: C_19  and  C_21
REMARK                            x       y       z     vdW  Elec       q    Type
REMARK                         _______ _______ _______ _____ _____    ______ ____
ROOT
ATOM      1  C   UNL     1       6.069  -0.540  -0.061  0.00  0.00    +0.044 C 
ATOM      2  C   UNL     1       4.728   0.148  -0.044  0.00  0.00    -0.050 A 
ATOM      3  C   UNL     1       4.672   1.540  -0.036  0.00  0.00    +0.005 A 
ATOM      4  C   UNL     1       3.477   2.195  -0.021  0.00  0.00    +0.029 A 
ATOM      5  C   UNL     1       2.283   1.459  -0.012  0.00  0.00    +0.076 A 
ATOM      6  C   UNL     1       2.342   0.041  -0.020  0.00  0.00    +0.022 A 
ATOM      7  C   UNL     1       3.590  -0.600  -0.036  0.00  0.00    +0.015 A 
ATOM      8  C   UNL     1       1.133  -0.678  -0.013  0.00  0.00    +0.051 A 
ATOM      9  N   UNL     1       0.002  -0.004   0.002  0.00  0.00    -0.219 NA
ATOM     10  C   UNL     1      -0.016   1.327   0.009  0.00  0.00    +0.222 A 
ATOM     11  N   UNL     1       1.084   2.053   0.003  0.00  0.00    -0.214 NA
ATOM     12  N   UNL     1      -1.242   1.976   0.019  0.00  0.00    -0.254 N 
ATOM     13  C   UNL     1      -1.292   3.348   0.026  0.00  0.00    +0.203 A 
ATOM     14  N   UNL     1      -2.501   3.972   0.030  0.00  0.00    -0.295 N 
ATOM     15  H   UNL     1      -3.344   3.433   0.023  0.00  0.00    +0.172 HD
ATOM     16  C   UNL     1      -2.559   5.321   0.043  0.00  0.00    +0.253 A 
ATOM     17  O   UNL     1      -3.634   5.897   0.050  0.00  0.00    -0.268 OA
ATOM     18  C   UNL     1      -1.355   6.049   0.041  0.00  0.00    +0.102 A 
ATOM     19  C   UNL     1      -0.173   5.368   0.032  0.00  0.00    +0.152 A 
ATOM     20  N   UNL     1      -0.169   4.037   0.025  0.00  0.00    -0.212 NA
ATOM     21  C   UNL     1       1.132  -2.185  -0.020  0.00  0.00    +0.066 C 
ATOM     22  H   UNL     1      -2.064   1.460   0.020  0.00  0.00    +0.158 HD
ENDROOT
BRANCH  19  23
ATOM     23  C   UNL     1       1.131   6.124   0.030  0.00  0.00    +0.434 C 
ATOM     24  F   UNL     1       0.872   7.499   0.038  0.00  0.00    -0.164 F 
ATOM     25  F   UNL     1       1.870   5.781   1.167  0.00  0.00    -0.164 F 
ATOM     26  F   UNL     1       1.860   5.793  -1.118  0.00  0.00    -0.164 F 
ENDBRANCH  19  23
TORSDOF 1
