REMARK  Name = ZINC17192327
REMARK  6 active torsions:
REMARK  status: ('A' for Active; 'I' for Inactive)
REMARK    1  A    between atoms: C_4  and  C_7
REMARK    2  A    between atoms: C_12  and  C_15
REMARK    3  A    between atoms: C_15  and  C_16
REMARK    4  A    between atoms: C_16  and  N_17
REMARK    5  A    between atoms: N_17  and  S_18
REMARK    6  A    between atoms: S_18  and  C_21
REMARK                            x       y       z     vdW  Elec       q    Type
REMARK                         _______ _______ _______ _____ _____    ______ ____
ROOT
ATOM      1  C   UNL     1       5.548   1.399  -2.706  0.00  0.00    +0.183 A 
ATOM      2  N   UNL     1       6.262   2.168  -1.875  0.00  0.00    -0.200 NA
ATOM      3  C   UNL     1       5.638   2.264  -0.735  0.00  0.00    +0.196 A 
ATOM      4  N   UNL     1       4.479   1.551  -0.781  0.00  0.00    -0.210 N 
ATOM      5  N   UNL     1       4.458   1.001  -2.089  0.00  0.00    -0.144 NA
ATOM      6  C   UNL     1       3.697   1.549   0.348  0.00  0.00    +0.054 A 
ATOM      7  C   UNL     1       4.068   2.226   1.437  0.00  0.00    +0.072 A 
ATOM      8  S   UNL     1       5.623   2.933   0.912  0.00  0.00    -0.056 S 
ENDROOT
BRANCH   1  12
ATOM      9  C   UNL     1       6.633   0.403  -6.695  0.00  0.00    +0.000 A 
ATOM     10  C   UNL     1       7.461   1.211  -5.937  0.00  0.00    +0.001 A 
ATOM     11  C   UNL     1       7.114   1.538  -4.642  0.00  0.00    +0.011 A 
ATOM     12  C   UNL     1       5.927   1.051  -4.098  0.00  0.00    +0.021 A 
ATOM     13  C   UNL     1       5.099   0.233  -4.864  0.00  0.00    +0.011 A 
ATOM     14  C   UNL     1       5.453  -0.082  -6.161  0.00  0.00    +0.001 A 
ENDBRANCH   1  12
BRANCH   6  15
ATOM     15  C   UNL     1       2.402   0.777   0.357  0.00  0.00    +0.073 C 
BRANCH  15  16
ATOM     16  C   UNL     1       1.248   1.716  -0.001  0.00  0.00    +0.112 C 
BRANCH  16  17
ATOM     17  N   UNL     1      -0.011   0.966   0.007  0.00  0.00    -0.190 NA
ATOM     18  H   UNL     1       0.002  -0.004   0.002  0.00  0.00    +0.148 HD
BRANCH  17  19
ATOM     19  S   UNL     1      -1.456   1.774   0.019  0.00  0.00    +0.058 S 
ATOM     20  O   UNL     1      -2.475   0.784  -0.009  0.00  0.00    -0.153 OA
ATOM     21  O   UNL     1      -1.369   2.749   1.049  0.00  0.00    -0.153 OA
BRANCH  19  22
ATOM     22  C   UNL     1      -1.571   2.658  -1.502  0.00  0.00    +0.105 A 
ATOM     23  C   UNL     1      -1.089   3.950  -1.588  0.00  0.00    +0.029 A 
ATOM     24  C   UNL     1      -1.173   4.642  -2.782  0.00  0.00    +0.016 A 
ATOM     25  C   UNL     1      -1.750   4.044  -3.887  0.00  0.00    +0.013 A 
ATOM     26  C   UNL     1      -2.238   2.753  -3.799  0.00  0.00    +0.016 A 
ATOM     27  C   UNL     1      -2.148   2.060  -2.607  0.00  0.00    +0.029 A 
ATOM     28  I   UNL     1      -1.885   5.094  -5.695  0.00  0.00    -0.044 I 
ENDBRANCH  19  22
ENDBRANCH  17  19
ENDBRANCH  16  17
ENDBRANCH  15  16
ENDBRANCH   6  15
TORSDOF 6
