REMARK  Name = ZINC20112599
REMARK  5 active torsions:
REMARK  status: ('A' for Active; 'I' for Inactive)
REMARK    1  A    between atoms: C_4  and  N_7
REMARK    2  A    between atoms: C_10  and  C_16
REMARK    3  A    between atoms: C_10  and  C_22
REMARK    4  A    between atoms: C_16  and  C_17
REMARK    5  A    between atoms: C_22  and  N_23
REMARK                            x       y       z     vdW  Elec       q    Type
REMARK                         _______ _______ _______ _____ _____    ______ ____
ROOT
ATOM      1  N   UNL     1       2.992  -0.987  -0.146  0.00  0.00    -0.192 N 
ATOM      2  C   UNL     1       3.248  -2.311  -0.058  0.00  0.00    +0.244 C 
ATOM      3  O   UNL     1       2.354  -3.129  -0.047  0.00  0.00    -0.274 OA
ATOM      4  C   UNL     1       4.705  -2.729   0.027  0.00  0.00    +0.143 C 
ATOM      5  C   UNL     1       5.726  -1.607   0.003  0.00  0.00    +0.257 C 
ATOM      6  O   UNL     1       7.041  -1.867   0.072  0.00  0.00    -0.272 OA
ATOM      7  N   UNL     1       5.284  -0.379  -0.087  0.00  0.00    -0.126 NA
ATOM      8  C   UNL     1       3.982  -0.085  -0.163  0.00  0.00    +0.339 C 
ATOM      9  O   UNL     1       3.673   1.089  -0.250  0.00  0.00    -0.250 OA
ENDROOT
BRANCH   1  13
ATOM     10  C   UNL     1      -0.960   0.315  -0.384  0.00  0.00    +0.000 A 
ATOM     11  C   UNL     1      -0.507  -0.675  -1.237  0.00  0.00    +0.002 A 
ATOM     12  C   UNL     1       0.802  -1.108  -1.161  0.00  0.00    +0.024 A 
ATOM     13  C   UNL     1       1.663  -0.549  -0.226  0.00  0.00    +0.045 A 
ATOM     14  C   UNL     1       1.206   0.445   0.628  0.00  0.00    +0.024 A 
ATOM     15  C   UNL     1      -0.105   0.873   0.547  0.00  0.00    +0.002 A 
ENDBRANCH   1  13
BRANCH   4  16
ATOM     16  C   UNL     1       4.899  -3.522   1.321  0.00  0.00    +0.069 C 
BRANCH  16  17
ATOM     17  C   UNL     1       4.538  -2.655   2.500  0.00  0.00    -0.009 A 
ATOM     18  C   UNL     1       3.339  -2.505   3.114  0.00  0.00    +0.011 A 
ATOM     19  C   UNL     1       3.241  -1.645   4.191  0.00  0.00    +0.008 A 
ATOM     20  C   UNL     1       4.347  -0.977   4.602  0.00  0.00    +0.045 A 
ATOM     21  S   UNL     1       5.581  -1.566   3.455  0.00  0.00    -0.102 S 
ENDBRANCH  16  17
ENDBRANCH   4  16
BRANCH   4  22
ATOM     22  C   UNL     1       5.000  -3.666  -1.146  0.00  0.00    +0.110 C 
BRANCH  22  23
ATOM     23  N   UNL     1       4.907  -2.918  -2.407  0.00  0.00    -0.300 NA
ATOM     24  C   UNL     1       6.147  -2.183  -2.676  0.00  0.00    +0.089 C 
ATOM     25  C   UNL     1       6.030  -1.360  -3.950  0.00  0.00    +0.024 C 
ATOM     26  C   UNL     1       5.630  -2.245  -5.134  0.00  0.00    +0.017 C 
ATOM     27  C   UNL     1       4.314  -2.940  -4.768  0.00  0.00    +0.050 C 
ATOM     28  C   UNL     1       4.565  -3.810  -3.525  0.00  0.00    +0.094 C 
ATOM     29  C   UNL     1       3.284  -1.894  -4.405  0.00  0.00    +0.026 A 
ATOM     30  C   UNL     1       1.977  -2.198  -4.625  0.00  0.00    +0.022 A 
ATOM     31  C   UNL     1       0.968  -1.303  -4.253  0.00  0.00    +0.007 A 
ATOM     32  C   UNL     1       1.316  -0.132  -3.645  0.00  0.00    +0.070 A 
ATOM     33  C   UNL     1       2.673   0.148  -3.430  0.00  0.00    +0.251 A 
ATOM     34  O   UNL     1       2.993   1.162  -2.831  0.00  0.00    -0.268 OA
ATOM     35  N   UNL     1       3.633  -0.697  -3.881  0.00  0.00    -0.312 N 
ATOM     36  C   UNL     1       5.016  -0.238  -3.807  0.00  0.00    +0.130 C 
ENDBRANCH  22  23
ENDBRANCH   4  22
TORSDOF 5
