REMARK  Name = ZINC18117029
REMARK  3 active torsions:
REMARK  status: ('A' for Active; 'I' for Inactive)
REMARK    1  A    between atoms: C_4  and  N_10
REMARK    2  A    between atoms: C_6  and  N_7
REMARK    3  A    between atoms: C_11  and  C_12
REMARK                            x       y       z     vdW  Elec       q    Type
REMARK                         _______ _______ _______ _____ _____    ______ ____
ROOT
ATOM      1  C   UNL     1      -0.017   1.379   0.010  0.00  0.00    +0.035 A 
ATOM      2  C   UNL     1       1.168   2.095   0.002  0.00  0.00    +0.043 A 
ATOM      3  C   UNL     1       2.379   1.430  -0.013  0.00  0.00    +0.149 A 
ATOM      4  C   UNL     1       2.404   0.031  -0.021  0.00  0.00    +0.101 A 
ATOM      5  C   UNL     1       1.204  -0.682  -0.013  0.00  0.00    +0.063 A 
ATOM      6  C   UNL     1       0.002  -0.004   0.002  0.00  0.00    +0.128 A 
ATOM      7  F   UNL     1       3.535   2.129  -0.022  0.00  0.00    -0.203 F 
ENDROOT
BRANCH   6   8
ATOM      8  N   UNL     1      -1.271  -0.759   0.011  0.00  0.00    +0.056 N 
ATOM      9  O   UNL     1      -2.325  -0.167   0.024  0.00  0.00    -0.126 OA
ATOM     10  O   UNL     1      -1.257  -1.968   0.004  0.00  0.00    -0.126 OA
ENDBRANCH   6   8
BRANCH   4  11
ATOM     11  N   UNL     1       3.599  -0.634  -0.037  0.00  0.00    -0.252 NA
ATOM     12  C   UNL     1       3.740  -1.707  -0.772  0.00  0.00    +0.126 C 
BRANCH  12  13
ATOM     13  C   UNL     1       4.978  -2.396  -0.789  0.00  0.00    +0.031 A 
ATOM     14  C   UNL     1       5.336  -3.537  -1.496  0.00  0.00    +0.018 A 
ATOM     15  C   UNL     1       6.624  -3.977  -1.306  0.00  0.00    +0.023 A 
ATOM     16  C   UNL     1       7.438  -3.290  -0.466  0.00  0.00    +0.055 A 
ATOM     17  S   UNL     1       6.485  -2.022   0.087  0.00  0.00    -0.081 S 
ATOM     18 BR   UNL     1       9.238  -3.668  -0.024  0.00  0.00    -0.043 Br
ENDBRANCH  12  13
ENDBRANCH   4  11
TORSDOF 3
