REMARK  Name = ZINC43741557
REMARK  5 active torsions:
REMARK  status: ('A' for Active; 'I' for Inactive)
REMARK    1  A    between atoms: C_1  and  C_2
REMARK    2  A    between atoms: N_6  and  N_7
REMARK    3  A    between atoms: C_22  and  C_35
REMARK    4  A    between atoms: C_23  and  O_34
REMARK    5  A    between atoms: C_26  and  C_28
REMARK                            x       y       z     vdW  Elec       q    Type
REMARK                         _______ _______ _______ _____ _____    ______ ____
ROOT
ATOM      1  C   UNL     1      -0.323   0.969   0.064  0.00  0.00    +0.012 C 
ATOM      2  C   UNL     1      -0.436  -0.560   0.074  0.00  0.00    -0.025 C 
ATOM      3  C   UNL     1       0.179  -1.107  -1.222  0.00  0.00    +0.013 C 
ATOM      4  C   UNL     1       1.649  -0.707  -1.338  0.00  0.00    +0.053 C 
ATOM      5  C   UNL     1       2.376  -1.121  -0.079  0.00  0.00    +0.037 C 
ATOM      6  N   UNL     1       3.467  -1.789  -0.140  0.00  0.00    -0.188 NA
ATOM      7  C   UNL     1       1.782  -0.726   1.254  0.00  0.00    +0.056 C 
ATOM      8  C   UNL     1       0.307  -1.127   1.280  0.00  0.00    +0.001 C 
ATOM      9  C   UNL     1       0.202  -2.656   1.276  0.00  0.00    +0.005 C 
ATOM     10  C   UNL     1      -1.284  -3.023   1.431  0.00  0.00    +0.007 C 
ATOM     11  C   UNL     1      -2.049  -2.490   0.234  0.00  0.00    +0.025 C 
ATOM     12  C   UNL     1      -1.907  -0.966   0.108  0.00  0.00    +0.001 C 
ATOM     13  C   UNL     1      -2.711  -0.245   1.178  0.00  0.00    +0.005 C 
ATOM     14  C   UNL     1      -4.208  -0.606   1.050  0.00  0.00    +0.010 C 
ATOM     15  C   UNL     1      -4.359  -2.095   1.233  0.00  0.00    +0.004 C 
ATOM     16  C   UNL     1      -3.509  -2.836   0.183  0.00  0.00    +0.075 C 
ATOM     17  C   UNL     1      -3.924  -4.293   0.436  0.00  0.00    +0.036 C 
ATOM     18  C   UNL     1      -5.471  -4.159   0.552  0.00  0.00    +0.011 C 
ATOM     19  C   UNL     1      -5.751  -2.704   1.009  0.00  0.00    +0.027 C 
ATOM     20  C   UNL     1      -3.988  -2.469   2.676  0.00  0.00    +0.014 C 
ENDROOT
BRANCH   6  21
ATOM     21  N   UNL     1       3.953  -2.225  -1.379  0.00  0.00    -0.191 N 
ATOM     22  C   UNL     1       5.043  -3.016  -1.435  0.00  0.00    +0.317 C 
ATOM     23  O   UNL     1       5.465  -3.395  -2.511  0.00  0.00    -0.251 OA
ATOM     24  N   UNL     1       5.665  -3.388  -0.299  0.00  0.00    -0.312 N 
ATOM     25  H   UNL     1       3.505  -1.958  -2.197  0.00  0.00    +0.179 HD
ATOM     26  H   UNL     1       5.329  -3.086   0.559  0.00  0.00    +0.147 HD
ATOM     27  H   UNL     1       6.449  -3.957  -0.340  0.00  0.00    +0.147 HD
ENDBRANCH   6  21
BRANCH  19  28
ATOM     28  C   UNL     1      -6.561  -1.948  -0.013  0.00  0.00    -0.022 C 
ATOM     29  C   UNL     1      -6.793  -2.316  -1.271  0.00  0.00    +0.094 C 
ATOM     30  C   UNL     1      -7.625  -1.298  -1.920  0.00  0.00    +0.332 C 
ATOM     31  O   UNL     1      -8.011  -1.341  -3.072  0.00  0.00    -0.246 OA
ATOM     32  O   UNL     1      -7.897  -0.308  -1.050  0.00  0.00    -0.457 OA
ATOM     33  C   UNL     1      -7.269  -0.630   0.196  0.00  0.00    +0.264 C 
ENDBRANCH  19  28
BRANCH  16  34
ATOM     34  O   UNL     1      -3.979  -2.488  -1.146  0.00  0.00    -0.388 OA
ATOM     35  H   UNL     1      -3.518  -2.950  -1.860  0.00  0.00    +0.210 HD
ENDBRANCH  16  34
TORSDOF 3
