REMARK  Name = ZINC34707977
REMARK  5 active torsions:
REMARK  status: ('A' for Active; 'I' for Inactive)
REMARK    1  A    between atoms: C_1  and  C_2
REMARK    2  A    between atoms: N_8  and  C_9
REMARK    3  A    between atoms: C_9  and  C_10
REMARK    4  A    between atoms: C_13  and  C_16
REMARK    5  A    between atoms: C_30  and  C_33
REMARK                            x       y       z     vdW  Elec       q    Type
REMARK                         _______ _______ _______ _____ _____    ______ ____
ROOT
ATOM      1  C   UNL     1      -3.251  -1.823   4.803  0.00  0.00    -0.012 C 
ATOM      2  C   UNL     1      -2.588  -2.826   3.857  0.00  0.00    -0.054 C 
ATOM      3  C   UNL     1      -3.629  -3.844   3.380  0.00  0.00    +0.092 C 
ATOM      4  N   UNL     1      -2.945  -4.871   2.580  0.00  0.00    -0.304 N 
ATOM      5  C   UNL     1      -1.749  -5.511   3.150  0.00  0.00    +0.089 C 
ATOM      6  C   UNL     1      -0.796  -4.414   3.637  0.00  0.00    -0.059 C 
ATOM      7  N   UNL     1      -1.508  -3.526   4.564  0.00  0.00    +0.386 N 
ATOM      8  C   UNL     1      -3.409  -5.223   1.336  0.00  0.00    +0.206 A 
ATOM      9  N   UNL     1      -4.676  -5.516   1.200  0.00  0.00    -0.215 NA
ATOM     10  C   UNL     1      -5.210  -5.872   0.004  0.00  0.00    +0.078 A 
ATOM     11  C   UNL     1      -6.566  -6.181  -0.122  0.00  0.00    +0.028 A 
ATOM     12  C   UNL     1      -7.074  -6.539  -1.351  0.00  0.00    +0.002 A 
ATOM     13  C   UNL     1      -6.255  -6.597  -2.470  0.00  0.00    +0.001 A 
ATOM     14  C   UNL     1      -4.913  -6.296  -2.371  0.00  0.00    +0.014 A 
ATOM     15  C   UNL     1      -4.378  -5.932  -1.137  0.00  0.00    +0.045 A 
ATOM     16  C   UNL     1      -2.959  -5.601  -0.971  0.00  0.00    +0.173 A 
ATOM     17  N   UNL     1      -2.528  -5.247   0.290  0.00  0.00    -0.244 N 
ATOM     18  C   UNL     1      -1.187  -4.987   0.158  0.00  0.00    +0.206 A 
ATOM     19  N   UNL     1      -0.877  -5.178  -1.110  0.00  0.00    -0.125 NA
ATOM     20  N   UNL     1      -1.919  -5.548  -1.770  0.00  0.00    -0.128 NA
ATOM     21  H   UNL     1      -1.899  -4.072   5.317  0.00  0.00    -0.081 HD
ENDROOT
BRANCH  18  22
ATOM     22  C   UNL     1      -0.269  -4.573   1.229  0.00  0.00    +0.172 A 
ATOM     23  C   UNL     1       0.330  -5.398   2.134  0.00  0.00    +0.053 A 
ATOM     24  C   UNL     1       1.119  -4.582   2.967  0.00  0.00    +0.042 A 
ATOM     25  C   UNL     1       0.966  -3.313   2.537  0.00  0.00    +0.196 A 
ATOM     26  O   UNL     1       0.132  -3.311   1.484  0.00  0.00    -0.460 OA
ENDBRANCH  18  22
BRANCH   7  27
ATOM     27  C   UNL     1      -0.568  -2.541   5.115  0.00  0.00    -0.042 C 
BRANCH  27  28
ATOM     28  C   UNL     1       0.472  -3.249   5.945  0.00  0.00    -0.064 A 
ATOM     29  C   UNL     1       0.255  -3.461   7.293  0.00  0.00    +0.002 A 
ATOM     30  C   UNL     1       1.209  -4.110   8.054  0.00  0.00    +0.012 A 
ATOM     31  C   UNL     1       2.381  -4.549   7.466  0.00  0.00    +0.055 A 
ATOM     32  C   UNL     1       2.598  -4.338   6.117  0.00  0.00    +0.012 A 
ATOM     33  C   UNL     1       1.642  -3.692   5.355  0.00  0.00    +0.002 A 
BRANCH  31  34
ATOM     34  C   UNL     1       3.421  -5.256   8.295  0.00  0.00    +0.417 C 
ATOM     35  F   UNL     1       3.173  -6.633   8.280  0.00  0.00    -0.166 F 
ATOM     36  F   UNL     1       4.691  -5.005   7.764  0.00  0.00    -0.166 F 
ATOM     37  F   UNL     1       3.366  -4.787   9.612  0.00  0.00    -0.166 F 
ENDBRANCH  31  34
ENDBRANCH  27  28
ENDBRANCH   7  27
TORSDOF 4
