REMARK  Name = ZINC60421862
REMARK  7 active torsions:
REMARK  status: ('A' for Active; 'I' for Inactive)
REMARK    1  A    between atoms: C_1  and  C_2
REMARK    2  A    between atoms: C_5  and  C_8
REMARK    3  A    between atoms: C_10  and  C_13
REMARK    4  A    between atoms: C_14  and  C_15
REMARK    5  A    between atoms: C_14  and  C_17
REMARK    6  A    between atoms: N_23  and  C_24
REMARK    7  A    between atoms: N_23  and  C_25
REMARK                            x       y       z     vdW  Elec       q    Type
REMARK                         _______ _______ _______ _____ _____    ______ ____
ROOT
ATOM      1  C   UNL     1       0.102  -7.359   1.852  0.00  0.00    +0.051 C 
ATOM      2  C   UNL     1       0.096  -6.919   3.157  0.00  0.00    +0.098 C 
ENDROOT
BRANCH   2   3
ATOM      3  C   UNL     1       0.110  -7.895   4.265  0.00  0.00    +0.177 A 
ATOM      4  N   UNL     1       0.133  -9.201   4.003  0.00  0.00    -0.194 NA
ATOM      5  C   UNL     1       0.145 -10.078   5.001  0.00  0.00    +0.217 A 
ATOM      6  N   UNL     1       0.135  -9.653   6.261  0.00  0.00    -0.181 NA
ATOM      7  C   UNL     1       0.112  -8.350   6.524  0.00  0.00    +0.222 A 
ATOM      8  N   UNL     1       0.104  -7.471   5.528  0.00  0.00    -0.194 NA
ATOM      9  N   UNL     1       0.100  -7.911   7.832  0.00  0.00    -0.306 N 
ATOM     10  C   UNL     1       0.113  -8.880   8.931  0.00  0.00    +0.132 C 
ATOM     11  C   UNL     1       0.074  -6.475   8.123  0.00  0.00    +0.132 C 
ATOM     12  N   UNL     1       0.169 -11.432   4.730  0.00  0.00    -0.327 N 
ATOM     13  H   UNL     1       0.177 -11.742   3.811  0.00  0.00    +0.145 HD
ATOM     14  H   UNL     1       0.179 -12.072   5.459  0.00  0.00    +0.145 HD
ENDBRANCH   2   3
BRANCH   1  17
ATOM     15  C   UNL     1       0.061  -4.252  -0.021  0.00  0.00    +0.109 A 
ATOM     16  N   UNL     1       0.072  -5.087   1.000  0.00  0.00    -0.240 NA
ATOM     17  C   UNL     1       0.089  -6.391   0.754  0.00  0.00    +0.073 A 
ATOM     18  C   UNL     1       0.094  -6.818  -0.564  0.00  0.00    +0.075 A 
ATOM     19  S   UNL     1       0.068  -5.366  -1.414  0.00  0.00    -0.075 S 
BRANCH  15  24
ATOM     20  C   UNL     1      -0.018   1.503   0.010  0.00  0.00    +0.044 C 
ATOM     21  C   UNL     1       0.002  -0.004   0.002  0.00  0.00    -0.050 A 
ATOM     22  C   UNL     1       0.006  -0.686  -1.202  0.00  0.00    +0.004 A 
ATOM     23  C   UNL     1       0.025  -2.066  -1.216  0.00  0.00    +0.011 A 
ATOM     24  C   UNL     1       0.041  -2.773  -0.013  0.00  0.00    +0.007 A 
ATOM     25  C   UNL     1       0.037  -2.079   1.197  0.00  0.00    +0.011 A 
ATOM     26  C   UNL     1       0.023  -0.699   1.198  0.00  0.00    +0.004 A 
ENDBRANCH  15  24
ENDBRANCH   1  17
BRANCH   2  27
ATOM     27  C   UNL     1       0.078  -5.515   3.439  0.00  0.00    +0.103 C 
ATOM     28  N   UNL     1       0.063  -4.402   3.663  0.00  0.00    -0.191 NA
ENDBRANCH   2  27
TORSDOF 4
