REMARK  Name = ZINC21230295
REMARK  6 active torsions:
REMARK  status: ('A' for Active; 'I' for Inactive)
REMARK    1  A    between atoms: C_1  and  N_2
REMARK    2  A    between atoms: N_2  and  C_3
REMARK    3  A    between atoms: N_2  and  C_4
REMARK    4  A    between atoms: C_7  and  C_10
REMARK    5  A    between atoms: C_15  and  C_25
REMARK    6  A    between atoms: C_28  and  O_31
REMARK                            x       y       z     vdW  Elec       q    Type
REMARK                         _______ _______ _______ _____ _____    ______ ____
ROOT
ATOM      1  C   UNL     1       7.367  -0.187   0.982  0.00  0.00    +0.032 C 
ATOM      2  C   UNL     1       7.825   1.082   1.698  0.00  0.00    +0.059 C 
ATOM      3  C   UNL     1       6.819   2.198   1.473  0.00  0.00    +0.017 C 
ATOM      4  C   UNL     1       6.120   2.266   0.326  0.00  0.00    +0.036 C 
ATOM      5  C   UNL     1       5.103   3.323  -0.029  0.00  0.00    +0.136 C 
ATOM      6  N   UNL     1       5.086   4.466   0.859  0.00  0.00    -0.331 N 
ATOM      7  C   UNL     1       4.720   4.329   2.197  0.00  0.00    +0.049 A 
ATOM      8  C   UNL     1       3.550   4.886   2.687  0.00  0.00    +0.025 A 
ATOM      9  C   UNL     1       3.169   4.629   3.993  0.00  0.00    +0.002 A 
ATOM     10  C   UNL     1       3.948   3.824   4.804  0.00  0.00    +0.002 A 
ATOM     11  C   UNL     1       5.129   3.284   4.323  0.00  0.00    +0.025 A 
ATOM     12  C   UNL     1       5.521   3.556   3.024  0.00  0.00    +0.052 A 
ATOM     13  N   UNL     1       6.716   3.087   2.493  0.00  0.00    -0.316 N 
ATOM     14  C   UNL     1       6.304   1.287  -0.678  0.00  0.00    +0.163 C 
ATOM     15  O   UNL     1       5.673   1.382  -1.713  0.00  0.00    -0.292 OA
ATOM     16  C   UNL     1       7.251   0.137  -0.512  0.00  0.00    +0.088 C 
ATOM     17  H   UNL     1       5.365   5.461   0.481  0.00  0.00    +0.147 HD
ATOM     18  H   UNL     1       7.625   3.492   2.963  0.00  0.00    +0.152 HD
ENDROOT
BRANCH   1  22
ATOM     19  C   UNL     1      10.235  -3.300   1.575  0.00  0.00    +0.029 A 
ATOM     20  C   UNL     1       8.925  -3.468   2.008  0.00  0.00    +0.023 A 
ATOM     21  C   UNL     1       8.001  -2.460   1.815  0.00  0.00    +0.006 A 
ATOM     22  C   UNL     1       8.378  -1.285   1.191  0.00  0.00    -0.043 A 
ATOM     23  C   UNL     1       9.679  -1.117   0.754  0.00  0.00    +0.006 A 
ATOM     24  C   UNL     1      10.610  -2.118   0.949  0.00  0.00    +0.023 A 
BRANCH  19  26
ATOM     25  C   UNL     1      10.774  -5.563   2.430  0.00  0.00    +0.129 C 
ATOM     26  N   UNL     1      11.172  -4.317   1.770  0.00  0.00    -0.336 N 
ATOM     27  C   UNL     1      12.552  -4.139   1.313  0.00  0.00    +0.129 C 
ENDBRANCH  19  26
ENDBRANCH   1  22
BRANCH   5  28
ATOM     28  C   UNL     1       3.735   2.692  -0.019  0.00  0.00    -0.023 A 
ATOM     29  C   UNL     1       3.221   2.175   1.156  0.00  0.00    +0.009 A 
ATOM     30  C   UNL     1       1.967   1.595   1.167  0.00  0.00    +0.046 A 
ATOM     31  C   UNL     1       1.223   1.532  -0.001  0.00  0.00    +0.117 A 
ATOM     32  C   UNL     1       1.742   2.047  -1.181  0.00  0.00    +0.046 A 
ATOM     33  C   UNL     1       2.994   2.631  -1.185  0.00  0.00    +0.009 A 
BRANCH  31  34
ATOM     34  O   UNL     1      -0.011   0.963   0.007  0.00  0.00    -0.507 OA
ATOM     35  H   UNL     1      -0.601   0.913  -0.920  0.00  0.00    +0.292 HD
ENDBRANCH  31  34
ENDBRANCH   5  28
TORSDOF 4
