REMARK  Name = ZINC15772093
REMARK  7 active torsions:
REMARK  status: ('A' for Active; 'I' for Inactive)
REMARK    1  A    between atoms: C_1  and  C_2
REMARK    2  A    between atoms: C_5  and  N_8
REMARK    3  A    between atoms: C_9  and  C_35
REMARK    4  A    between atoms: C_11  and  C_29
REMARK    5  A    between atoms: C_14  and  S_19
REMARK    6  A    between atoms: S_19  and  C_22
REMARK    7  A    between atoms: C_25  and  C_28
REMARK                            x       y       z     vdW  Elec       q    Type
REMARK                         _______ _______ _______ _____ _____    ______ ____
ROOT
ATOM      1  N   UNL     1       0.403   7.197  -1.236  0.00  0.00    -0.311 N 
ATOM      2  C   UNL     1       1.270   6.192  -1.135  0.00  0.00    +0.055 A 
ATOM      3  C   UNL     1       0.906   4.907  -1.517  0.00  0.00    +0.035 A 
ATOM      4  C   UNL     1      -0.377   4.697  -2.020  0.00  0.00    -0.011 A 
ATOM      5  C   UNL     1      -1.258   5.789  -2.112  0.00  0.00    -0.018 A 
ATOM      6  C   UNL     1      -0.835   7.029  -1.705  0.00  0.00    +0.052 A 
ATOM      7  C   UNL     1      -1.728   8.243  -1.757  0.00  0.00    +0.183 C 
ATOM      8  C   UNL     1      -2.906   8.003  -2.697  0.00  0.00    +0.033 C 
ATOM      9  C   UNL     1      -3.578   6.682  -2.305  0.00  0.00    +0.007 C 
ATOM     10  C   UNL     1      -2.634   5.537  -2.667  0.00  0.00    +0.037 C 
ENDROOT
BRANCH   1  15
ATOM     11  C   UNL     1       2.025  12.365   0.380  0.00  0.00    +0.044 C 
ATOM     12  C   UNL     1       1.592  10.988  -0.051  0.00  0.00    -0.050 A 
ATOM     13  C   UNL     1       2.220  10.371  -1.118  0.00  0.00    +0.005 A 
ATOM     14  C   UNL     1       1.829   9.109  -1.517  0.00  0.00    +0.026 A 
ATOM     15  C   UNL     1       0.798   8.456  -0.843  0.00  0.00    +0.047 A 
ATOM     16  C   UNL     1       0.165   9.085   0.228  0.00  0.00    +0.026 A 
ATOM     17  C   UNL     1       0.569  10.345   0.622  0.00  0.00    +0.005 A 
ENDBRANCH   1  15
BRANCH   4  18
ATOM     18  C   UNL     1      -0.808   3.344  -2.446  0.00  0.00    -0.018 A 
ATOM     19  C   UNL     1      -0.742   2.275  -1.553  0.00  0.00    +0.008 A 
ATOM     20  C   UNL     1      -1.143   1.018  -1.955  0.00  0.00    +0.001 A 
ATOM     21  C   UNL     1      -1.611   0.816  -3.241  0.00  0.00    +0.000 A 
ATOM     22  C   UNL     1      -1.675   1.872  -4.133  0.00  0.00    +0.001 A 
ATOM     23  C   UNL     1      -1.281   3.135  -3.740  0.00  0.00    +0.008 A 
ENDBRANCH   4  18
BRANCH   2  24
ATOM     24  C   UNL     1       2.632   6.445  -0.607  0.00  0.00    -0.001 A 
ATOM     25  C   UNL     1       3.720   5.731  -1.106  0.00  0.00    +0.010 A 
ATOM     26  C   UNL     1       4.986   5.975  -0.613  0.00  0.00    +0.001 A 
ATOM     27  C   UNL     1       5.175   6.917   0.382  0.00  0.00    +0.000 A 
ATOM     28  C   UNL     1       4.098   7.625   0.885  0.00  0.00    +0.001 A 
ATOM     29  C   UNL     1       2.828   7.394   0.396  0.00  0.00    +0.010 A 
ENDBRANCH   2  24
BRANCH   7  30
ATOM     30  S   UNL     1      -0.770   9.665  -2.349  0.00  0.00    +0.005 S 
ATOM     31  O   UNL     1      -0.603  10.612  -1.303  0.00  0.00    -0.169 OA
ATOM     32  O   UNL     1       0.345   9.221  -3.110  0.00  0.00    -0.169 OA
BRANCH  30  33
ATOM     33  C   UNL     1      -1.821  10.464  -3.516  0.00  0.00    +0.089 A 
ATOM     34  C   UNL     1      -1.769  10.107  -4.851  0.00  0.00    +0.027 A 
ATOM     35  C   UNL     1      -2.597  10.731  -5.765  0.00  0.00    +0.005 A 
ATOM     36  C   UNL     1      -3.469  11.719  -5.347  0.00  0.00    -0.050 A 
ATOM     37  C   UNL     1      -3.517  12.079  -4.013  0.00  0.00    +0.005 A 
ATOM     38  C   UNL     1      -2.693  11.452  -3.098  0.00  0.00    +0.027 A 
ATOM     39  C   UNL     1      -4.368  12.402  -6.345  0.00  0.00    +0.044 C 
ENDBRANCH  30  33
ENDBRANCH   7  30
TORSDOF 5
