REMARK  Name = ZINC00361236
REMARK  7 active torsions:
REMARK  status: ('A' for Active; 'I' for Inactive)
REMARK    1  A    between atoms: C_1  and  C_2
REMARK    2  A    between atoms: C_5  and  S_8
REMARK    3  A    between atoms: S_8  and  N_11
REMARK    4  A    between atoms: N_11  and  C_12
REMARK    5  A    between atoms: C_15  and  O_20
REMARK    6  A    between atoms: C_16  and  C_19
REMARK    7  A    between atoms: C_17  and  C_18
REMARK                            x       y       z     vdW  Elec       q    Type
REMARK                         _______ _______ _______ _____ _____    ______ ____
ROOT
ATOM      1  N   UNL     1      -0.011   0.966   0.007  0.00  0.00    -0.216 N 
ATOM      2  H   UNL     1       0.003  -0.002   0.070  0.00  0.00    +0.174 HD
ENDROOT
BRANCH   1   3
ATOM      3  C   UNL     1      -1.232   1.650   0.011  0.00  0.00    +0.053 A 
ATOM      4  C   UNL     1      -1.391   2.792  -0.763  0.00  0.00    +0.048 A 
ATOM      5  C   UNL     1      -2.598   3.464  -0.762  0.00  0.00    +0.084 A 
ATOM      6  C   UNL     1      -3.648   3.004   0.021  0.00  0.00    +0.138 A 
ATOM      7  C   UNL     1      -3.487   1.867   0.799  0.00  0.00    -0.003 A 
ATOM      8  C   UNL     1      -2.282   1.191   0.795  0.00  0.00    -0.022 A 
ATOM      9  C   UNL     1      -2.108  -0.044   1.640  0.00  0.00    +0.046 C 
ATOM     10  C   UNL     1      -4.628   1.369   1.649  0.00  0.00    +0.048 C 
ATOM     11 CL   UNL     1      -2.800   4.887  -1.735  0.00  0.00    -0.080 Cl
BRANCH   6  12
ATOM     12  O   UNL     1      -4.835   3.668   0.025  0.00  0.00    -0.505 OA
ATOM     13  H   UNL     1      -4.896   4.360   0.698  0.00  0.00    +0.292 HD
ENDBRANCH   6  12
ENDBRANCH   1   3
BRANCH   1  14
ATOM     14  S   UNL     1       1.410   1.808  -0.112  0.00  0.00    +0.072 S 
ATOM     15  O   UNL     1       2.458   0.861   0.044  0.00  0.00    -0.150 OA
ATOM     16  O   UNL     1       1.296   2.636  -1.261  0.00  0.00    -0.150 OA
BRANCH  14  21
ATOM     17  C   UNL     1       1.701   5.501   4.650  0.00  0.00    +0.044 C 
ATOM     18  C   UNL     1       1.629   4.579   3.461  0.00  0.00    -0.050 A 
ATOM     19  C   UNL     1       2.153   3.302   3.543  0.00  0.00    +0.005 A 
ATOM     20  C   UNL     1       2.086   2.456   2.452  0.00  0.00    +0.029 A 
ATOM     21  C   UNL     1       1.495   2.886   1.279  0.00  0.00    +0.109 A 
ATOM     22  C   UNL     1       0.975   4.165   1.195  0.00  0.00    +0.029 A 
ATOM     23  C   UNL     1       1.037   5.009   2.288  0.00  0.00    +0.005 A 
ENDBRANCH  14  21
ENDBRANCH   1  14
TORSDOF 4
