REMARK  Name = ZINC32435699
REMARK  4 active torsions:
REMARK  status: ('A' for Active; 'I' for Inactive)
REMARK    1  A    between atoms: C_1  and  C_2
REMARK    2  A    between atoms: C_6  and  S_8
REMARK    3  A    between atoms: S_8  and  N_11
REMARK    4  A    between atoms: C_19  and  C_21
REMARK                            x       y       z     vdW  Elec       q    Type
REMARK                         _______ _______ _______ _____ _____    ______ ____
ROOT
ATOM      1  N   UNL     1      -1.330  -3.878   2.686  0.00  0.00    -0.200 N 
ATOM      2  C   UNL     1      -2.596  -3.321   3.182  0.00  0.00    +0.132 C 
ATOM      3  C   UNL     1      -3.268  -4.389   4.054  0.00  0.00    +0.025 C 
ATOM      4  C   UNL     1      -3.597  -5.602   3.184  0.00  0.00    +0.039 C 
ATOM      5  C   UNL     1      -2.381  -6.044   2.413  0.00  0.00    -0.022 A 
ATOM      6  C   UNL     1      -1.315  -5.187   2.187  0.00  0.00    +0.090 A 
ATOM      7  C   UNL     1      -0.210  -5.624   1.462  0.00  0.00    +0.146 A 
ATOM      8  C   UNL     1      -0.176  -6.913   0.964  0.00  0.00    +0.043 A 
ATOM      9  C   UNL     1      -1.241  -7.766   1.187  0.00  0.00    -0.047 A 
ATOM     10  C   UNL     1      -2.337  -7.336   1.916  0.00  0.00    +0.009 A 
ATOM     11  C   UNL     1      -1.204  -9.172   0.646  0.00  0.00    +0.044 C 
ATOM     12  F   UNL     1       0.829  -4.788   1.244  0.00  0.00    -0.203 F 
ENDROOT
BRANCH   1  13
ATOM     13  S   UNL     1       0.056  -2.971   2.711  0.00  0.00    +0.078 S 
ATOM     14  O   UNL     1      -0.216  -1.836   3.521  0.00  0.00    -0.150 OA
ATOM     15  O   UNL     1       0.491  -2.858   1.363  0.00  0.00    -0.150 OA
BRANCH  13  21
ATOM     16  C   UNL     1       4.649  -5.462   2.847  0.00  0.00    +0.044 C 
ATOM     17  C   UNL     1       3.392  -5.041   3.565  0.00  0.00    -0.048 A 
ATOM     18  C   UNL     1       3.202  -5.394   4.888  0.00  0.00    +0.006 A 
ATOM     19  C   UNL     1       2.050  -5.007   5.548  0.00  0.00    +0.040 A 
ATOM     20  C   UNL     1       1.088  -4.266   4.883  0.00  0.00    +0.150 A 
ATOM     21  C   UNL     1       1.280  -3.913   3.558  0.00  0.00    +0.144 A 
ATOM     22  C   UNL     1       2.435  -4.297   2.902  0.00  0.00    +0.035 A 
ATOM     23  F   UNL     1      -0.038  -3.888   5.527  0.00  0.00    -0.203 F 
ENDBRANCH  13  21
ENDBRANCH   1  13
TORSDOF 2
