REMARK  Name = ZINC00781194
REMARK  8 active torsions:
REMARK  status: ('A' for Active; 'I' for Inactive)
REMARK    1  A    between atoms: C_1  and  C_2
REMARK    2  A    between atoms: C_3  and  C_27
REMARK    3  A    between atoms: C_4  and  C_20
REMARK    4  A    between atoms: C_10  and  C_15
REMARK    5  A    between atoms: C_27  and  O_29
REMARK    6  A    between atoms: O_29  and  C_30
REMARK    7  A    between atoms: C_30  and  C_31
REMARK    8  A    between atoms: C_30  and  C_32
REMARK                            x       y       z     vdW  Elec       q    Type
REMARK                         _______ _______ _______ _____ _____    ______ ____
ROOT
ATOM      1  C   UNL     1       4.706   8.386   3.779  0.00  0.00    +0.061 C 
ATOM      2  C   UNL     1       4.492   7.692   2.459  0.00  0.00    +0.016 C 
ATOM      3  C   UNL     1       4.776   8.334   1.312  0.00  0.00    +0.065 C 
ATOM      4  C   UNL     1       4.584   7.670  -0.020  0.00  0.00    +0.095 C 
ATOM      5  C   UNL     1       3.678   6.471   0.099  0.00  0.00    +0.024 C 
ATOM      6  C   UNL     1       3.436   5.905   1.300  0.00  0.00    +0.016 C 
ATOM      7  N   UNL     1       4.011   6.412   2.435  0.00  0.00    -0.321 N 
ATOM      8  C   UNL     1       2.528   4.707   1.427  0.00  0.00    +0.060 C 
ATOM      9  C   UNL     1       2.600   3.869   0.148  0.00  0.00    +0.039 C 
ATOM     10  C   UNL     1       2.196   4.754  -1.036  0.00  0.00    +0.088 C 
ATOM     11  C   UNL     1       3.095   5.960  -1.074  0.00  0.00    +0.162 C 
ATOM     12  O   UNL     1       3.321   6.502  -2.138  0.00  0.00    -0.292 OA
ATOM     13  H   UNL     1       4.084   5.780   3.332  0.00  0.00    +0.152 HD
ENDROOT
BRANCH   4  14
ATOM     14  C   UNL     1       5.923   7.228  -0.550  0.00  0.00    -0.000 A 
ATOM     15  C   UNL     1       6.675   6.305   0.153  0.00  0.00    +0.007 A 
ATOM     16  C   UNL     1       7.903   5.899  -0.333  0.00  0.00    +0.000 A 
ATOM     17  C   UNL     1       8.382   6.415  -1.523  0.00  0.00    +0.003 A 
ATOM     18  C   UNL     1       7.633   7.338  -2.227  0.00  0.00    +0.038 A 
ATOM     19  C   UNL     1       6.400   7.742  -1.744  0.00  0.00    +0.127 A 
ATOM     20  F   UNL     1       5.664   8.640  -2.434  0.00  0.00    -0.205 F 
ENDBRANCH   4  14
BRANCH   9  21
ATOM     21  C   UNL     1       1.654   2.701   0.254  0.00  0.00    -0.006 A 
ATOM     22  C   UNL     1       1.925   1.375   0.183  0.00  0.00    +0.011 A 
ATOM     23  C   UNL     1       0.886   0.471   0.308  0.00  0.00    +0.008 A 
ATOM     24  C   UNL     1      -0.373   0.939   0.491  0.00  0.00    +0.045 A 
ATOM     25  S   UNL     1      -0.113   2.705   0.503  0.00  0.00    -0.101 S 
ENDBRANCH   9  21
BRANCH   3  26
ATOM     26  C   UNL     1       5.265   9.660   1.363  0.00  0.00    +0.338 C 
ATOM     27  O   UNL     1       5.309  10.252   2.425  0.00  0.00    -0.245 OA
BRANCH  26  28
ATOM     28  O   UNL     1       5.682  10.269   0.233  0.00  0.00    -0.459 OA
BRANCH  28  29
ATOM     29  C   UNL     1       6.163  11.609   0.358  0.00  0.00    +0.171 C 
ATOM     30  C   UNL     1       7.669  11.586   0.625  0.00  0.00    +0.052 C 
ATOM     31  C   UNL     1       5.886  12.373  -0.938  0.00  0.00    +0.052 C 
ENDBRANCH  28  29
ENDBRANCH  26  28
ENDBRANCH   3  26
TORSDOF 5
