REMARK  Name = ZINC63041078
REMARK  7 active torsions:
REMARK  status: ('A' for Active; 'I' for Inactive)
REMARK    1  A    between atoms: C_1  and  C_2
REMARK    2  A    between atoms: C_2  and  C_4
REMARK    3  A    between atoms: C_4  and  C_6
REMARK    4  A    between atoms: C_4  and  C_21
REMARK    5  A    between atoms: C_11  and  N_12
REMARK    6  A    between atoms: C_21  and  C_22
REMARK    7  A    between atoms: C_21  and  C_23
REMARK                            x       y       z     vdW  Elec       q    Type
REMARK                         _______ _______ _______ _____ _____    ______ ____
ROOT
ATOM      1  C   UNL     1       2.279  -0.299   1.296  0.00  0.00    -0.011 A 
ATOM      2  C   UNL     1       3.031  -0.639   0.194  0.00  0.00    +0.034 A 
ATOM      3  C   UNL     1       4.280  -0.046  -0.001  0.00  0.00    +0.078 A 
ATOM      4  C   UNL     1       4.753   0.896   0.939  0.00  0.00    +0.067 A 
ATOM      5  C   UNL     1       3.977   1.226   2.048  0.00  0.00    +0.048 A 
ATOM      6  C   UNL     1       2.745   0.631   2.216  0.00  0.00    +0.131 A 
ATOM      7  C   UNL     1       6.072   1.501   0.705  0.00  0.00    +0.259 A 
ATOM      8  O   UNL     1       6.539   2.319   1.477  0.00  0.00    -0.267 OA
ATOM      9  N   UNL     1       6.749   1.113  -0.401  0.00  0.00    -0.313 N 
ATOM     10  H   UNL     1       7.622   1.492  -0.588  0.00  0.00    +0.170 HD
ATOM     11  C   UNL     1       6.215   0.199  -1.253  0.00  0.00    +0.199 A 
ATOM     12  N   UNL     1       5.054  -0.352  -1.072  0.00  0.00    -0.237 NA
ENDROOT
BRANCH   6  13
ATOM     13  N   UNL     1       1.914   0.984   3.389  0.00  0.00    +0.057 N 
ATOM     14  O   UNL     1       2.366   1.690   4.260  0.00  0.00    -0.126 OA
ATOM     15  O   UNL     1       0.783   0.565   3.476  0.00  0.00    -0.126 OA
ENDBRANCH   6  13
BRANCH   1  16
ATOM     16  C   UNL     1       0.931  -0.940   1.504  0.00  0.00    +0.037 C 
BRANCH  16  18
ATOM     17  C   UNL     1      -0.238   1.250   1.213  0.00  0.00    +0.020 C 
ATOM     18  C   UNL     1      -0.123  -0.184   0.692  0.00  0.00    +0.061 C 
ATOM     19 BR   UNL     1       0.406  -0.153  -1.201  0.00  0.00    -0.088 Br
ENDBRANCH  16  18
BRANCH  16  20
ATOM     20  C   UNL     1       0.983  -2.397   1.042  0.00  0.00    -0.009 C 
ATOM     21  C   UNL     1       2.037  -3.152   1.854  0.00  0.00    +0.008 C 
ATOM     22  C   UNL     1      -0.386  -3.048   1.253  0.00  0.00    +0.008 C 
ENDBRANCH  16  20
ENDBRANCH   1  16
TORSDOF 4
