REMARK  Name = ZINC09424532
REMARK  12 active torsions:
REMARK  status: ('A' for Active; 'I' for Inactive)
REMARK    1  A    between atoms: C_1  and  C_2
REMARK    2  A    between atoms: C_2  and  C_3
REMARK    3  A    between atoms: C_3  and  S_4
REMARK    4  A    between atoms: S_4  and  C_5
REMARK    5  A    between atoms: C_14  and  C_16
REMARK    6  A    between atoms: C_14  and  C_17
REMARK    7  A    between atoms: C_17  and  C_18
REMARK    8  A    between atoms: C_21  and  S_24
REMARK    9  A    between atoms: S_24  and  C_25
REMARK   10  A    between atoms: C_25  and  C_26
REMARK   11  A    between atoms: N_28  and  C_29
REMARK   12  A    between atoms: C_33  and  C_35
REMARK                            x       y       z     vdW  Elec       q    Type
REMARK                         _______ _______ _______ _____ _____    ______ ____
ROOT
ATOM      1  C   UNL     1       4.927  10.657   0.636  0.00  0.00    +0.178 A 
ATOM      2  N   UNL     1       5.665  11.737   0.747  0.00  0.00    -0.216 NA
ATOM      3  C   UNL     1       5.135  12.955   0.830  0.00  0.00    +0.115 A 
ATOM      4  C   UNL     1       3.750  13.173   0.802  0.00  0.00    +0.056 A 
ATOM      5  C   UNL     1       3.321  14.562   0.903  0.00  0.00    -0.019 A 
ATOM      6  C   UNL     1       4.291  15.500   1.012  0.00  0.00    +0.021 A 
ATOM      7  S   UNL     1       5.809  14.591   0.986  0.00  0.00    -0.071 S 
ATOM      8  C   UNL     1       4.085  16.979   1.127  0.00  0.00    +0.203 C 
ATOM      9  O   UNL     1       2.718  17.261   0.786  0.00  0.00    -0.368 OA
ATOM     10  C   UNL     1       1.777  16.416   1.454  0.00  0.00    +0.071 C 
ATOM     11  C   UNL     1       1.856  14.993   0.893  0.00  0.00    +0.071 C 
ATOM     12  C   UNL     1       2.094  16.388   2.950  0.00  0.00    +0.042 C 
ATOM     13  C   UNL     1       2.925  11.952   0.675  0.00  0.00    +0.174 A 
ATOM     14  N   UNL     1       3.560  10.732   0.596  0.00  0.00    -0.248 N 
ATOM     15  C   UNL     1       2.558   9.806   0.488  0.00  0.00    +0.198 A 
ATOM     16  N   UNL     1       1.421  10.462   0.498  0.00  0.00    -0.122 NA
ATOM     17  N   UNL     1       1.635  11.727   0.613  0.00  0.00    -0.128 NA
ENDROOT
BRANCH  10  18
ATOM     18  C   UNL     1       0.364  16.965   1.244  0.00  0.00    +0.032 C 
ATOM     19  C   UNL     1       0.278  18.381   1.819  0.00  0.00    +0.007 C 
ENDBRANCH  10  18
BRANCH   1  20
ATOM     20  S   UNL     1       5.709   9.081   0.533  0.00  0.00    -0.087 S 
BRANCH  20  21
ATOM     21  C   UNL     1       7.445   9.585   0.632  0.00  0.00    +0.077 C 
BRANCH  21  23
ATOM     22  C   UNL     1       9.808   8.773   0.644  0.00  0.00    +0.004 C 
ATOM     23  C   UNL     1       8.341   8.347   0.560  0.00  0.00    +0.008 C 
ENDBRANCH  21  23
ENDBRANCH  20  21
ENDBRANCH   1  20
BRANCH  15  24
ATOM     24  S   UNL     1       2.757   8.061   0.352  0.00  0.00    -0.076 S 
BRANCH  24  25
ATOM     25  C   UNL     1       1.059   7.433   0.245  0.00  0.00    +0.173 C 
BRANCH  25  26
ATOM     26  C   UNL     1       1.085   5.931   0.123  0.00  0.00    +0.227 C 
ATOM     27  O   UNL     1       2.146   5.342   0.111  0.00  0.00    -0.275 OA
ATOM     28  N   UNL     1      -0.069   5.242   0.029  0.00  0.00    -0.285 N 
ATOM     29  H   UNL     1      -0.913   5.715  -0.038  0.00  0.00    +0.155 HD
BRANCH  28  30
ATOM     30  C   UNL     1      -0.051   3.842   0.028  0.00  0.00    +0.034 A 
ATOM     31  C   UNL     1       0.907   3.158   0.765  0.00  0.00    +0.023 A 
ATOM     32  C   UNL     1       0.922   1.778   0.762  0.00  0.00    +0.002 A 
ATOM     33  C   UNL     1      -0.014   1.076   0.025  0.00  0.00    +0.003 A 
ATOM     34  C   UNL     1      -0.966   1.754  -0.714  0.00  0.00    -0.049 A 
ATOM     35  C   UNL     1      -0.990   3.135  -0.711  0.00  0.00    +0.026 A 
ATOM     36  C   UNL     1      -1.981   0.985  -1.521  0.00  0.00    +0.044 C 
ENDBRANCH  28  30
ENDBRANCH  25  26
ENDBRANCH  24  25
ENDBRANCH  15  24
TORSDOF 8
