REMARK  Name = ZINC66277339
REMARK  9 active torsions:
REMARK  status: ('A' for Active; 'I' for Inactive)
REMARK    1  A    between atoms: C_1  and  C_2
REMARK    2  A    between atoms: C_2  and  C_4
REMARK    3  A    between atoms: C_2  and  N_19
REMARK    4  A    between atoms: C_4  and  C_5
REMARK    5  A    between atoms: N_7  and  C_8
REMARK    6  A    between atoms: C_13  and  S_14
REMARK    7  A    between atoms: S_14  and  C_15
REMARK    8  A    between atoms: C_15  and  C_16
REMARK    9  A    between atoms: C_20  and  C_22
REMARK                            x       y       z     vdW  Elec       q    Type
REMARK                         _______ _______ _______ _____ _____    ______ ____
ROOT
ATOM      1  C   UNL     1       0.876  -2.011   1.169  0.00  0.00    +0.219 C 
ATOM      2  O   UNL     1       0.417  -2.616   0.223  0.00  0.00    -0.275 OA
ATOM      3  N   UNL     1       1.491  -2.681   2.163  0.00  0.00    -0.285 N 
ATOM      4  H   UNL     1       1.915  -2.193   2.886  0.00  0.00    +0.155 HD
ENDROOT
BRANCH   3   5
ATOM      5  C   UNL     1       1.518  -4.082   2.151  0.00  0.00    +0.047 A 
ATOM      6  C   UNL     1       1.608  -4.766   0.948  0.00  0.00    +0.024 A 
ATOM      7  C   UNL     1       1.635  -6.148   0.939  0.00  0.00    +0.002 A 
ATOM      8  C   UNL     1       1.573  -6.853   2.127  0.00  0.00    +0.001 A 
ATOM      9  C   UNL     1       1.484  -6.181   3.331  0.00  0.00    +0.016 A 
ATOM     10  C   UNL     1       1.462  -4.793   3.350  0.00  0.00    +0.030 A 
BRANCH  10  11
ATOM     11  S   UNL     1       1.355  -3.932   4.884  0.00  0.00    -0.114 S 
BRANCH  11  12
ATOM     12  C   UNL     1       1.308  -5.253   6.126  0.00  0.00    +0.169 C 
BRANCH  12  13
ATOM     13  C   UNL     1       1.215  -4.646   7.502  0.00  0.00    +0.221 C 
ATOM     14  O   UNL     1       1.184  -3.440   7.632  0.00  0.00    -0.275 OA
ATOM     15  N   UNL     1       1.167  -5.442   8.589  0.00  0.00    -0.329 N 
ATOM     16  H   UNL     1       1.192  -6.406   8.485  0.00  0.00    +0.145 HD
ATOM     17  H   UNL     1       1.107  -5.051   9.474  0.00  0.00    +0.145 HD
ENDBRANCH  12  13
ENDBRANCH  11  12
ENDBRANCH  10  11
ENDBRANCH   3   5
BRANCH   1  18
ATOM     18  C   UNL     1       0.758  -0.510   1.232  0.00  0.00    +0.118 C 
BRANCH  18  20
ATOM     19  C   UNL     1       0.012   1.527  -0.009  0.00  0.00    +0.028 C 
ATOM     20  C   UNL     1       0.023  -0.003  -0.011  0.00  0.00    +0.079 C 
BRANCH  20  21
ATOM     21  N   UNL     1      -1.355  -0.501   0.000  0.00  0.00    -0.312 N 
ATOM     22  C   UNL     1      -2.033  -0.632  -1.157  0.00  0.00    +0.216 C 
ATOM     23  O   UNL     1      -1.503  -0.339  -2.208  0.00  0.00    -0.276 OA
ATOM     24  H   UNL     1      -1.779  -0.735   0.840  0.00  0.00    +0.149 HD
BRANCH  22  25
ATOM     25  C   UNL     1      -3.450  -1.144  -1.146  0.00  0.00    +0.075 C 
ATOM     26  C   UNL     1      -3.481  -2.548  -0.538  0.00  0.00    +0.013 C 
ATOM     27  C   UNL     1      -4.920  -3.068  -0.527  0.00  0.00    +0.001 C 
ATOM     28  C   UNL     1      -5.454  -3.121  -1.959  0.00  0.00    +0.000 C 
ATOM     29  C   UNL     1      -5.424  -1.717  -2.567  0.00  0.00    +0.001 C 
ATOM     30  C   UNL     1      -3.985  -1.197  -2.579  0.00  0.00    +0.013 C 
ENDBRANCH  22  25
ENDBRANCH  20  21
ENDBRANCH  18  20
ENDBRANCH   1  18
TORSDOF 8
