REMARK  Name = ZINC38562176
REMARK  9 active torsions:
REMARK  status: ('A' for Active; 'I' for Inactive)
REMARK    1  A    between atoms: C_1  and  S_2
REMARK    2  A    between atoms: S_2  and  C_3
REMARK    3  A    between atoms: C_8  and  N_9
REMARK    4  A    between atoms: C_10  and  C_12
REMARK    5  A    between atoms: N_14  and  C_15
REMARK    6  A    between atoms: C_15  and  C_16
REMARK    7  A    between atoms: C_16  and  C_17
REMARK    8  A    between atoms: N_23  and  S_24
REMARK    9  A    between atoms: S_24  and  C_27
REMARK                            x       y       z     vdW  Elec       q    Type
REMARK                         _______ _______ _______ _____ _____    ______ ____
ROOT
ATOM      1  C   UNL     1      -1.218  -5.867   1.450  0.00  0.00    +0.299 C 
ATOM      2  O   UNL     1      -2.079  -5.689   0.614  0.00  0.00    -0.265 OA
ATOM      3  N   UNL     1      -0.434  -6.962   1.388  0.00  0.00    -0.308 N 
ATOM      4  H   UNL     1       0.254  -7.104   2.056  0.00  0.00    +0.149 HD
ENDROOT
BRANCH   1   6
ATOM      5  N   UNL     1      -1.812  -3.780   2.612  0.00  0.00    -0.277 N 
ATOM      6  C   UNL     1      -1.028  -4.875   2.549  0.00  0.00    +0.303 C 
ATOM      7  O   UNL     1      -0.167  -5.053   3.386  0.00  0.00    -0.265 OA
ATOM      8  H   UNL     1      -2.544  -3.671   1.985  0.00  0.00    +0.155 HD
BRANCH   5  14
ATOM      9  C   UNL     1      -1.809  -1.457   3.293  0.00  0.00    +0.029 A 
ATOM     10  C   UNL     1      -1.573  -0.492   4.263  0.00  0.00    +0.016 A 
ATOM     11  C   UNL     1      -1.099  -0.864   5.507  0.00  0.00    +0.001 A 
ATOM     12  C   UNL     1      -0.858  -2.196   5.790  0.00  0.00    +0.002 A 
ATOM     13  C   UNL     1      -1.089  -3.164   4.831  0.00  0.00    +0.024 A 
ATOM     14  C   UNL     1      -1.571  -2.802   3.582  0.00  0.00    +0.047 A 
BRANCH   9  16
ATOM     15  C   UNL     1      -2.560   0.819   1.811  0.00  0.00    +0.090 C 
ATOM     16  S   UNL     1      -2.413  -0.986   1.707  0.00  0.00    -0.127 S 
ENDBRANCH   9  16
ENDBRANCH   5  14
ENDBRANCH   1   6
BRANCH   3  17
ATOM     17  C   UNL     1      -0.621  -7.936   0.310  0.00  0.00    +0.106 C 
BRANCH  17  18
ATOM     18  C   UNL     1       0.390  -9.074   0.469  0.00  0.00    +0.039 C 
BRANCH  18  19
ATOM     19  C   UNL     1       0.284 -10.022  -0.727  0.00  0.00    +0.081 C 
ATOM     20  C   UNL     1      -1.160 -10.513  -0.866  0.00  0.00    +0.021 C 
ATOM     21  C   UNL     1      -1.232 -11.566  -1.975  0.00  0.00    +0.003 C 
ATOM     22  C   UNL     1      -0.349 -12.760  -1.605  0.00  0.00    +0.017 C 
ATOM     23  C   UNL     1       1.104 -12.294  -1.474  0.00  0.00    +0.110 C 
ATOM     24  N   UNL     1       1.163 -11.180  -0.516  0.00  0.00    -0.173 NA
BRANCH  24  25
ATOM     25  S   UNL     1       2.195 -11.232   0.778  0.00  0.00    +0.067 S 
ATOM     26  O   UNL     1       3.120 -12.279   0.517  0.00  0.00    -0.152 OA
ATOM     27  O   UNL     1       2.607  -9.895   1.022  0.00  0.00    -0.152 OA
BRANCH  25  28
ATOM     28  C   UNL     1       1.250 -11.732   2.178  0.00  0.00    +0.143 A 
ATOM     29  C   UNL     1       1.014 -12.982   2.647  0.00  0.00    +0.036 A 
ATOM     30  C   UNL     1       0.234 -13.138   3.777  0.00  0.00    +0.010 A 
ATOM     31  C   UNL     1      -0.272 -12.037   4.384  0.00  0.00    +0.047 A 
ATOM     32  S   UNL     1       0.362 -10.724   3.354  0.00  0.00    -0.077 S 
ENDBRANCH  25  28
ENDBRANCH  24  25
ENDBRANCH  18  19
ENDBRANCH  17  18
ENDBRANCH   3  17
TORSDOF 8
