REMARK  Name = ZINC06894661
REMARK  5 active torsions:
REMARK  status: ('A' for Active; 'I' for Inactive)
REMARK    1  A    between atoms: C_1  and  C_2
REMARK    2  A    between atoms: C_2  and  C_3
REMARK    3  A    between atoms: C_2  and  C_4
REMARK    4  A    between atoms: C_7  and  N_10
REMARK    5  A    between atoms: C_11  and  C_13
REMARK                            x       y       z     vdW  Elec       q    Type
REMARK                         _______ _______ _______ _____ _____    ______ ____
ROOT
ATOM      1  C   UNL     1      -3.237   4.011  -1.214  0.00  0.00    +0.076 C 
ATOM      2  C   UNL     1      -4.657   4.333  -0.672  0.00  0.00    -0.003 C 
ATOM      3  C   UNL     1      -4.592   3.735   0.754  0.00  0.00    -0.066 C 
ATOM      4  C   UNL     1      -5.558   4.504   1.669  0.00  0.00    -0.017 C 
ATOM      5  C   UNL     1      -4.630   5.222   2.699  0.00  0.00    -0.020 C 
ATOM      6  C   UNL     1      -3.272   5.293   1.960  0.00  0.00    -0.077 C 
ATOM      7  C   UNL     1      -2.353   4.161   0.034  0.00  0.00    +0.052 C 
ATOM      8  C   UNL     1      -1.242   3.146   0.025  0.00  0.00    -0.027 A 
ATOM      9  C   UNL     1      -1.220   1.769   0.019  0.00  0.00    +0.004 A 
ATOM     10  C   UNL     1      -0.011   1.096   0.013  0.00  0.00    +0.000 A 
ATOM     11  C   UNL     1       1.173   1.810   0.003  0.00  0.00    +0.002 A 
ATOM     12  C   UNL     1       1.156   3.189   0.005  0.00  0.00    +0.023 A 
ATOM     13  C   UNL     1      -0.057   3.874   0.017  0.00  0.00    +0.036 A 
ATOM     14  N   UNL     1      -0.332   5.243   0.023  0.00  0.00    -0.286 N 
ATOM     15  C   UNL     1      -1.654   5.496   0.034  0.00  0.00    +0.212 C 
ATOM     16  O   UNL     1      -2.181   6.588   0.042  0.00  0.00    -0.277 OA
ATOM     17  H   UNL     1       0.351   5.932   0.021  0.00  0.00    +0.155 HD
ATOM     18  N   UNL     1      -3.237   4.024   1.209  0.00  0.00    +0.394 N 
ATOM     19  H   UNL     1      -2.897   3.267   1.813  0.00  0.00    -0.079 HD
ENDROOT
BRANCH   1  21
ATOM     20  N   UNL     1      -2.310   2.292  -2.731  0.00  0.00    -0.285 N 
ATOM     21  C   UNL     1      -3.176   2.603  -1.746  0.00  0.00    +0.220 C 
ATOM     22  O   UNL     1      -3.905   1.749  -1.288  0.00  0.00    -0.275 OA
ATOM     23  H   UNL     1      -1.673   2.954  -3.043  0.00  0.00    +0.155 HD
BRANCH  20  27
ATOM     24  C   UNL     1      -2.368  -1.510  -4.433  0.00  0.00    -0.045 A 
ATOM     25  C   UNL     1      -3.549  -0.922  -4.018  0.00  0.00    +0.006 A 
ATOM     26  C   UNL     1      -3.533   0.339  -3.453  0.00  0.00    +0.023 A 
ATOM     27  C   UNL     1      -2.329   1.015  -3.303  0.00  0.00    +0.033 A 
ATOM     28  C   UNL     1      -1.146   0.424  -3.726  0.00  0.00    +0.023 A 
ATOM     29  C   UNL     1      -1.168  -0.839  -4.285  0.00  0.00    +0.006 A 
BRANCH  24  31
ATOM     30  C   UNL     1      -1.824  -2.817  -6.469  0.00  0.00    +0.012 C 
ATOM     31  C   UNL     1      -2.389  -2.886  -5.048  0.00  0.00    +0.013 C 
ATOM     32  C   UNL     1      -1.536  -3.835  -4.205  0.00  0.00    +0.012 C 
ENDBRANCH  24  31
ENDBRANCH  20  27
ENDBRANCH   1  21
TORSDOF 3
