REMARK  Name = ZINC38754546
REMARK  6 active torsions:
REMARK  status: ('A' for Active; 'I' for Inactive)
REMARK    1  A    between atoms: C_4  and  C_7
REMARK    2  A    between atoms: C_10  and  C_13
REMARK    3  A    between atoms: C_13  and  C_14
REMARK    4  A    between atoms: N_16  and  C_17
REMARK    5  A    between atoms: C_17  and  C_18
REMARK    6  A    between atoms: C_20  and  C_23
REMARK                            x       y       z     vdW  Elec       q    Type
REMARK                         _______ _______ _______ _____ _____    ______ ____
ROOT
ATOM      1  C   UNL     1       7.884  -3.026   1.330  0.00  0.00    +0.218 C 
ATOM      2  O   UNL     1       7.202  -2.651   2.261  0.00  0.00    -0.275 OA
ATOM      3  N   UNL     1       9.043  -3.673   1.562  0.00  0.00    -0.309 N 
ATOM      4  H   UNL     1       9.589  -3.972   0.817  0.00  0.00    +0.149 HD
ENDROOT
BRANCH   1   5
ATOM      5  C   UNL     1       7.434  -2.768  -0.085  0.00  0.00    +0.130 C 
BRANCH   5   9
ATOM      6  C   UNL     1       3.699  -0.689  -0.037  0.00  0.00    -0.018 A 
ATOM      7  C   UNL     1       4.896   0.024  -0.040  0.00  0.00    +0.009 A 
ATOM      8  C   UNL     1       6.099  -0.652  -0.055  0.00  0.00    +0.005 A 
ATOM      9  C   UNL     1       6.118  -2.035  -0.068  0.00  0.00    -0.039 A 
ATOM     10  C   UNL     1       4.932  -2.748  -0.066  0.00  0.00    +0.005 A 
ATOM     11  C   UNL     1       3.724  -2.082  -0.045  0.00  0.00    +0.009 A 
BRANCH   6  15
ATOM     12  C   UNL     1      -0.017   1.379   0.010  0.00  0.00    +0.000 A 
ATOM     13  C   UNL     1       1.169   2.092   0.002  0.00  0.00    +0.001 A 
ATOM     14  C   UNL     1       2.377   1.426  -0.013  0.00  0.00    +0.008 A 
ATOM     15  C   UNL     1       2.402   0.033  -0.021  0.00  0.00    -0.018 A 
ATOM     16  C   UNL     1       1.205  -0.680  -0.013  0.00  0.00    +0.008 A 
ATOM     17  C   UNL     1       0.002  -0.004   0.002  0.00  0.00    +0.001 A 
ENDBRANCH   6  15
ENDBRANCH   5   9
ENDBRANCH   1   5
BRANCH   3  18
ATOM     18  C   UNL     1       9.481  -3.923   2.937  0.00  0.00    +0.163 C 
BRANCH  18  19
ATOM     19  C   UNL     1      10.797  -4.656   2.920  0.00  0.00    +0.101 A 
ATOM     20  C   UNL     1      12.065  -4.067   3.021  0.00  0.00    +0.081 A 
ATOM     21  C   UNL     1      12.996  -5.063   2.967  0.00  0.00    +0.202 A 
ATOM     22  O   UNL     1      12.338  -6.231   2.837  0.00  0.00    -0.351 OA
ATOM     23  N   UNL     1      10.951  -5.947   2.815  0.00  0.00    -0.081 NA
BRANCH  21  24
ATOM     24  C   UNL     1      14.456  -4.891   3.037  0.00  0.00    +0.174 A 
ATOM     25  C   UNL     1      15.364  -5.898   2.975  0.00  0.00    +0.061 A 
ATOM     26  C   UNL     1      16.679  -5.265   3.083  0.00  0.00    +0.021 A 
ATOM     27  C   UNL     1      17.992  -5.741   3.086  0.00  0.00    +0.011 A 
ATOM     28  C   UNL     1      19.031  -4.862   3.207  0.00  0.00    +0.001 A 
ATOM     29  C   UNL     1      18.790  -3.500   3.326  0.00  0.00    +0.004 A 
ATOM     30  C   UNL     1      17.501  -3.011   3.326  0.00  0.00    +0.047 A 
ATOM     31  C   UNL     1      16.429  -3.886   3.204  0.00  0.00    +0.136 A 
ATOM     32  O   UNL     1      15.092  -3.710   3.166  0.00  0.00    -0.452 OA
ENDBRANCH  21  24
ENDBRANCH  18  19
ENDBRANCH   3  18
TORSDOF 6
