REMARK  Name = ZINC56770988
REMARK  9 active torsions:
REMARK  status: ('A' for Active; 'I' for Inactive)
REMARK    1  A    between atoms: C_1  and  C_2
REMARK    2  A    between atoms: C_2  and  C_4
REMARK    3  A    between atoms: C_2  and  N_12
REMARK    4  A    between atoms: C_4  and  C_5
REMARK    5  A    between atoms: C_8  and  O_11
REMARK    6  A    between atoms: N_15  and  C_16
REMARK    7  A    between atoms: N_15  and  C_17
REMARK    8  A    between atoms: C_17  and  C_19
REMARK    9  A    between atoms: C_17  and  C_20
REMARK                            x       y       z     vdW  Elec       q    Type
REMARK                         _______ _______ _______ _____ _____    ______ ____
ROOT
ATOM      1  N   UNL     1       0.606  -0.764   1.405  0.00  0.00    -0.296 N 
ATOM      2  C   UNL     1       1.951  -0.752   1.312  0.00  0.00    +0.303 C 
ATOM      3  O   UNL     1       2.486  -0.360   0.293  0.00  0.00    -0.253 OA
ATOM      4  N   UNL     1       2.702  -1.173   2.348  0.00  0.00    -0.282 N 
ATOM      5  C   UNL     1       2.058  -1.645   3.576  0.00  0.00    +0.134 C 
ATOM      6  H   UNL     1       0.179  -1.077   2.219  0.00  0.00    +0.151 HD
ENDROOT
BRANCH   1   8
ATOM      7  C   UNL     1      -0.367   1.214   0.347  0.00  0.00    +0.028 C 
ATOM      8  C   UNL     1      -0.211  -0.306   0.279  0.00  0.00    +0.076 C 
BRANCH   8   9
ATOM      9  C   UNL     1      -1.590  -0.964   0.348  0.00  0.00    +0.057 C 
BRANCH   9  10
ATOM     10  C   UNL     1      -1.447  -2.452   0.158  0.00  0.00    -0.045 A 
ATOM     11  C   UNL     1      -1.502  -2.994  -1.113  0.00  0.00    +0.007 A 
ATOM     12  C   UNL     1      -1.372  -4.357  -1.290  0.00  0.00    +0.045 A 
ATOM     13  C   UNL     1      -1.185  -5.184  -0.192  0.00  0.00    +0.117 A 
ATOM     14  C   UNL     1      -1.130  -4.638   1.083  0.00  0.00    +0.045 A 
ATOM     15  C   UNL     1      -1.256  -3.273   1.254  0.00  0.00    +0.007 A 
BRANCH  13  16
ATOM     16  O   UNL     1      -1.057  -6.526  -0.363  0.00  0.00    -0.507 OA
ATOM     17  H   UNL     1      -0.145  -6.821  -0.491  0.00  0.00    +0.292 HD
ENDBRANCH  13  16
ENDBRANCH   9  10
ENDBRANCH   8   9
ENDBRANCH   1   8
BRANCH   4  18
ATOM     18  C   UNL     1       4.163  -1.159   2.247  0.00  0.00    +0.106 C 
ATOM     19  C   UNL     1       4.691  -2.595   2.290  0.00  0.00    +0.033 C 
BRANCH  18  20
ATOM     20  C   UNL     1       4.740  -0.378   3.399  0.00  0.00    -0.009 A 
ATOM     21  C   UNL     1       5.319  -1.042   4.464  0.00  0.00    +0.007 A 
ATOM     22  C   UNL     1       5.848  -0.325   5.521  0.00  0.00    +0.000 A 
ATOM     23  C   UNL     1       5.797   1.057   5.514  0.00  0.00    +0.001 A 
ATOM     24  C   UNL     1       5.218   1.722   4.450  0.00  0.00    +0.020 A 
ATOM     25  C   UNL     1       4.694   1.005   3.389  0.00  0.00    +0.046 A 
ATOM     26 CL   UNL     1       3.973   1.840   2.049  0.00  0.00    -0.083 Cl
ENDBRANCH  18  20
ENDBRANCH   4  18
TORSDOF 6
