REMARK  Name = ZINC02822727
REMARK  6 active torsions:
REMARK  status: ('A' for Active; 'I' for Inactive)
REMARK    1  A    between atoms: C_1  and  C_2
REMARK    2  A    between atoms: C_2  and  C_3
REMARK    3  A    between atoms: C_3  and  S_4
REMARK    4  A    between atoms: S_4  and  C_5
REMARK    5  A    between atoms: C_18  and  C_21
REMARK    6  A    between atoms: C_25  and  N_27
REMARK                            x       y       z     vdW  Elec       q    Type
REMARK                         _______ _______ _______ _____ _____    ______ ____
ROOT
ATOM      1  C   UNL     1       4.899   5.163  -0.059  0.00  0.00    +0.212 A 
ATOM      2  N   UNL     1       4.750   4.157   0.798  0.00  0.00    -0.184 NA
ATOM      3  C   UNL     1       3.577   3.554   0.890  0.00  0.00    +0.248 A 
ATOM      4  C   UNL     1       2.519   3.996   0.064  0.00  0.00    +0.156 A 
ATOM      5  N   UNL     1       2.733   5.005  -0.767  0.00  0.00    -0.141 NA
ATOM      6  N   UNL     1       3.891   5.567  -0.822  0.00  0.00    -0.122 NA
ATOM      7  C   UNL     1       1.204   3.328   0.143  0.00  0.00    +0.029 A 
ATOM      8  C   UNL     1       0.024   4.055   0.234  0.00  0.00    +0.027 A 
ATOM      9  C   UNL     1      -1.188   3.393   0.282  0.00  0.00    +0.019 A 
ATOM     10  C   UNL     1      -1.234   2.009   0.233  0.00  0.00    +0.017 A 
ATOM     11  C   UNL     1      -0.065   1.273   0.152  0.00  0.00    +0.025 A 
ATOM     12  C   UNL     1       1.155   1.921   0.109  0.00  0.00    +0.040 A 
ATOM     13  N   UNL     1       2.357   1.209   0.051  0.00  0.00    -0.305 N 
ATOM     14  C   UNL     1       3.243   1.227   1.212  0.00  0.00    +0.294 C 
ATOM     15  O   UNL     1       3.373   2.534   1.757  0.00  0.00    -0.449 OA
ATOM     16 BR   UNL     1      -2.795   4.381   0.408  0.00  0.00    -0.050 Br
ATOM     17  H   UNL     1       2.598   0.711  -0.746  0.00  0.00    +0.150 HD
ENDROOT
BRANCH  14  18
ATOM     18  C   UNL     1       2.687   0.307   2.268  0.00  0.00    +0.013 A 
ATOM     19  C   UNL     1       2.070  -0.874   1.901  0.00  0.00    +0.009 A 
ATOM     20  C   UNL     1       1.560  -1.718   2.870  0.00  0.00    +0.003 A 
ATOM     21  C   UNL     1       1.667  -1.380   4.206  0.00  0.00    +0.033 A 
ATOM     22  C   UNL     1       2.283  -0.199   4.573  0.00  0.00    +0.127 A 
ATOM     23  C   UNL     1       2.798   0.642   3.604  0.00  0.00    +0.041 A 
BRANCH  22  24
ATOM     24  N   UNL     1       2.397   0.163   6.004  0.00  0.00    +0.056 N 
ATOM     25  O   UNL     1       1.948  -0.580   6.858  0.00  0.00    -0.126 OA
ATOM     26  O   UNL     1       2.940   1.204   6.327  0.00  0.00    -0.126 OA
ENDBRANCH  22  24
ENDBRANCH  14  18
BRANCH   1  27
ATOM     27  S   UNL     1       6.459   5.971  -0.185  0.00  0.00    -0.084 S 
BRANCH  27  28
ATOM     28  C   UNL     1       6.074   7.201  -1.456  0.00  0.00    +0.077 C 
BRANCH  28  30
ATOM     29  C   UNL     1       6.992   9.087  -2.815  0.00  0.00    +0.004 C 
ATOM     30  C   UNL     1       7.317   8.047  -1.741  0.00  0.00    +0.008 C 
ENDBRANCH  28  30
ENDBRANCH  27  28
ENDBRANCH   1  27
TORSDOF 5
