REMARK  Name = ZINC02518575
REMARK  7 active torsions:
REMARK  status: ('A' for Active; 'I' for Inactive)
REMARK    1  A    between atoms: C_3  and  C_6
REMARK    2  A    between atoms: C_6  and  O_8
REMARK    3  A    between atoms: O_8  and  C_9
REMARK    4  A    between atoms: C_12  and  C_15
REMARK    5  A    between atoms: N_16  and  N_17
REMARK    6  A    between atoms: C_18  and  C_20
REMARK    7  A    between atoms: N_22  and  C_23
REMARK                            x       y       z     vdW  Elec       q    Type
REMARK                         _______ _______ _______ _____ _____    ______ ____
ROOT
ATOM      1  C   UNL     1      -8.631  -0.355   0.149  0.00  0.00    +0.138 C 
ATOM      2  N   UNL     1      -8.711  -1.650   0.212  0.00  0.00    -0.187 NA
ENDROOT
BRANCH   1   6
ATOM      3  C   UNL     1      -4.831   1.531   0.000  0.00  0.00    +0.132 A 
ATOM      4  C   UNL     1      -4.915   0.146   0.063  0.00  0.00    +0.047 A 
ATOM      5  C   UNL     1      -6.146  -0.471   0.116  0.00  0.00    +0.013 A 
ATOM      6  C   UNL     1      -7.312   0.300   0.097  0.00  0.00    -0.005 A 
ATOM      7  C   UNL     1      -7.223   1.693   0.028  0.00  0.00    +0.013 A 
ATOM      8  C   UNL     1      -5.988   2.301  -0.020  0.00  0.00    +0.047 A 
BRANCH   3   9
ATOM      9  O   UNL     1      -3.615   2.135  -0.047  0.00  0.00    -0.422 OA
BRANCH   9  10
ATOM     10  C   UNL     1      -3.168   2.747   1.069  0.00  0.00    +0.351 C 
ATOM     11  O   UNL     1      -3.885   2.826   2.048  0.00  0.00    -0.244 OA
BRANCH  10  14
ATOM     12  C   UNL     1       0.106   4.409   1.898  0.00  0.00    +0.008 A 
ATOM     13  C   UNL     1      -1.174   3.978   2.136  0.00  0.00    +0.022 A 
ATOM     14  C   UNL     1      -1.819   3.316   1.101  0.00  0.00    +0.097 A 
ATOM     15  S   UNL     1      -0.578   3.340  -0.180  0.00  0.00    -0.090 S 
ATOM     16  C   UNL     1       0.670   4.178   0.683  0.00  0.00    +0.046 A 
ENDBRANCH  10  14
ENDBRANCH   9  10
ENDBRANCH   3   9
ENDBRANCH   1   6
BRANCH   2  17
ATOM     17  N   UNL     1      -9.965  -2.273   0.262  0.00  0.00    -0.199 N 
ATOM     18  C   UNL     1     -10.049  -3.616   0.328  0.00  0.00    +0.318 C 
ATOM     19  O   UNL     1      -9.036  -4.287   0.345  0.00  0.00    -0.263 OA
ATOM     20  H   UNL     1     -10.774  -1.737   0.248  0.00  0.00    +0.178 HD
BRANCH  18  21
ATOM     21  C   UNL     1     -11.383  -4.279   0.381  0.00  0.00    +0.305 C 
ATOM     22  O   UNL     1     -12.395  -3.608   0.364  0.00  0.00    -0.265 OA
ATOM     23  N   UNL     1     -11.466  -5.622   0.447  0.00  0.00    -0.276 N 
ATOM     24  H   UNL     1     -10.661  -6.154   0.541  0.00  0.00    +0.155 HD
BRANCH  23  25
ATOM     25  C   UNL     1     -12.714  -6.249   0.379  0.00  0.00    +0.054 A 
ATOM     26  C   UNL     1     -13.778  -5.616  -0.249  0.00  0.00    +0.044 A 
ATOM     27  C   UNL     1     -15.009  -6.241  -0.318  0.00  0.00    +0.043 A 
ATOM     28  C   UNL     1     -15.184  -7.492   0.247  0.00  0.00    +0.021 A 
ATOM     29  C   UNL     1     -14.128  -8.123   0.878  0.00  0.00    +0.023 A 
ATOM     30  C   UNL     1     -12.893  -7.506   0.946  0.00  0.00    +0.062 A 
ATOM     31 CL   UNL     1     -11.568  -8.300   1.738  0.00  0.00    -0.082 Cl
ATOM     32 CL   UNL     1     -16.338  -5.453  -1.109  0.00  0.00    -0.083 Cl
ENDBRANCH  23  25
ENDBRANCH  18  21
ENDBRANCH   2  17
TORSDOF 7
