REMARK  Name = ZINC54360702
REMARK  8 active torsions:
REMARK  status: ('A' for Active; 'I' for Inactive)
REMARK    1  A    between atoms: C_6  and  C_7
REMARK    2  A    between atoms: N_11  and  C_15
REMARK    3  A    between atoms: C_15  and  C_16
REMARK    4  A    between atoms: C_16  and  C_17
REMARK    5  A    between atoms: C_17  and  C_18
REMARK    6  A    between atoms: N_20  and  C_21
REMARK    7  A    between atoms: C_24  and  O_30
REMARK    8  A    between atoms: C_25  and  C_27
REMARK                            x       y       z     vdW  Elec       q    Type
REMARK                         _______ _______ _______ _____ _____    ______ ____
ROOT
ATOM      1  C   UNL     1      -3.567  -5.419  -1.924  0.00  0.00    +0.029 C 
ENDROOT
BRANCH   1   2
ATOM      2  C   UNL     1      -3.232  -5.194  -0.448  0.00  0.00    +0.115 C 
BRANCH   2   7
ATOM      3  C   UNL     1      -1.728  -0.492   0.048  0.00  0.00    +0.028 C 
ATOM      4  C   UNL     1      -1.605  -1.837  -0.090  0.00  0.00    +0.077 C 
ATOM      5  C   UNL     1      -2.654  -2.871  -0.204  0.00  0.00    +0.258 C 
ATOM      6  O   UNL     1      -3.837  -2.587  -0.184  0.00  0.00    -0.269 OA
ATOM      7  N   UNL     1      -2.242  -4.121  -0.330  0.00  0.00    -0.255 N 
ATOM      8  C   UNL     1      -0.929  -4.431  -0.352  0.00  0.00    +0.121 C 
ATOM      9  S   UNL     1      -0.204  -5.974  -0.507  0.00  0.00    -0.027 S 
ATOM     10  S   UNL     1      -0.131  -2.842  -0.190  0.00  0.00    -0.061 S 
BRANCH   3  16
ATOM     11  C   UNL     1       0.680  -0.167  -0.480  0.00  0.00    +0.011 A 
ATOM     12  C   UNL     1       1.789   0.646  -0.572  0.00  0.00    +0.039 A 
ATOM     13  C   UNL     1       1.699   1.989  -0.239  0.00  0.00    +0.123 A 
ATOM     14  C   UNL     1       0.492   2.524   0.188  0.00  0.00    +0.039 A 
ATOM     15  C   UNL     1      -0.625   1.724   0.283  0.00  0.00    +0.011 A 
ATOM     16  C   UNL     1      -0.541   0.367  -0.051  0.00  0.00    -0.024 A 
ATOM     17  F   UNL     1       2.790   2.779  -0.330  0.00  0.00    -0.205 F 
ENDBRANCH   3  16
ENDBRANCH   2   7
ENDBRANCH   1   2
BRANCH   1  18
ATOM     18  C   UNL     1      -4.602  -6.539  -2.046  0.00  0.00    +0.097 C 
BRANCH  18  19
ATOM     19  C   UNL     1      -4.932  -6.761  -3.500  0.00  0.00    +0.217 C 
ATOM     20  O   UNL     1      -4.392  -6.090  -4.354  0.00  0.00    -0.275 OA
ATOM     21  N   UNL     1      -5.827  -7.706  -3.852  0.00  0.00    -0.285 N 
ATOM     22  H   UNL     1      -6.318  -8.187  -3.167  0.00  0.00    +0.155 HD
BRANCH  21  23
ATOM     23  C   UNL     1      -6.047  -7.994  -5.205  0.00  0.00    +0.034 A 
ATOM     24  C   UNL     1      -5.017  -7.828  -6.126  0.00  0.00    +0.027 A 
ATOM     25  C   UNL     1      -5.223  -8.108  -7.461  0.00  0.00    +0.048 A 
ATOM     26  C   UNL     1      -6.462  -8.558  -7.896  0.00  0.00    +0.131 A 
ATOM     27  C   UNL     1      -7.505  -8.728  -6.974  0.00  0.00    +0.106 A 
ATOM     28  C   UNL     1      -7.286  -8.447  -5.622  0.00  0.00    +0.042 A 
BRANCH  27  29
ATOM     29  C   UNL     1      -8.822  -9.204  -7.426  0.00  0.00    +0.390 C 
ATOM     30  O   UNL     1      -9.730  -9.351  -6.619  0.00  0.00    -0.240 OA
ATOM     31  O   UNL     1      -9.009  -9.454  -8.609  0.00  0.00    -0.240 OA
ENDBRANCH  27  29
BRANCH  26  32
ATOM     32  O   UNL     1      -6.663  -8.833  -9.209  0.00  0.00    -0.506 OA
ATOM     33  H   UNL     1      -6.466  -9.747  -9.454  0.00  0.00    +0.292 HD
ENDBRANCH  26  32
ENDBRANCH  21  23
ENDBRANCH  18  19
ENDBRANCH   1  18
TORSDOF 8
