REMARK  Name = ZINC48912609
REMARK  7 active torsions:
REMARK  status: ('A' for Active; 'I' for Inactive)
REMARK    1  A    between atoms: C_1  and  C_2
REMARK    2  A    between atoms: C_3  and  C_7
REMARK    3  A    between atoms: C_7  and  N_8
REMARK    4  A    between atoms: N_8  and  C_9
REMARK    5  A    between atoms: N_8  and  C_10
REMARK    6  A    between atoms: C_15  and  N_16
REMARK    7  A    between atoms: C_18  and  C_20
REMARK                            x       y       z     vdW  Elec       q    Type
REMARK                         _______ _______ _______ _____ _____    ______ ____
ROOT
ATOM      1  C   UNL     1      -2.887   0.861  -2.023  0.00  0.00    +0.053 A 
ATOM      2  C   UNL     1      -1.697   1.186  -2.632  0.00  0.00    +0.053 A 
ATOM      3  C   UNL     1      -1.534   2.440  -3.260  0.00  0.00    +0.080 A 
ATOM      4  C   UNL     1      -2.638   3.320  -3.227  0.00  0.00    +0.041 A 
ATOM      5  C   UNL     1      -3.826   2.992  -2.619  0.00  0.00    +0.041 A 
ATOM      6  C   UNL     1      -3.964   1.753  -2.013  0.00  0.00    +0.047 A 
ATOM      7  S   UNL     1      -2.012   4.729  -4.105  0.00  0.00    -0.072 S 
ATOM      8  C   UNL     1      -0.473   4.136  -4.436  0.00  0.00    +0.076 A 
ATOM      9  N   UNL     1      -0.462   2.948  -3.905  0.00  0.00    -0.244 NA
ATOM     10  C   UNL     1       0.642   4.824  -5.181  0.00  0.00    +0.073 C 
ENDROOT
BRANCH   6  11
ATOM     11  N   UNL     1      -5.170   1.399  -1.392  0.00  0.00    -0.357 N 
ATOM     12  H   UNL     1      -5.260   0.532  -0.967  0.00  0.00    +0.142 HD
ATOM     13  H   UNL     1      -5.914   2.022  -1.388  0.00  0.00    +0.142 HD
ENDBRANCH   6  11
BRANCH   1  14
ATOM     14  N   UNL     1      -3.024  -0.391  -1.406  0.00  0.00    -0.327 N 
ATOM     15  C   UNL     1      -3.576  -1.521  -2.157  0.00  0.00    +0.129 C 
BRANCH  14  16
ATOM     16  C   UNL     1      -2.615  -0.568  -0.010  0.00  0.00    +0.143 C 
BRANCH  16  19
ATOM     17  C   UNL     1      -0.886  -0.998   2.557  0.00  0.00    +0.086 C 
ATOM     18  C   UNL     1      -0.451  -1.268   1.139  0.00  0.00    +0.106 A 
ATOM     19  C   UNL     1      -1.199  -1.081   0.037  0.00  0.00    +0.010 A 
ATOM     20  C   UNL     1      -0.402  -1.458  -1.068  0.00  0.00    +0.046 A 
ATOM     21  C   UNL     1       0.786  -1.854  -0.575  0.00  0.00    +0.195 A 
ATOM     22  O   UNL     1       0.752  -1.731   0.762  0.00  0.00    -0.468 OA
ENDBRANCH  16  19
ENDBRANCH  14  16
ENDBRANCH   1  14
TORSDOF 4
