REMARK  Name = ZINC12503425
REMARK  11 active torsions:
REMARK  status: ('A' for Active; 'I' for Inactive)
REMARK    1  A    between atoms: C_1  and  C_2
REMARK    2  A    between atoms: C_7  and  O_8
REMARK    3  A    between atoms: O_8  and  C_9
REMARK    4  A    between atoms: C_9  and  C_10
REMARK    5  A    between atoms: N_12  and  C_13
REMARK    6  A    between atoms: C_13  and  N_15
REMARK    7  A    between atoms: N_15  and  N_16
REMARK    8  A    between atoms: C_17  and  C_19
REMARK    9  A    between atoms: C_19  and  C_20
REMARK   10  A    between atoms: C_20  and  C_21
REMARK   11  A    between atoms: N_23  and  C_24
REMARK                            x       y       z     vdW  Elec       q    Type
REMARK                         _______ _______ _______ _____ _____    ______ ____
ROOT
ATOM      1  N   UNL     1       6.131   1.829   0.006  0.00  0.00    -0.246 N 
ATOM      2  H   UNL     1       6.119   2.799   0.015  0.00  0.00    +0.172 HD
ENDROOT
BRANCH   1   3
ATOM      3  N   UNL     1       4.927   1.112   0.003  0.00  0.00    -0.235 N 
ATOM      4  C   UNL     1       3.751   1.771   0.011  0.00  0.00    +0.230 C 
ATOM      5  O   UNL     1       3.736   2.983   0.022  0.00  0.00    -0.274 OA
ATOM      6  H   UNL     1       4.940   0.142  -0.005  0.00  0.00    +0.173 HD
BRANCH   4   7
ATOM      7  C   UNL     1       2.456   1.000   0.008  0.00  0.00    +0.106 C 
BRANCH   7   8
ATOM      8  C   UNL     1       1.280   1.979   0.019  0.00  0.00    +0.105 C 
BRANCH   8   9
ATOM      9  C   UNL     1      -0.015   1.208   0.015  0.00  0.00    +0.218 C 
ATOM     10  O   UNL     1       0.001  -0.005   0.005  0.00  0.00    -0.275 OA
ATOM     11  N   UNL     1      -1.191   1.867   0.018  0.00  0.00    -0.284 N 
ATOM     12  H   UNL     1      -1.205   2.834   0.092  0.00  0.00    +0.155 HD
BRANCH  11  13
ATOM     13  C   UNL     1      -2.392   1.155  -0.086  0.00  0.00    +0.052 A 
ATOM     14  C   UNL     1      -2.510  -0.099   0.499  0.00  0.00    +0.026 A 
ATOM     15  C   UNL     1      -3.696  -0.799   0.395  0.00  0.00    +0.022 A 
ATOM     16  C   UNL     1      -4.766  -0.253  -0.291  0.00  0.00    +0.042 A 
ATOM     17  C   UNL     1      -4.652   0.996  -0.876  0.00  0.00    +0.041 A 
ATOM     18  C   UNL     1      -3.470   1.704  -0.770  0.00  0.00    +0.064 A 
ATOM     19 CL   UNL     1      -3.329   3.274  -1.497  0.00  0.00    -0.082 Cl
ATOM     20 CL   UNL     1      -6.255  -1.136  -0.420  0.00  0.00    -0.083 Cl
ENDBRANCH  11  13
ENDBRANCH   8   9
ENDBRANCH   7   8
ENDBRANCH   4   7
ENDBRANCH   1   3
BRANCH   1  21
ATOM     21  C   UNL     1       7.307   1.170  -0.002  0.00  0.00    +0.153 C 
ATOM     22  S   UNL     1       8.778   2.046   0.002  0.00  0.00    -0.017 S 
BRANCH  21  25
ATOM     23  C   UNL     1       8.501  -0.836  -0.022  0.00  0.00    +0.256 C 
ATOM     24  O   UNL     1       9.543  -0.216  -0.019  0.00  0.00    -0.272 OA
ATOM     25  N   UNL     1       7.325  -0.177  -0.013  0.00  0.00    -0.264 N 
ATOM     26  H   UNL     1       6.492  -0.673  -0.016  0.00  0.00    +0.157 HD
BRANCH  23  27
ATOM     27  C   UNL     1       8.521  -2.343  -0.035  0.00  0.00    +0.325 C 
BRANCH  27  28
ATOM     28  O   UNL     1       9.874  -2.801  -0.041  0.00  0.00    -0.482 OA
BRANCH  28  35
ATOM     29  C   UNL     1      12.542  -3.728  -0.068  0.00  0.00    +0.047 C 
ATOM     30  C   UNL     1      11.358  -4.660  -0.066  0.00  0.00    -0.007 A 
ATOM     31  C   UNL     1      11.555  -6.028  -0.073  0.00  0.00    +0.027 A 
ATOM     32  C   UNL     1      10.469  -6.884  -0.079  0.00  0.00    +0.041 A 
ATOM     33  C   UNL     1       9.183  -6.373  -0.071  0.00  0.00    +0.023 A 
ATOM     34  C   UNL     1       8.982  -5.006  -0.058  0.00  0.00    +0.047 A 
ATOM     35  C   UNL     1      10.070  -4.146  -0.053  0.00  0.00    +0.124 A 
ATOM     36 CL   UNL     1      10.719  -8.602  -0.094  0.00  0.00    -0.084 Cl
ENDBRANCH  28  35
ENDBRANCH  27  28
ENDBRANCH  23  27
ENDBRANCH  21  25
ENDBRANCH   1  21
TORSDOF 10
