REMARK  Name = ZINC12985261
REMARK  9 active torsions:
REMARK  status: ('A' for Active; 'I' for Inactive)
REMARK    1  A    between atoms: C_1  and  C_2
REMARK    2  A    between atoms: C_2  and  N_53
REMARK    3  A    between atoms: C_3  and  C_4
REMARK    4  A    between atoms: C_3  and  N_53
REMARK    5  A    between atoms: N_6  and  C_7
REMARK    6  A    between atoms: C_15  and  C_16
REMARK    7  A    between atoms: C_15  and  N_53
REMARK    8  A    between atoms: N_18  and  C_19
REMARK    9  A    between atoms: C_25  and  C_27
REMARK                            x       y       z     vdW  Elec       q    Type
REMARK                         _______ _______ _______ _____ _____    ______ ____
ROOT
ATOM      1  N   UNL     1      -0.154  -0.026   0.851  0.00  0.00    +0.391 N 
ATOM      2  H   UNL     1       0.397  -0.743   0.364  0.00  0.00    -0.080 HD
ENDROOT
BRANCH   1   4
ATOM      3  C   UNL     1      -0.354   1.274   2.944  0.00  0.00    -0.017 C 
ATOM      4  C   UNL     1       0.420   0.187   2.197  0.00  0.00    -0.081 C 
ENDBRANCH   1   4
BRANCH   1   5
ATOM      5  C   UNL     1      -0.101   1.231   0.075  0.00  0.00    +0.020 C 
BRANCH   5   6
ATOM      6  C   UNL     1       1.341   1.562  -0.215  0.00  0.00    +0.201 C 
ATOM      7  O   UNL     1       2.224   0.840   0.196  0.00  0.00    -0.278 OA
ATOM      8  N   UNL     1       1.648   2.662  -0.930  0.00  0.00    -0.283 N 
ATOM      9  H   UNL     1       0.943   3.254  -1.237  0.00  0.00    +0.155 HD
BRANCH   8  10
ATOM     10  C   UNL     1       2.986   2.951  -1.232  0.00  0.00    +0.105 A 
ATOM     11  C   UNL     1       3.428   4.269  -1.248  0.00  0.00    +0.147 A 
ATOM     12  C   UNL     1       4.751   4.549  -1.539  0.00  0.00    +0.040 A 
ATOM     13  C   UNL     1       5.631   3.521  -1.826  0.00  0.00    +0.006 A 
ATOM     14  C   UNL     1       5.193   2.210  -1.817  0.00  0.00    +0.040 A 
ATOM     15  C   UNL     1       3.873   1.921  -1.520  0.00  0.00    +0.147 A 
ATOM     16  F   UNL     1       3.447   0.639  -1.511  0.00  0.00    -0.203 F 
ATOM     17  F   UNL     1       2.568   5.274  -0.974  0.00  0.00    -0.203 F 
ENDBRANCH   8  10
ENDBRANCH   5   6
ENDBRANCH   1   5
BRANCH   1  18
ATOM     18  C   UNL     1      -1.552  -0.490   0.966  0.00  0.00    +0.019 C 
BRANCH  18  19
ATOM     19  C   UNL     1      -1.550  -1.925   1.426  0.00  0.00    +0.197 C 
ATOM     20  O   UNL     1      -0.502  -2.526   1.534  0.00  0.00    -0.278 OA
ATOM     21  N   UNL     1      -2.713  -2.542   1.717  0.00  0.00    -0.314 N 
ATOM     22  H   UNL     1      -3.551  -2.061   1.631  0.00  0.00    +0.149 HD
BRANCH  21  23
ATOM     23  C   UNL     1      -2.710  -3.937   2.165  0.00  0.00    +0.076 C 
ATOM     24  C   UNL     1      -2.474  -3.987   3.676  0.00  0.00    +0.022 C 
ATOM     25  C   UNL     1      -2.472  -5.444   4.143  0.00  0.00    +0.002 C 
ATOM     26  C   UNL     1      -3.821  -6.087   3.816  0.00  0.00    +0.000 C 
ATOM     27  C   UNL     1      -4.057  -6.036   2.305  0.00  0.00    +0.005 C 
ATOM     28  C   UNL     1      -4.060  -4.579   1.838  0.00  0.00    +0.006 C 
ATOM     29  C   UNL     1      -4.296  -4.529   0.327  0.00  0.00    +0.009 C 
ENDBRANCH  21  23
ENDBRANCH  18  19
ENDBRANCH   1  18
TORSDOF 7
