REMARK  Name = ZINC05360516
REMARK  7 active torsions:
REMARK  status: ('A' for Active; 'I' for Inactive)
REMARK    1  A    between atoms: C_1  and  O_2
REMARK    2  A    between atoms: O_2  and  C_3
REMARK    3  A    between atoms: C_6  and  C_9
REMARK    4  A    between atoms: C_12  and  C_24
REMARK    5  A    between atoms: N_14  and  C_15
REMARK    6  A    between atoms: C_18  and  C_21
REMARK    7  A    between atoms: N_22  and  N_23
REMARK                            x       y       z     vdW  Elec       q    Type
REMARK                         _______ _______ _______ _____ _____    ______ ____
ROOT
ATOM      1  C   UNL     1       2.338   4.356   0.003  0.00  0.00    +0.134 C 
ATOM      2  C   UNL     1       1.738   5.776   0.015  0.00  0.00    +0.087 C 
ATOM      3  C   UNL     1       0.245   5.540   0.028  0.00  0.00    +0.069 C 
ATOM      4  N   UNL     1       0.009   4.272   0.018  0.00  0.00    -0.183 NA
ATOM      5  N   UNL     1       1.155   3.481   0.009  0.00  0.00    -0.216 N 
ENDROOT
BRANCH   3   6
ATOM      6  C   UNL     1      -0.783   6.596   0.043  0.00  0.00    -0.002 A 
ATOM      7  C   UNL     1      -0.407   7.942   0.051  0.00  0.00    +0.011 A 
ATOM      8  C   UNL     1      -1.373   8.925   0.058  0.00  0.00    +0.020 A 
ATOM      9  C   UNL     1      -2.715   8.582   0.069  0.00  0.00    +0.041 A 
ATOM     10  C   UNL     1      -3.095   7.250   0.067  0.00  0.00    +0.020 A 
ATOM     11  C   UNL     1      -2.139   6.257   0.054  0.00  0.00    +0.011 A 
ATOM     12 CL   UNL     1      -3.926   9.826   0.085  0.00  0.00    -0.084 Cl
ENDBRANCH   3   6
BRANCH   1  16
ATOM     13  C   UNL     1       4.722   3.689   3.487  0.00  0.00    +0.120 A 
ATOM     14  C   UNL     1       5.331   3.923   2.262  0.00  0.00    +0.046 A 
ATOM     15  C   UNL     1       4.558   4.138   1.138  0.00  0.00    +0.009 A 
ATOM     16  C   UNL     1       3.179   4.120   1.231  0.00  0.00    -0.025 A 
ATOM     17  C   UNL     1       2.569   3.893   2.451  0.00  0.00    +0.009 A 
ATOM     18  C   UNL     1       3.337   3.671   3.578  0.00  0.00    +0.046 A 
BRANCH  13  20
ATOM     19  C   UNL     1       4.785   3.242   5.821  0.00  0.00    +0.277 C 
ATOM     20  O   UNL     1       5.480   3.477   4.594  0.00  0.00    -0.495 OA
ENDBRANCH  13  20
ENDBRANCH   1  16
BRANCH   5  21
ATOM     21  C   UNL     1       1.178   2.087   0.002  0.00  0.00    +0.052 A 
ATOM     22  C   UNL     1      -0.017   1.373   0.010  0.00  0.00    +0.025 A 
ATOM     23  C   UNL     1       0.002  -0.004   0.002  0.00  0.00    +0.011 A 
ATOM     24  C   UNL     1       1.223  -0.685  -0.013  0.00  0.00    -0.005 A 
ATOM     25  C   UNL     1       2.421   0.035  -0.021  0.00  0.00    +0.011 A 
ATOM     26  C   UNL     1       2.395   1.412  -0.013  0.00  0.00    +0.025 A 
BRANCH  24  27
ATOM     27  C   UNL     1       1.246  -2.159  -0.021  0.00  0.00    +0.137 C 
ATOM     28  N   UNL     1       2.381  -2.789  -0.035  0.00  0.00    -0.197 NA
BRANCH  28  29
ATOM     29  N   UNL     1       2.403  -4.190  -0.043  0.00  0.00    -0.283 N 
ATOM     30  H   UNL     1       1.571  -4.689  -0.037  0.00  0.00    +0.164 HD
ATOM     31  H   UNL     1       3.251  -4.662  -0.053  0.00  0.00    +0.164 HD
ENDBRANCH  28  29
ENDBRANCH  24  27
ENDBRANCH   5  21
TORSDOF 6
