REMARK  Name = ZINC36643340
REMARK  7 active torsions:
REMARK  status: ('A' for Active; 'I' for Inactive)
REMARK    1  A    between atoms: C_1  and  N_2
REMARK    2  A    between atoms: N_2  and  C_3
REMARK    3  A    between atoms: N_2  and  C_4
REMARK    4  A    between atoms: C_4  and  C_5
REMARK    5  A    between atoms: C_5  and  C_6
REMARK    6  A    between atoms: C_6  and  N_7
REMARK    7  A    between atoms: C_18  and  C_20
REMARK                            x       y       z     vdW  Elec       q    Type
REMARK                         _______ _______ _______ _____ _____    ______ ____
ROOT
ATOM      1  N   UNL     1      -2.752  -4.027  -0.241  0.00  0.00    -0.246 N 
ATOM      2  C   UNL     1      -2.616  -4.821   0.885  0.00  0.00    +0.168 A 
ATOM      3  N   UNL     1      -2.455  -4.455   2.135  0.00  0.00    -0.224 NA
ATOM      4  C   UNL     1      -2.335  -5.347   3.142  0.00  0.00    +0.080 A 
ATOM      5  C   UNL     1      -2.157  -5.088   4.521  0.00  0.00    +0.030 A 
ATOM      6  C   UNL     1      -2.051  -6.117   5.419  0.00  0.00    +0.017 A 
ATOM      7  C   UNL     1      -2.114  -7.443   5.013  0.00  0.00    +0.019 A 
ATOM      8  C   UNL     1      -2.288  -7.733   3.672  0.00  0.00    +0.032 A 
ATOM      9  C   UNL     1      -2.394  -6.708   2.765  0.00  0.00    +0.042 A 
ATOM     10  S   UNL     1      -2.624  -6.604   1.007  0.00  0.00    -0.052 S 
ATOM     11 BR   UNL     1      -1.964  -8.839   6.281  0.00  0.00    -0.050 Br
ATOM     12  C   UNL     1      -2.917  -4.597  -1.452  0.00  0.00    +0.254 C 
ATOM     13  O   UNL     1      -3.017  -5.806  -1.546  0.00  0.00    -0.270 OA
ENDROOT
BRANCH  12  14
ATOM     14  C   UNL     1      -2.976  -3.758  -2.657  0.00  0.00    +0.064 A 
ATOM     15  C   UNL     1      -3.941  -2.691  -2.790  0.00  0.00    +0.042 A 
ATOM     16  C   UNL     1      -3.890  -1.997  -3.945  0.00  0.00    +0.080 A 
ATOM     17  S   UNL     1      -2.559  -2.779  -4.830  0.00  0.00    -0.064 S 
ATOM     18  C   UNL     1      -2.110  -3.948  -3.713  0.00  0.00    +0.091 A 
ATOM     19 CL   UNL     1      -0.845  -5.129  -3.856  0.00  0.00    -0.075 Cl
ATOM     20 CL   UNL     1      -4.882  -0.663  -4.446  0.00  0.00    -0.076 Cl
ENDBRANCH  12  14
BRANCH   1  21
ATOM     21  C   UNL     1      -2.717  -2.568  -0.118  0.00  0.00    +0.114 C 
BRANCH  21  22
ATOM     22  C   UNL     1      -1.264  -2.089  -0.144  0.00  0.00    +0.001 C 
BRANCH  22  23
ATOM     23  C   UNL     1      -1.227  -0.565  -0.015  0.00  0.00    -0.078 C 
BRANCH  23  25
ATOM     24  C   UNL     1       0.200   1.364  -0.036  0.00  0.00    -0.097 C 
ATOM     25  N   UNL     1       0.168  -0.105  -0.040  0.00  0.00    +0.376 N 
ATOM     26  C   UNL     1       0.873  -0.613   1.145  0.00  0.00    -0.097 C 
ATOM     27  H   UNL     1       0.621  -0.449  -0.873  0.00  0.00    -0.083 HD
ENDBRANCH  23  25
ENDBRANCH  22  23
ENDBRANCH  21  22
ENDBRANCH   1  21
TORSDOF 5
