REMARK  Name = ZINC59507547
REMARK  7 active torsions:
REMARK  status: ('A' for Active; 'I' for Inactive)
REMARK    1  A    between atoms: C_7  and  C_11
REMARK    2  A    between atoms: N_12  and  N_13
REMARK    3  A    between atoms: C_14  and  C_16
REMARK    4  A    between atoms: C_16  and  C_17
REMARK    5  A    between atoms: C_17  and  C_18
REMARK    6  A    between atoms: C_18  and  N_19
REMARK    7  A    between atoms: N_19  and  C_20
REMARK                            x       y       z     vdW  Elec       q    Type
REMARK                         _______ _______ _______ _____ _____    ______ ____
ROOT
ATOM      1  N   UNL     1      -1.460  -4.170  -0.006  0.00  0.00    -0.207 N 
ATOM      2  C   UNL     1      -2.794  -3.977   0.009  0.00  0.00    +0.232 C 
ATOM      3  O   UNL     1      -3.243  -2.849   0.020  0.00  0.00    -0.274 OA
ATOM      4  H   UNL     1      -1.101  -5.071  -0.014  0.00  0.00    +0.177 HD
ENDROOT
BRANCH   1   6
ATOM      5  C   UNL     1       0.693  -3.256  -0.022  0.00  0.00    +0.140 C 
ATOM      6  N   UNL     1      -0.593  -3.070  -0.008  0.00  0.00    -0.188 NA
BRANCH   5  13
ATOM      7  C   UNL     1      -0.017   1.373   0.010  0.00  0.00    +0.001 A 
ATOM      8  C   UNL     1       1.172   2.090   0.002  0.00  0.00    +0.002 A 
ATOM      9  C   UNL     1       2.385   1.438  -0.013  0.00  0.00    +0.026 A 
ATOM     10  C   UNL     1       2.425   0.047  -0.021  0.00  0.00    +0.047 A 
ATOM     11  C   UNL     1       1.222  -0.677  -0.013  0.00  0.00    +0.008 A 
ATOM     12  C   UNL     1       0.002  -0.004   0.002  0.00  0.00    +0.010 A 
ATOM     13  C   UNL     1       1.604  -2.101  -0.025  0.00  0.00    +0.020 A 
ATOM     14  C   UNL     1       2.964  -2.137  -0.039  0.00  0.00    +0.093 A 
ATOM     15  N   UNL     1       3.458  -0.867  -0.037  0.00  0.00    -0.360 N 
ATOM     16  H   UNL     1       4.401  -0.638  -0.045  0.00  0.00    +0.165 HD
ENDBRANCH   5  13
ENDBRANCH   1   6
BRANCH   2  17
ATOM     17  C   UNL     1      -3.727  -5.160   0.012  0.00  0.00    +0.099 C 
BRANCH  17  18
ATOM     18  C   UNL     1      -5.175  -4.667   0.029  0.00  0.00    +0.028 C 
BRANCH  18  19
ATOM     19  C   UNL     1      -6.123  -5.869   0.032  0.00  0.00    +0.102 C 
BRANCH  19  20
ATOM     20  N   UNL     1      -7.510  -5.397   0.048  0.00  0.00    -0.344 N 
ATOM     21  H   UNL     1      -7.698  -4.446   0.056  0.00  0.00    +0.146 HD
BRANCH  20  22
ATOM     22  C   UNL     1      -8.560  -6.318   0.054  0.00  0.00    +0.027 A 
ATOM     23  C   UNL     1      -8.292  -7.681   0.049  0.00  0.00    +0.024 A 
ATOM     24  C   UNL     1      -9.333  -8.588   0.054  0.00  0.00    +0.017 A 
ATOM     25  C   UNL     1     -10.642  -8.141   0.064  0.00  0.00    +0.018 A 
ATOM     26  C   UNL     1     -10.913  -6.784   0.069  0.00  0.00    +0.017 A 
ATOM     27  C   UNL     1      -9.876  -5.872   0.070  0.00  0.00    +0.024 A 
ATOM     28 BR   UNL     1     -12.065  -9.387   0.070  0.00  0.00    -0.050 Br
ENDBRANCH  20  22
ENDBRANCH  19  20
ENDBRANCH  18  19
ENDBRANCH  17  18
ENDBRANCH   2  17
TORSDOF 7
