REMARK  Name = ZINC12845569
REMARK  5 active torsions:
REMARK  status: ('A' for Active; 'I' for Inactive)
REMARK    1  A    between atoms: C_4  and  C_7
REMARK    2  A    between atoms: C_10  and  C_36
REMARK    3  A    between atoms: C_14  and  C_17
REMARK    4  A    between atoms: N_19  and  C_20
REMARK    5  A    between atoms: N_23  and  C_25
REMARK                            x       y       z     vdW  Elec       q    Type
REMARK                         _______ _______ _______ _____ _____    ______ ____
ROOT
ATOM      1  C   UNL     1       3.711  -0.707  -0.038  0.00  0.00    +0.104 C 
ATOM      2  C   UNL     1       4.048  -1.193   1.377  0.00  0.00    +0.063 C 
ATOM      3  C   UNL     1       2.916  -2.081   1.904  0.00  0.00    +0.215 C 
ATOM      4  N   UNL     1       2.593  -3.090   0.890  0.00  0.00    -0.238 N 
ATOM      5  C   UNL     1       2.929  -2.975  -0.417  0.00  0.00    +0.130 A 
ATOM      6  C   UNL     1       2.469  -4.104  -1.068  0.00  0.00    +0.096 A 
ATOM      7  C   UNL     1       1.835  -4.910  -0.088  0.00  0.00    +0.149 A 
ATOM      8  N   UNL     1       1.917  -4.297   1.061  0.00  0.00    -0.177 NA
ATOM      9  N   UNL     1       3.612  -1.880  -0.928  0.00  0.00    -0.322 N 
ATOM     10  H   UNL     1       4.002  -1.883  -1.816  0.00  0.00    +0.148 HD
ENDROOT
BRANCH   1  14
ATOM     11  C   UNL     1      -0.017   1.378   0.010  0.00  0.00    +0.000 A 
ATOM     12  C   UNL     1       1.171   2.086   0.002  0.00  0.00    +0.000 A 
ATOM     13  C   UNL     1       2.377   1.411  -0.013  0.00  0.00    +0.005 A 
ATOM     14  C   UNL     1       2.396   0.029  -0.020  0.00  0.00    -0.027 A 
ATOM     15  C   UNL     1       1.208  -0.679  -0.012  0.00  0.00    +0.005 A 
ATOM     16  C   UNL     1       0.002  -0.004   0.002  0.00  0.00    +0.000 A 
ENDBRANCH   1  14
BRANCH   6  17
ATOM     17  C   UNL     1       2.609  -4.410  -2.497  0.00  0.00    +0.253 C 
ATOM     18  O   UNL     1       3.179  -3.626  -3.233  0.00  0.00    -0.270 OA
ATOM     19  N   UNL     1       2.107  -5.558  -2.993  0.00  0.00    -0.279 N 
ATOM     20  H   UNL     1       1.653  -6.182  -2.405  0.00  0.00    +0.155 HD
BRANCH  19  21
ATOM     21  C   UNL     1       2.242  -5.851  -4.363  0.00  0.00    +0.072 A 
ATOM     22  C   UNL     1       2.877  -5.047  -5.321  0.00  0.00    +0.157 A 
ATOM     23  N   UNL     1       2.800  -5.650  -6.480  0.00  0.00    -0.177 NA
ATOM     24  N   UNL     1       2.115  -6.859  -6.304  0.00  0.00    -0.264 N 
ATOM     25  C   UNL     1       1.786  -6.965  -4.991  0.00  0.00    +0.132 A 
BRANCH  24  26
ATOM     26  C   UNL     1       1.813  -7.838  -7.351  0.00  0.00    +0.064 C 
ATOM     27  C   UNL     1       0.360  -8.298  -7.215  0.00  0.00    +0.033 C 
ATOM     28  C   UNL     1       0.044  -9.321  -8.308  0.00  0.00    -0.008 C 
ATOM     29  C   UNL     1       0.250  -8.679  -9.682  0.00  0.00    +0.007 C 
ATOM     30  C   UNL     1       1.704  -8.220  -9.818  0.00  0.00    -0.008 C 
ATOM     31  C   UNL     1       2.019  -7.197  -8.725  0.00  0.00    +0.033 C 
ATOM     32  C   UNL     1       2.635  -9.425  -9.673  0.00  0.00    +0.007 C 
ATOM     33  C   UNL     1       2.429 -10.066  -8.299  0.00  0.00    -0.008 C 
ATOM     34  C   UNL     1       0.976 -10.526  -8.163  0.00  0.00    +0.007 C 
ATOM     35  C   UNL     1       2.745  -9.043  -7.206  0.00  0.00    +0.033 C 
ENDBRANCH  24  26
ENDBRANCH  19  21
ENDBRANCH   6  17
BRANCH   3  36
ATOM     36  C   UNL     1       3.364  -2.772   3.194  0.00  0.00    +0.412 C 
ATOM     37  F   UNL     1       3.683  -1.806   4.154  0.00  0.00    -0.168 F 
ATOM     38  F   UNL     1       2.329  -3.582   3.673  0.00  0.00    -0.168 F 
ATOM     39  F   UNL     1       4.490  -3.560   2.933  0.00  0.00    -0.168 F 
ENDBRANCH   3  36
TORSDOF 5
