REMARK  Name = ZINC35646757
REMARK  14 active torsions:
REMARK  status: ('A' for Active; 'I' for Inactive)
REMARK    1  A    between atoms: C_1  and  C_2
REMARK    2  A    between atoms: C_2  and  O_3
REMARK    3  A    between atoms: O_3  and  C_4
REMARK    4  A    between atoms: C_4  and  C_6
REMARK    5  A    between atoms: C_7  and  C_25
REMARK    6  A    between atoms: N_8  and  C_24
REMARK    7  A    between atoms: C_12  and  C_14
REMARK    8  A    between atoms: C_19  and  C_20
REMARK    9  A    between atoms: C_25  and  N_26
REMARK   10  A    between atoms: C_30  and  C_33
REMARK   11  A    between atoms: C_34  and  C_36
REMARK   12  A    between atoms: C_36  and  C_37
REMARK   13  A    between atoms: C_37  and  C_38
REMARK   14  A    between atoms: C_37  and  C_39
REMARK                            x       y       z     vdW  Elec       q    Type
REMARK                         _______ _______ _______ _____ _____    ______ ____
ROOT
ATOM      1  C   UNL     1       1.594  -2.404   2.370  0.00  0.00    +0.080 C 
ATOM      2  C   UNL     1       1.629  -3.753   2.437  0.00  0.00    +0.041 C 
ATOM      3  N   UNL     1       2.085  -4.391   3.555  0.00  0.00    -0.260 N 
ATOM      4  C   UNL     1       2.522  -3.754   4.648  0.00  0.00    +0.307 C 
ATOM      5  O   UNL     1       2.909  -4.410   5.596  0.00  0.00    -0.252 OA
ATOM      6  N   UNL     1       2.548  -2.409   4.732  0.00  0.00    -0.288 N 
ATOM      7  C   UNL     1       2.083  -1.626   3.575  0.00  0.00    +0.144 C 
ATOM      8  C   UNL     1       2.095  -5.856   3.558  0.00  0.00    +0.139 C 
ATOM      9  H   UNL     1       2.868  -1.968   5.534  0.00  0.00    +0.151 HD
ENDROOT
BRANCH   7  10
ATOM     10  C   UNL     1       0.957  -0.739   4.043  0.00  0.00    -0.011 A 
ATOM     11  C   UNL     1      -0.143  -1.293   4.673  0.00  0.00    +0.006 A 
ATOM     12  C   UNL     1      -1.175  -0.480   5.101  0.00  0.00    +0.000 A 
ATOM     13  C   UNL     1      -1.108   0.886   4.901  0.00  0.00    +0.001 A 
ATOM     14  C   UNL     1      -0.008   1.440   4.273  0.00  0.00    +0.013 A 
ATOM     15  C   UNL     1       1.026   0.627   3.848  0.00  0.00    +0.060 A 
BRANCH  15  16
ATOM     16  C   UNL     1       2.228   1.231   3.167  0.00  0.00    +0.418 C 
ATOM     17  F   UNL     1       2.100   2.624   3.145  0.00  0.00    -0.166 F 
ATOM     18  F   UNL     1       3.386   0.879   3.868  0.00  0.00    -0.166 F 
ATOM     19  F   UNL     1       2.312   0.750   1.856  0.00  0.00    -0.166 F 
ENDBRANCH  15  16
ENDBRANCH   7  10
BRANCH   1  20
ATOM     20  C   UNL     1       1.123  -1.741   1.213  0.00  0.00    +0.339 C 
ATOM     21  O   UNL     1       1.913  -1.229   0.442  0.00  0.00    -0.245 OA
BRANCH  20  22
ATOM     22  O   UNL     1      -0.202  -1.677   0.965  0.00  0.00    -0.462 OA
BRANCH  22  24
ATOM     23  C   UNL     1      -2.127  -0.995  -0.327  0.00  0.00    +0.048 C 
ATOM     24  C   UNL     1      -0.601  -1.091  -0.276  0.00  0.00    +0.229 C 
ENDBRANCH  22  24
ENDBRANCH  20  22
ENDBRANCH   1  20
BRANCH   2  25
ATOM     25  C   UNL     1       1.158  -4.566   1.259  0.00  0.00    +0.136 C 
BRANCH  25  26
ATOM     26  N   UNL     1       2.299  -5.277   0.667  0.00  0.00    -0.294 NA
ATOM     27  C   UNL     1       3.264  -4.334   0.086  0.00  0.00    +0.104 C 
ATOM     28  C   UNL     1       4.516  -5.097  -0.356  0.00  0.00    +0.123 C 
ATOM     29  N   UNL     1       4.106  -6.193  -1.246  0.00  0.00    -0.296 N 
ATOM     30  C   UNL     1       3.043  -7.101  -0.788  0.00  0.00    +0.087 C 
ATOM     31  C   UNL     1       1.848  -6.258  -0.329  0.00  0.00    +0.107 C 
ATOM     32  C   UNL     1       2.619  -8.018  -1.937  0.00  0.00    +0.029 C 
ATOM     33  C   UNL     1       4.688  -6.362  -2.450  0.00  0.00    +0.216 C 
ATOM     34  O   UNL     1       4.284  -7.223  -3.204  0.00  0.00    -0.276 OA
BRANCH  33  35
ATOM     35  C   UNL     1       5.840  -5.482  -2.860  0.00  0.00    +0.099 C 
BRANCH  35  36
ATOM     36  C   UNL     1       6.313  -5.879  -4.260  0.00  0.00    -0.008 C 
ATOM     37  C   UNL     1       5.204  -5.591  -5.273  0.00  0.00    +0.008 C 
ATOM     38  C   UNL     1       7.560  -5.071  -4.625  0.00  0.00    +0.008 C 
ENDBRANCH  35  36
ENDBRANCH  33  35
ENDBRANCH  25  26
ENDBRANCH   2  25
TORSDOF 9
