REMARK  Name = ZINC66976129
REMARK  11 active torsions:
REMARK  status: ('A' for Active; 'I' for Inactive)
REMARK    1  A    between atoms: C_1  and  N_2
REMARK    2  A    between atoms: N_2  and  C_3
REMARK    3  A    between atoms: N_2  and  C_4
REMARK    4  A    between atoms: C_4  and  C_6
REMARK    5  A    between atoms: C_4  and  C_23
REMARK    6  A    between atoms: C_6  and  N_7
REMARK    7  A    between atoms: N_10  and  C_11
REMARK    8  A    between atoms: C_11  and  C_12
REMARK    9  A    between atoms: C_12  and  O_22
REMARK   10  A    between atoms: C_28  and  O_29
REMARK   11  A    between atoms: O_29  and  C_30
REMARK                            x       y       z     vdW  Elec       q    Type
REMARK                         _______ _______ _______ _____ _____    ______ ____
ROOT
ATOM      1  N   UNL     1      -1.301   1.159  -1.686  0.00  0.00    -0.301 N 
ATOM      2  C   UNL     1      -1.858   1.845  -2.703  0.00  0.00    +0.300 C 
ATOM      3  O   UNL     1      -2.578   1.274  -3.499  0.00  0.00    -0.253 OA
ATOM      4  N   UNL     1      -1.618   3.165  -2.837  0.00  0.00    -0.296 N 
ATOM      5  H   UNL     1      -0.727   1.614  -1.050  0.00  0.00    +0.150 HD
ATOM      6  H   UNL     1      -1.044   3.620  -2.201  0.00  0.00    +0.150 HD
ENDROOT
BRANCH   1   7
ATOM      7  C   UNL     1      -1.562  -0.275  -1.540  0.00  0.00    +0.095 C 
BRANCH   7   8
ATOM      8  C   UNL     1      -0.725  -0.832  -0.387  0.00  0.00    -0.017 C 
BRANCH   8   9
ATOM      9  C   UNL     1       0.738  -0.738  -0.737  0.00  0.00    -0.018 A 
ATOM     10  C   UNL     1       1.507   0.291  -0.226  0.00  0.00    +0.005 A 
ATOM     11  C   UNL     1       2.849   0.377  -0.547  0.00  0.00    +0.000 A 
ATOM     12  C   UNL     1       3.425  -0.565  -1.380  0.00  0.00    +0.004 A 
ATOM     13  C   UNL     1       2.661  -1.595  -1.892  0.00  0.00    +0.046 A 
ATOM     14  C   UNL     1       1.315  -1.687  -1.567  0.00  0.00    +0.122 A 
BRANCH  14  15
ATOM     15  O   UNL     1       0.563  -2.703  -2.065  0.00  0.00    -0.495 OA
ATOM     16  C   UNL     1       1.224  -3.644  -2.914  0.00  0.00    +0.277 C 
ENDBRANCH  14  15
ENDBRANCH   8   9
BRANCH   8  18
ATOM     17  C   UNL     1      -2.432  -0.032   1.097  0.00  0.00    -0.096 C 
ATOM     18  N   UNL     1      -0.988  -0.051   0.830  0.00  0.00    +0.382 N 
ATOM     19  C   UNL     1      -0.288  -0.665   1.966  0.00  0.00    -0.096 C 
ATOM     20  H   UNL     1      -0.657   0.893   0.702  0.00  0.00    -0.082 HD
ENDBRANCH   8  18
ENDBRANCH   7   8
ENDBRANCH   1   7
BRANCH   4  21
ATOM     21  C   UNL     1      -2.224   3.911  -3.942  0.00  0.00    +0.145 C 
BRANCH  21  22
ATOM     22  C   UNL     1      -1.706   5.351  -3.930  0.00  0.00    +0.107 C 
ATOM     23  C   UNL     1      -2.061   6.002  -2.595  0.00  0.00    +0.041 C 
ATOM     24  C   UNL     1      -1.732   7.497  -2.684  0.00  0.00    +0.008 C 
ATOM     25  C   UNL     1      -2.729   8.154  -3.637  0.00  0.00    +0.035 C 
ATOM     26  C   UNL     1      -2.793   7.400  -4.939  0.00  0.00    -0.041 A 
ATOM     27  C   UNL     1      -2.327   6.111  -5.073  0.00  0.00    -0.011 A 
ATOM     28  C   UNL     1      -2.421   5.470  -6.301  0.00  0.00    +0.007 A 
ATOM     29  C   UNL     1      -2.975   6.115  -7.388  0.00  0.00    +0.000 A 
ATOM     30  C   UNL     1      -3.440   7.410  -7.254  0.00  0.00    +0.000 A 
ATOM     31  C   UNL     1      -3.348   8.048  -6.035  0.00  0.00    +0.004 A 
BRANCH  22  32
ATOM     32  O   UNL     1      -0.286   5.342  -4.087  0.00  0.00    -0.382 OA
ATOM     33  H   UNL     1       0.017   4.934  -4.910  0.00  0.00    +0.211 HD
ENDBRANCH  22  32
ENDBRANCH  21  22
ENDBRANCH   4  21
TORSDOF 8
