REMARK  Name = ZINC40918444
REMARK  4 active torsions:
REMARK  status: ('A' for Active; 'I' for Inactive)
REMARK    1  A    between atoms: C_1  and  N_2
REMARK    2  A    between atoms: C_3  and  C_7
REMARK    3  A    between atoms: C_12  and  C_13
REMARK    4  A    between atoms: N_14  and  C_18
REMARK                            x       y       z     vdW  Elec       q    Type
REMARK                         _______ _______ _______ _____ _____    ______ ____
ROOT
ATOM      1  C   UNL     1       0.162  -0.354  -2.460  0.00  0.00    +0.033 C 
ATOM      2  C   UNL     1       0.336   0.965  -2.724  0.00  0.00    +0.002 C 
ATOM      3  C   UNL     1       0.370   1.547  -4.010  0.00  0.00    +0.185 C 
ATOM      4  O   UNL     1       0.244   0.921  -5.051  0.00  0.00    -0.287 OA
ATOM      5  C   UNL     1       0.567   2.944  -3.944  0.00  0.00    +0.002 C 
ATOM      6  C   UNL     1       0.645   3.781  -5.009  0.00  0.00    +0.033 C 
ATOM      7  C   UNL     1       0.677   3.353  -2.495  0.00  0.00    +0.044 C 
ATOM      8  C   UNL     1       0.519   2.052  -1.692  0.00  0.00    +0.044 C 
ENDROOT
BRANCH   1  11
ATOM      9  C   UNL     1      -0.087  -3.286  -1.587  0.00  0.00    +0.149 C 
ATOM     10  N   UNL     1       0.053  -2.123  -0.708  0.00  0.00    -0.350 N 
ATOM     11  C   UNL     1       0.163  -0.813  -1.120  0.00  0.00    +0.042 A 
ATOM     12  C   UNL     1       0.275  -0.029   0.014  0.00  0.00    +0.027 A 
ATOM     13  C   UNL     1       0.231  -0.890   1.115  0.00  0.00    +0.020 A 
ATOM     14  C   UNL     1       0.090  -2.155   0.649  0.00  0.00    +0.086 A 
ENDBRANCH   1  11
BRANCH   6  15
ATOM     15  C   UNL     1       0.746   5.179  -4.804  0.00  0.00    +0.042 A 
ATOM     16  N   UNL     1       0.714   6.149  -5.781  0.00  0.00    -0.350 N 
ATOM     17  C   UNL     1       0.838   7.365  -5.188  0.00  0.00    +0.086 A 
ATOM     18  C   UNL     1       0.949   7.191  -3.849  0.00  0.00    +0.020 A 
ATOM     19  C   UNL     1       0.888   5.820  -3.587  0.00  0.00    +0.027 A 
ATOM     20  C   UNL     1       0.571   5.910  -7.219  0.00  0.00    +0.149 C 
ENDBRANCH   6  15
TORSDOF 2
