REMARK  Name = ZINC13637411
REMARK  7 active torsions:
REMARK  status: ('A' for Active; 'I' for Inactive)
REMARK    1  A    between atoms: C_1  and  C_2
REMARK    2  A    between atoms: C_6  and  C_35
REMARK    3  A    between atoms: C_7  and  N_8
REMARK    4  A    between atoms: N_8  and  S_9
REMARK    5  A    between atoms: S_9  and  C_12
REMARK    6  A    between atoms: C_25  and  C_28
REMARK    7  A    between atoms: C_31  and  O_34
REMARK                            x       y       z     vdW  Elec       q    Type
REMARK                         _______ _______ _______ _____ _____    ______ ____
ROOT
ATOM      1  C   UNL     1       0.450  -3.376  -0.006  0.00  0.00    +0.109 A 
ATOM      2  C   UNL     1      -0.776  -2.765   0.185  0.00  0.00    +0.030 A 
ATOM      3  C   UNL     1      -0.841  -1.498   0.727  0.00  0.00    +0.025 A 
ATOM      4  C   UNL     1       0.322  -0.827   1.086  0.00  0.00    +0.031 A 
ATOM      5  C   UNL     1       1.558  -1.457   0.902  0.00  0.00    -0.018 A 
ATOM      6  C   UNL     1       1.613  -2.720   0.353  0.00  0.00    +0.034 A 
ATOM      7  C   UNL     1       2.769  -0.721   1.324  0.00  0.00    +0.049 C 
ATOM      8  C   UNL     1       4.097  -0.969   0.708  0.00  0.00    -0.023 C 
ATOM      9  C   UNL     1       4.794   0.160   0.734  0.00  0.00    -0.030 C 
ATOM     10  C   UNL     1       3.954   1.279   1.352  0.00  0.00    +0.033 C 
ATOM     11  C   UNL     1       2.528   0.795   1.056  0.00  0.00    +0.029 C 
ATOM     12  C   UNL     1       1.440   1.210   2.031  0.00  0.00    +0.105 C 
ATOM     13  N   UNL     1       0.231   0.464   1.621  0.00  0.00    -0.336 N 
ATOM     14  H   UNL     1      -0.641   0.877   1.721  0.00  0.00    +0.147 HD
ENDROOT
BRANCH  12  15
ATOM     15  C   UNL     1       1.831   0.835   3.438  0.00  0.00    -0.027 A 
ATOM     16  C   UNL     1       1.453  -0.390   3.955  0.00  0.00    +0.009 A 
ATOM     17  C   UNL     1       1.815  -0.738   5.242  0.00  0.00    +0.046 A 
ATOM     18  C   UNL     1       2.549   0.147   6.019  0.00  0.00    +0.117 A 
ATOM     19  C   UNL     1       2.922   1.377   5.499  0.00  0.00    +0.046 A 
ATOM     20  C   UNL     1       2.563   1.719   4.209  0.00  0.00    +0.009 A 
BRANCH  18  21
ATOM     21  O   UNL     1       2.902  -0.192   7.287  0.00  0.00    -0.507 OA
ATOM     22  H   UNL     1       2.255   0.066   7.957  0.00  0.00    +0.292 HD
ENDBRANCH  18  21
ENDBRANCH  12  15
BRANCH   1  23
ATOM     23  S   UNL     1       0.530  -4.991  -0.707  0.00  0.00    +0.072 S 
ATOM     24  O   UNL     1      -0.609  -5.126  -1.546  0.00  0.00    -0.150 OA
ATOM     25  O   UNL     1       1.856  -5.159  -1.190  0.00  0.00    -0.150 OA
BRANCH  23  26
ATOM     26  N   UNL     1       0.337  -6.073   0.532  0.00  0.00    -0.216 N 
ATOM     27  H   UNL     1       1.078  -6.636   0.803  0.00  0.00    +0.174 HD
BRANCH  26  34
ATOM     28  C   UNL     1       0.104  -4.952   3.136  0.00  0.00    +0.046 C 
ATOM     29  C   UNL     1      -1.052  -5.641   2.458  0.00  0.00    -0.028 A 
ATOM     30  C   UNL     1      -2.271  -5.739   3.099  0.00  0.00    +0.005 A 
ATOM     31  C   UNL     1      -3.331  -6.375   2.479  0.00  0.00    +0.001 A 
ATOM     32  C   UNL     1      -3.175  -6.912   1.214  0.00  0.00    +0.005 A 
ATOM     33  C   UNL     1      -1.960  -6.813   0.565  0.00  0.00    -0.028 A 
ATOM     34  C   UNL     1      -0.893  -6.174   1.185  0.00  0.00    +0.054 A 
ATOM     35  C   UNL     1      -1.791  -7.397  -0.814  0.00  0.00    +0.046 C 
ENDBRANCH  26  34
ENDBRANCH  23  26
ENDBRANCH   1  23
TORSDOF 5
