REMARK  Name = ZINC14008730
REMARK  8 active torsions:
REMARK  status: ('A' for Active; 'I' for Inactive)
REMARK    1  A    between atoms: C_1  and  O_2
REMARK    2  A    between atoms: O_2  and  C_3
REMARK    3  A    between atoms: C_6  and  N_9
REMARK    4  A    between atoms: C_15  and  C_16
REMARK    5  A    between atoms: C_19  and  O_23
REMARK    6  A    between atoms: O_23  and  C_24
REMARK    7  A    between atoms: C_24  and  C_25
REMARK    8  A    between atoms: C_30  and  C_31
REMARK                            x       y       z     vdW  Elec       q    Type
REMARK                         _______ _______ _______ _____ _____    ______ ____
ROOT
ATOM      1  C   UNL     1       6.517  -7.303  -3.376  0.00  0.00    -0.021 A 
ATOM      2  C   UNL     1       6.179  -7.082  -2.035  0.00  0.00    +0.031 A 
ATOM      3  C   UNL     1       6.797  -7.810  -1.042  0.00  0.00    +0.085 A 
ATOM      4  C   UNL     1       7.755  -8.764  -1.369  0.00  0.00    +0.157 A 
ATOM      5  C   UNL     1       8.095  -8.986  -2.699  0.00  0.00    +0.085 A 
ATOM      6  C   UNL     1       7.479  -8.267  -3.700  0.00  0.00    +0.031 A 
ATOM      7 CL   UNL     1       9.293 -10.177  -3.099  0.00  0.00    -0.080 Cl
ATOM      8 CL   UNL     1       6.379  -7.537   0.621  0.00  0.00    -0.080 Cl
ENDROOT
BRANCH   1  15
ATOM      9  N   UNL     1       4.425  -1.401  -4.522  0.00  0.00    -0.226 NA
ATOM     10  C   UNL     1       4.889  -2.609  -4.297  0.00  0.00    +0.166 C 
ATOM     11  N   UNL     1       5.660  -3.049  -3.242  0.00  0.00    -0.260 N 
ATOM     12  C   UNL     1       6.045  -4.312  -3.170  0.00  0.00    +0.256 C 
ATOM     13  O   UNL     1       6.725  -4.717  -2.245  0.00  0.00    -0.269 OA
ATOM     14  C   UNL     1       5.614  -5.207  -4.261  0.00  0.00    +0.078 C 
ATOM     15  C   UNL     1       5.862  -6.529  -4.438  0.00  0.00    +0.028 C 
ATOM     16  S   UNL     1       4.671  -4.083  -5.281  0.00  0.00    -0.049 S 
ATOM     17  H   UNL     1       5.921  -2.426  -2.546  0.00  0.00    +0.157 HD
BRANCH   9  21
ATOM     18  C   UNL     1       5.258   1.664  -1.865  0.00  0.00    +0.120 A 
ATOM     19  C   UNL     1       5.376   1.881  -3.231  0.00  0.00    +0.048 A 
ATOM     20  C   UNL     1       5.100   0.863  -4.119  0.00  0.00    +0.031 A 
ATOM     21  C   UNL     1       4.700  -0.387  -3.643  0.00  0.00    +0.067 A 
ATOM     22  C   UNL     1       4.583  -0.601  -2.268  0.00  0.00    +0.031 A 
ATOM     23  C   UNL     1       4.866   0.422  -1.387  0.00  0.00    +0.048 A 
BRANCH  18  25
ATOM     24  C   UNL     1       5.929   3.924  -1.552  0.00  0.00    +0.277 C 
ATOM     25  O   UNL     1       5.531   2.671  -0.993  0.00  0.00    -0.495 OA
ENDBRANCH  18  25
ENDBRANCH   9  21
ENDBRANCH   1  15
BRANCH   4  26
ATOM     26  O   UNL     1       8.361  -9.479  -0.387  0.00  0.00    -0.484 OA
BRANCH  26  27
ATOM     27  C   UNL     1       7.740 -10.707  -0.001  0.00  0.00    +0.266 C 
BRANCH  27  28
ATOM     28  C   UNL     1       8.548 -11.357   1.093  0.00  0.00    +0.007 A 
ATOM     29  C   UNL     1       9.692 -10.745   1.563  0.00  0.00    +0.008 A 
ATOM     30  C   UNL     1      10.435 -11.340   2.567  0.00  0.00    +0.000 A 
ATOM     31  C   UNL     1      10.037 -12.551   3.106  0.00  0.00    +0.001 A 
ATOM     32  C   UNL     1       8.896 -13.173   2.645  0.00  0.00    +0.019 A 
ATOM     33  C   UNL     1       8.138 -12.575   1.636  0.00  0.00    +0.058 A 
BRANCH  33  34
ATOM     34  C   UNL     1       6.948 -13.212   1.157  0.00  0.00    +0.100 C 
ATOM     35  N   UNL     1       6.005 -13.718   0.777  0.00  0.00    -0.191 NA
ENDBRANCH  33  34
ENDBRANCH  27  28
ENDBRANCH  26  27
ENDBRANCH   4  26
TORSDOF 7
