REMARK  Name = ZINC61588475
REMARK  3 active torsions:
REMARK  status: ('A' for Active; 'I' for Inactive)
REMARK    1  A    between atoms: C_3  and  N_13
REMARK    2  A    between atoms: C_4  and  N_8
REMARK    3  A    between atoms: N_13  and  C_14
REMARK                            x       y       z     vdW  Elec       q    Type
REMARK                         _______ _______ _______ _____ _____    ______ ____
ROOT
ATOM      1  C   UNL     1      -0.008   1.393   0.013  0.00  0.00    +0.003 A 
ATOM      2  C   UNL     1       1.185   2.090   0.014  0.00  0.00    +0.025 A 
ATOM      3  C   UNL     1       2.390   1.402  -0.005  0.00  0.00    +0.055 A 
ATOM      4  C   UNL     1       2.393   0.008  -0.025  0.00  0.00    +0.104 A 
ATOM      5  C   UNL     1       1.190  -0.683  -0.025  0.00  0.00    +0.068 A 
ATOM      6  C   UNL     1      -0.007   0.011  -0.006  0.00  0.00    +0.022 A 
ATOM      7 CL   UNL     1       1.186  -2.419  -0.050  0.00  0.00    -0.081 Cl
ENDROOT
BRANCH   4   8
ATOM      8  N   UNL     1       3.608  -0.694  -0.045  0.00  0.00    -0.237 N 
ATOM      9  C   UNL     1       3.938  -1.689  -0.898  0.00  0.00    +0.114 A 
ATOM     10  C   UNL     1       5.191  -2.098  -0.589  0.00  0.00    +0.041 A 
ATOM     11  C   UNL     1       5.642  -1.328   0.488  0.00  0.00    +0.135 A 
ATOM     12  N   UNL     1       4.696  -0.482   0.812  0.00  0.00    -0.175 NA
ENDBRANCH   4   8
BRANCH   3  13
ATOM     13  N   UNL     1       3.599   2.105  -0.006  0.00  0.00    -0.339 N 
ATOM     14  H   UNL     1       4.439   1.625   0.057  0.00  0.00    +0.146 HD
BRANCH  13  15
ATOM     15  C   UNL     1       3.595   3.567  -0.100  0.00  0.00    +0.080 C 
ATOM     16  C   UNL     1       4.919   4.039  -0.696  0.00  0.00    +0.024 C 
ATOM     17  C   UNL     1       4.848   5.517  -1.071  0.00  0.00    +0.012 C 
ATOM     18  C   UNL     1       4.827   6.377   0.197  0.00  0.00    +0.069 C 
ATOM     19  S   UNL     1       3.330   5.978   1.147  0.00  0.00    -0.159 S 
ATOM     20  C   UNL     1       3.410   4.167   1.297  0.00  0.00    +0.091 C 
ENDBRANCH  13  15
ENDBRANCH   3  13
TORSDOF 3
