REMARK  Name = ZINC12469907
REMARK  7 active torsions:
REMARK  status: ('A' for Active; 'I' for Inactive)
REMARK    1  A    between atoms: C_1  and  C_2
REMARK    2  A    between atoms: C_6  and  C_15
REMARK    3  A    between atoms: C_13  and  C_14
REMARK    4  A    between atoms: C_15  and  C_17
REMARK    5  A    between atoms: C_15  and  N_28
REMARK    6  A    between atoms: N_21  and  C_22
REMARK    7  A    between atoms: C_36  and  C_38
REMARK                            x       y       z     vdW  Elec       q    Type
REMARK                         _______ _______ _______ _____ _____    ______ ____
ROOT
ATOM      1  C   UNL     1      -6.234   3.152   3.563  0.00  0.00    +0.179 C 
ENDROOT
BRANCH   1   7
ATOM      2  C   UNL     1       0.455   0.746   1.309  0.00  0.00    +0.044 C 
ATOM      3  C   UNL     1      -0.466   1.243   2.393  0.00  0.00    -0.047 A 
ATOM      4  C   UNL     1      -1.761   1.556   2.091  0.00  0.00    +0.013 A 
ATOM      5  C   UNL     1      -2.617   2.012   3.098  0.00  0.00    -0.001 A 
ATOM      6  C   UNL     1      -4.012   2.351   2.810  0.00  0.00    +0.021 A 
ATOM      7  C   UNL     1      -4.794   2.794   3.826  0.00  0.00    +0.045 A 
ATOM      8  C   UNL     1      -4.264   2.922   5.128  0.00  0.00    +0.255 A 
ATOM      9  O   UNL     1      -4.984   3.321   6.026  0.00  0.00    -0.268 OA
ATOM     10  N   UNL     1      -2.984   2.613   5.402  0.00  0.00    -0.322 N 
ATOM     11  H   UNL     1      -2.652   2.713   6.307  0.00  0.00    +0.169 HD
ATOM     12  C   UNL     1      -2.137   2.157   4.414  0.00  0.00    +0.049 A 
ATOM     13  C   UNL     1      -0.814   1.838   4.697  0.00  0.00    +0.030 A 
ATOM     14  C   UNL     1       0.011   1.385   3.689  0.00  0.00    -0.046 A 
ATOM     15  C   UNL     1       1.445   1.039   3.998  0.00  0.00    +0.044 C 
ENDBRANCH   1   7
BRANCH   1  16
ATOM     16  N   UNL     1      -6.487   4.527   4.014  0.00  0.00    -0.312 N 
ATOM     17  C   UNL     1      -5.718   5.443   3.285  0.00  0.00    +0.034 A 
ATOM     18  C   UNL     1      -4.397   5.356   2.850  0.00  0.00    +0.023 A 
ATOM     19  C   UNL     1      -3.829   6.395   2.142  0.00  0.00    +0.002 A 
ATOM     20  C   UNL     1      -4.567   7.530   1.859  0.00  0.00    +0.000 A 
ATOM     21  C   UNL     1      -5.880   7.622   2.284  0.00  0.00    +0.005 A 
ATOM     22  C   UNL     1      -6.453   6.585   2.990  0.00  0.00    -0.025 A 
ATOM     23  C   UNL     1      -7.843   6.409   3.568  0.00  0.00    +0.059 C 
ATOM     24  C   UNL     1      -7.911   4.888   3.840  0.00  0.00    +0.076 C 
ATOM     25  C   UNL     1      -8.516   4.150   2.645  0.00  0.00    +0.028 C 
ENDBRANCH   1  16
BRANCH   1  26
ATOM     26  C   UNL     1      -7.132   2.204   4.316  0.00  0.00    +0.177 A 
ATOM     27  N   UNL     1      -7.366   2.205   5.605  0.00  0.00    -0.111 NA
ATOM     28  N   UNL     1      -8.187   1.245   5.862  0.00  0.00    -0.023 NA
ATOM     29  N   UNL     1      -8.476   0.627   4.770  0.00  0.00    -0.044 NA
ATOM     30  N   UNL     1      -7.846   1.188   3.794  0.00  0.00    -0.224 N 
BRANCH  30  31
ATOM     31  C   UNL     1      -7.896   0.795   2.384  0.00  0.00    +0.111 C 
ATOM     32  C   UNL     1      -9.337   0.896   1.878  0.00  0.00    +0.027 C 
ATOM     33  C   UNL     1      -9.390   0.484   0.405  0.00  0.00    +0.002 C 
ATOM     34  C   UNL     1      -8.898  -0.957   0.260  0.00  0.00    +0.000 C 
ATOM     35  C   UNL     1      -7.458  -1.058   0.767  0.00  0.00    +0.002 C 
ATOM     36  C   UNL     1      -7.405  -0.647   2.239  0.00  0.00    +0.027 C 
ENDBRANCH  30  31
ENDBRANCH   1  26
TORSDOF 4
