REMARK  Name = ZINC62855588
REMARK  5 active torsions:
REMARK  status: ('A' for Active; 'I' for Inactive)
REMARK    1  A    between atoms: C_1  and  C_2
REMARK    2  A    between atoms: C_2  and  C_3
REMARK    3  A    between atoms: C_3  and  C_9
REMARK    4  A    between atoms: N_11  and  C_12
REMARK    5  A    between atoms: C_15  and  N_19
REMARK                            x       y       z     vdW  Elec       q    Type
REMARK                         _______ _______ _______ _____ _____    ______ ____
ROOT
ATOM      1  C   UNL     1      -0.511   0.108   2.135  0.00  0.00    +0.222 C 
ATOM      2  O   UNL     1      -1.226  -0.691   2.702  0.00  0.00    -0.275 OA
ATOM      3  N   UNL     1      -0.433   1.377   2.583  0.00  0.00    -0.284 N 
ATOM      4  H   UNL     1       0.203   1.993   2.186  0.00  0.00    +0.155 HD
ENDROOT
BRANCH   1   5
ATOM      5  C   UNL     1       0.289  -0.317   0.932  0.00  0.00    +0.032 C 
ATOM      6  C   UNL     1       1.764   0.034   1.147  0.00  0.00    +0.012 C 
ATOM      7  C   UNL     1       2.297  -0.756   2.346  0.00  0.00    -0.018 C 
ATOM      8  C   UNL     1       2.088  -2.251   2.099  0.00  0.00    -0.083 C 
ATOM      9  N   UNL     1       0.656  -2.526   1.927  0.00  0.00    +0.380 N 
ATOM     10  C   UNL     1       0.154  -1.829   0.737  0.00  0.00    -0.066 C 
ATOM     11  H   UNL     1       0.517  -3.520   1.817  0.00  0.00    -0.086 HD
ATOM     12  H   UNL     1       0.153  -2.206   2.740  0.00  0.00    -0.086 HD
BRANCH   5  14
ATOM     13  C   UNL     1      -1.724   0.114  -0.484  0.00  0.00    +0.005 C 
ATOM     14  C   UNL     1      -0.232   0.407  -0.311  0.00  0.00    +0.011 C 
ENDBRANCH   5  14
ENDBRANCH   1   5
BRANCH   3  15
ATOM     15  C   UNL     1      -1.269   1.807   3.619  0.00  0.00    +0.048 A 
ATOM     16  C   UNL     1      -1.671   0.915   4.604  0.00  0.00    +0.026 A 
ATOM     17  C   UNL     1      -2.497   1.341   5.626  0.00  0.00    +0.034 A 
ATOM     18  C   UNL     1      -2.924   2.656   5.669  0.00  0.00    +0.127 A 
ATOM     19  C   UNL     1      -2.526   3.548   4.690  0.00  0.00    +0.049 A 
ATOM     20  C   UNL     1      -1.695   3.129   3.668  0.00  0.00    +0.041 A 
ATOM     21 BR   UNL     1      -1.144   4.351   2.334  0.00  0.00    -0.048 Br
BRANCH  18  22
ATOM     22  N   UNL     1      -3.809   3.110   6.765  0.00  0.00    +0.056 N 
ATOM     23  O   UNL     1      -4.158   2.331   7.622  0.00  0.00    -0.126 OA
ATOM     24  O   UNL     1      -4.183   4.259   6.804  0.00  0.00    -0.126 OA
ENDBRANCH  18  22
ENDBRANCH   3  15
TORSDOF 4
