REMARK  Name = ZINC05611088
REMARK  6 active torsions:
REMARK  status: ('A' for Active; 'I' for Inactive)
REMARK    1  A    between atoms: C_1  and  C_2
REMARK    2  A    between atoms: C_2  and  N_3
REMARK    3  A    between atoms: C_14  and  C_16
REMARK    4  A    between atoms: N_17  and  N_18
REMARK    5  A    between atoms: C_19  and  C_21
REMARK    6  A    between atoms: C_21  and  N_22
REMARK                            x       y       z     vdW  Elec       q    Type
REMARK                         _______ _______ _______ _____ _____    ______ ____
ROOT
ATOM      1  C   UNL     1      -7.220   3.199  -3.139  0.00  0.00    +0.138 C 
ATOM      2  N   UNL     1      -5.962   3.421  -2.913  0.00  0.00    -0.188 NA
ENDROOT
BRANCH   1  14
ATOM      3  N   UNL     1      -9.334   2.852  -8.332  0.00  0.00    -0.340 N 
ATOM      4  C   UNL     1     -10.671   2.612  -8.071  0.00  0.00    +0.050 A 
ATOM      5  C   UNL     1     -11.768   2.420  -8.905  0.00  0.00    +0.026 A 
ATOM      6  C   UNL     1     -13.015   2.193  -8.363  0.00  0.00    +0.002 A 
ATOM      7  C   UNL     1     -13.191   2.153  -6.988  0.00  0.00    +0.001 A 
ATOM      8  C   UNL     1     -12.116   2.342  -6.146  0.00  0.00    +0.010 A 
ATOM      9  C   UNL     1     -10.851   2.572  -6.680  0.00  0.00    +0.008 A 
ATOM     10  C   UNL     1      -9.524   2.805  -6.081  0.00  0.00    +0.008 A 
ATOM     11  C   UNL     1      -8.627   2.972  -7.149  0.00  0.00    +0.050 A 
ATOM     12  C   UNL     1      -7.280   3.211  -6.885  0.00  0.00    +0.027 A 
ATOM     13  C   UNL     1      -6.832   3.283  -5.598  0.00  0.00    +0.011 A 
ATOM     14  C   UNL     1      -7.717   3.119  -4.525  0.00  0.00    -0.005 A 
ATOM     15  C   UNL     1      -9.067   2.874  -4.770  0.00  0.00    +0.020 A 
BRANCH   3  17
ATOM     16  C   UNL     1      -8.292   1.585 -10.145  0.00  0.00    +0.027 C 
ATOM     17  C   UNL     1      -8.750   2.965  -9.670  0.00  0.00    +0.119 C 
ENDBRANCH   3  17
ENDBRANCH   1  14
BRANCH   2  18
ATOM     18  N   UNL     1      -5.489   3.497  -1.596  0.00  0.00    -0.205 N 
ATOM     19  C   UNL     1      -4.183   3.729  -1.361  0.00  0.00    +0.254 C 
ATOM     20  O   UNL     1      -3.415   3.871  -2.289  0.00  0.00    -0.272 OA
ATOM     21  H   UNL     1      -6.103   3.383  -0.853  0.00  0.00    +0.177 HD
BRANCH  19  22
ATOM     22  C   UNL     1      -3.675   3.810   0.056  0.00  0.00    +0.243 C 
BRANCH  22  23
ATOM     23  N   UNL     1      -2.233   4.067   0.044  0.00  0.00    -0.235 N 
ATOM     24  C   UNL     1      -1.230   3.127   0.030  0.00  0.00    +0.090 A 
ATOM     25  C   UNL     1      -1.209   1.737   0.017  0.00  0.00    +0.029 A 
ATOM     26  C   UNL     1      -0.013   1.076   0.008  0.00  0.00    +0.002 A 
ATOM     27  C   UNL     1       1.184   1.781   0.000  0.00  0.00    +0.002 A 
ATOM     28  C   UNL     1       1.191   3.145   0.007  0.00  0.00    +0.032 A 
ATOM     29  C   UNL     1      -0.022   3.847   0.022  0.00  0.00    +0.113 A 
ATOM     30  N   UNL     1      -0.328   5.160   0.032  0.00  0.00    -0.129 NA
ATOM     31  N   UNL     1      -1.604   5.321   0.044  0.00  0.00    -0.064 NA
ENDBRANCH  22  23
ENDBRANCH  19  22
ENDBRANCH   2  18
TORSDOF 5
