REMARK  Name = ZINC24788179
REMARK  13 active torsions:
REMARK  status: ('A' for Active; 'I' for Inactive)
REMARK    1  A    between atoms: C_1  and  C_2
REMARK    2  A    between atoms: C_2  and  C_3
REMARK    3  A    between atoms: C_2  and  C_4
REMARK    4  A    between atoms: C_4  and  C_6
REMARK    5  A    between atoms: C_4  and  N_11
REMARK    6  A    between atoms: C_12  and  C_14
REMARK    7  A    between atoms: C_14  and  N_15
REMARK    8  A    between atoms: C_18  and  C_22
REMARK    9  A    between atoms: C_18  and  C_23
REMARK   10  A    between atoms: C_23  and  C_24
REMARK   11  A    between atoms: C_24  and  C_25
REMARK   12  A    between atoms: C_28  and  O_31
REMARK   13  A    between atoms: O_31  and  C_32
REMARK                            x       y       z     vdW  Elec       q    Type
REMARK                         _______ _______ _______ _____ _____    ______ ____
ROOT
ATOM      1  N   UNL     1      -2.112   0.252   2.509  0.00  0.00    -0.215 N 
ATOM      2  C   UNL     1      -2.112   0.968   1.368  0.00  0.00    +0.247 C 
ATOM      3  O   UNL     1      -3.029   1.097   0.585  0.00  0.00    -0.273 OA
ATOM      4  C   UNL     1      -0.729   1.579   1.267  0.00  0.00    +0.110 C 
ATOM      5  N   UNL     1      -0.045   1.091   2.477  0.00  0.00    -0.285 N 
ATOM      6  C   UNL     1      -0.933   0.325   3.137  0.00  0.00    +0.310 C 
ATOM      7  O   UNL     1      -0.690  -0.237   4.187  0.00  0.00    -0.252 OA
ATOM      8  C   UNL     1      -0.013   1.086   0.008  0.00  0.00    +0.041 C 
ATOM      9  H   UNL     1       0.997   1.380   2.675  0.00  0.00    +0.151 HD
ENDROOT
BRANCH   1  10
ATOM     10  C   UNL     1      -3.261  -0.512   3.002  0.00  0.00    +0.213 C 
BRANCH  10  12
ATOM     11  N   UNL     1      -5.224  -0.125   4.457  0.00  0.00    -0.306 N 
ATOM     12  C   UNL     1      -4.106   0.368   3.887  0.00  0.00    +0.231 C 
ATOM     13  O   UNL     1      -3.781   1.519   4.086  0.00  0.00    -0.274 OA
ATOM     14  H   UNL     1      -5.519  -1.169   4.276  0.00  0.00    +0.149 HD
BRANCH  11  15
ATOM     15  C   UNL     1      -6.046   0.730   5.317  0.00  0.00    +0.112 C 
BRANCH  15  16
ATOM     16  C   UNL     1      -7.463   0.219   5.326  0.00  0.00    +0.010 A 
ATOM     17  C   UNL     1      -8.623   0.919   5.301  0.00  0.00    +0.013 A 
ATOM     18  C   UNL     1      -9.822   0.231   5.316  0.00  0.00    +0.008 A 
ATOM     19  C   UNL     1      -9.802  -1.124   5.355  0.00  0.00    +0.045 A 
ATOM     20  S   UNL     1      -8.050  -1.467   5.365  0.00  0.00    -0.100 S 
ENDBRANCH  15  16
BRANCH  15  22
ATOM     21  C   UNL     1      -4.047   1.228   6.731  0.00  0.00    +0.009 C 
ATOM     22  C   UNL     1      -5.486   0.709   6.741  0.00  0.00    +0.008 C 
ATOM     23  C   UNL     1      -6.345   1.602   7.639  0.00  0.00    +0.009 C 
ENDBRANCH  15  22
ENDBRANCH  11  15
ENDBRANCH  10  12
ENDBRANCH   1  10
BRANCH   4  24
ATOM     24  C   UNL     1      -0.810   3.107   1.274  0.00  0.00    +0.039 C 
BRANCH  24  25
ATOM     25  C   UNL     1       0.603   3.693   1.227  0.00  0.00    +0.038 C 
BRANCH  25  26
ATOM     26  C   UNL     1       0.522   5.198   1.234  0.00  0.00    -0.047 A 
ATOM     27  C   UNL     1       0.450   5.891   0.040  0.00  0.00    +0.007 A 
ATOM     28  C   UNL     1       0.371   7.270   0.044  0.00  0.00    +0.046 A 
ATOM     29  C   UNL     1       0.376   7.960   1.247  0.00  0.00    +0.120 A 
ATOM     30  C   UNL     1       0.454   7.263   2.444  0.00  0.00    +0.046 A 
ATOM     31  C   UNL     1       0.527   5.884   2.435  0.00  0.00    +0.007 A 
BRANCH  29  32
ATOM     32  O   UNL     1       0.303   9.318   1.254  0.00  0.00    -0.495 OA
ATOM     33  C   UNL     1       0.225   9.969  -0.016  0.00  0.00    +0.277 C 
ENDBRANCH  29  32
ENDBRANCH  25  26
ENDBRANCH  24  25
ENDBRANCH   4  24
TORSDOF 9
