REMARK  Name = ZINC08567393
REMARK  10 active torsions:
REMARK  status: ('A' for Active; 'I' for Inactive)
REMARK    1  A    between atoms: C_1  and  O_2
REMARK    2  A    between atoms: O_2  and  C_3
REMARK    3  A    between atoms: C_6  and  C_9
REMARK    4  A    between atoms: C_16  and  N_40
REMARK    5  A    between atoms: C_17  and  C_38
REMARK    6  A    between atoms: C_18  and  C_20
REMARK    7  A    between atoms: C_23  and  O_36
REMARK    8  A    between atoms: C_24  and  C_26
REMARK    9  A    between atoms: C_26  and  N_27
REMARK   10  A    between atoms: O_36  and  C_37
REMARK                            x       y       z     vdW  Elec       q    Type
REMARK                         _______ _______ _______ _____ _____    ______ ____
ROOT
ATOM      1  C   UNL     1      -2.862   0.830   2.602  0.00  0.00    +0.074 A 
ATOM      2  C   UNL     1      -2.870   0.368   1.328  0.00  0.00    +0.054 A 
ATOM      3  C   UNL     1      -2.696  -1.030   1.369  0.00  0.00    +0.245 A 
ATOM      4  N   UNL     1      -2.587  -1.392   2.616  0.00  0.00    -0.135 NA
ATOM      5  N   UNL     1      -2.687  -0.248   3.422  0.00  0.00    -0.273 N 
ATOM      6  H   UNL     1      -2.639  -0.226   4.421  0.00  0.00    +0.189 HD
ATOM      7  O   UNL     1      -2.661  -1.785   0.238  0.00  0.00    -0.421 OA
ATOM      8  C   UNL     1      -3.069  -1.206  -0.908  0.00  0.00    +0.201 C 
ATOM      9  C   UNL     1      -3.260   0.121  -1.070  0.00  0.00    +0.098 C 
ATOM     10  C   UNL     1      -3.028   1.123   0.033  0.00  0.00    +0.102 C 
ENDROOT
BRANCH   1  14
ATOM     11  C   UNL     1      -3.302   4.879   3.817  0.00  0.00    +0.120 A 
ATOM     12  C   UNL     1      -4.091   3.893   4.394  0.00  0.00    +0.046 A 
ATOM     13  C   UNL     1      -3.952   2.579   4.002  0.00  0.00    +0.013 A 
ATOM     14  C   UNL     1      -3.015   2.240   3.025  0.00  0.00    +0.000 A 
ATOM     15  C   UNL     1      -2.220   3.232   2.451  0.00  0.00    +0.013 A 
ATOM     16  C   UNL     1      -2.369   4.545   2.844  0.00  0.00    +0.046 A 
BRANCH  11  18
ATOM     17  C   UNL     1      -2.519   7.118   3.661  0.00  0.00    +0.277 C 
ATOM     18  O   UNL     1      -3.442   6.173   4.205  0.00  0.00    -0.495 OA
ENDBRANCH  11  18
ENDBRANCH   1  14
BRANCH  10  19
ATOM     19  C   UNL     1      -1.776   1.913  -0.251  0.00  0.00    -0.034 A 
ATOM     20  C   UNL     1      -1.862   3.264  -0.532  0.00  0.00    +0.008 A 
ATOM     21  C   UNL     1      -0.716   3.991  -0.787  0.00  0.00    +0.046 A 
ATOM     22  C   UNL     1       0.521   3.364  -0.766  0.00  0.00    +0.125 A 
ATOM     23  C   UNL     1       0.604   2.008  -0.489  0.00  0.00    +0.016 A 
ATOM     24  C   UNL     1      -0.545   1.284  -0.235  0.00  0.00    +0.013 A 
BRANCH  22  25
ATOM     25  O   UNL     1       1.651   4.078  -1.016  0.00  0.00    -0.495 OA
ATOM     26  C   UNL     1       1.490   5.471  -1.294  0.00  0.00    +0.277 C 
ENDBRANCH  22  25
BRANCH  23  27
ATOM     27  C   UNL     1       1.947   1.323  -0.466  0.00  0.00    +0.184 C 
BRANCH  27  28
ATOM     28  N   UNL     1       2.321   0.936  -1.829  0.00  0.00    -0.239 N 
ATOM     29  C   UNL     1       1.979  -0.227  -2.477  0.00  0.00    +0.089 A 
ATOM     30  C   UNL     1       1.223  -1.341  -2.128  0.00  0.00    +0.029 A 
ATOM     31  C   UNL     1       1.060  -2.359  -3.026  0.00  0.00    +0.002 A 
ATOM     32  C   UNL     1       1.636  -2.288  -4.287  0.00  0.00    +0.002 A 
ATOM     33  C   UNL     1       2.378  -1.204  -4.656  0.00  0.00    +0.032 A 
ATOM     34  C   UNL     1       2.561  -0.147  -3.754  0.00  0.00    +0.113 A 
ATOM     35  N   UNL     1       3.224   1.024  -3.829  0.00  0.00    -0.129 NA
ATOM     36  N   UNL     1       3.104   1.677  -2.727  0.00  0.00    -0.064 NA
ENDBRANCH  27  28
ENDBRANCH  23  27
ENDBRANCH  10  19
BRANCH   8  37
ATOM     37  N   UNL     1      -3.308  -2.021  -1.986  0.00  0.00    -0.328 N 
ATOM     38  H   UNL     1      -3.182  -2.979  -1.907  0.00  0.00    +0.145 HD
ATOM     39  H   UNL     1      -3.603  -1.639  -2.828  0.00  0.00    +0.145 HD
ENDBRANCH   8  37
BRANCH   9  40
ATOM     40  C   UNL     1      -3.702   0.600  -2.345  0.00  0.00    +0.101 C 
ATOM     41  N   UNL     1      -4.052   0.979  -3.357  0.00  0.00    -0.191 NA
ENDBRANCH   9  40
TORSDOF 8
