REMARK  Name = ZINC59819181
REMARK  7 active torsions:
REMARK  status: ('A' for Active; 'I' for Inactive)
REMARK    1  A    between atoms: C_5  and  O_24
REMARK    2  A    between atoms: C_6  and  C_7
REMARK    3  A    between atoms: N_8  and  N_9
REMARK    4  A    between atoms: C_12  and  S_15
REMARK    5  A    between atoms: S_15  and  C_16
REMARK    6  A    between atoms: C_16  and  C_17
REMARK    7  A    between atoms: C_17  and  N_18
REMARK                            x       y       z     vdW  Elec       q    Type
REMARK                         _______ _______ _______ _____ _____    ______ ____
ROOT
ATOM      1  N   UNL     1      -2.442  -2.781   0.010  0.00  0.00    -0.205 N 
ATOM      2  C   UNL     1      -2.419  -4.163   0.003  0.00  0.00    +0.232 A 
ATOM      3  N   UNL     1      -1.341  -4.920  -0.006  0.00  0.00    -0.186 NA
ATOM      4  C   UNL     1      -1.696  -6.209  -0.011  0.00  0.00    +0.210 A 
ATOM      5  N   UNL     1      -3.005  -6.290  -0.006  0.00  0.00    -0.144 NA
ATOM      6  N   UNL     1      -3.497  -4.975   0.009  0.00  0.00    -0.245 N 
ATOM      7  H   UNL     1      -3.290  -2.310   0.021  0.00  0.00    +0.177 HD
ATOM      8  H   UNL     1      -4.428  -4.704   0.019  0.00  0.00    +0.192 HD
ENDROOT
BRANCH   1  10
ATOM      9  C   UNL     1      -1.262  -0.762   0.010  0.00  0.00    +0.142 C 
ATOM     10  N   UNL     1      -1.240  -2.060   0.003  0.00  0.00    -0.187 NA
BRANCH   9  16
ATOM     11  C   UNL     1      -0.017   1.392   0.010  0.00  0.00    +0.028 A 
ATOM     12  C   UNL     1       1.170   2.097   0.002  0.00  0.00    +0.020 A 
ATOM     13  C   UNL     1       2.381   1.424  -0.013  0.00  0.00    +0.034 A 
ATOM     14  C   UNL     1       2.412   0.041  -0.022  0.00  0.00    +0.061 A 
ATOM     15  C   UNL     1       1.229  -0.681  -0.014  0.00  0.00    +0.139 A 
ATOM     16  C   UNL     1       0.002  -0.004   0.002  0.00  0.00    +0.038 A 
ATOM     17 BR   UNL     1       4.071  -0.866  -0.044  0.00  0.00    -0.046 Br
ATOM     18 BR   UNL     1       1.144   3.987   0.013  0.00  0.00    -0.050 Br
BRANCH  15  19
ATOM     19  O   UNL     1       1.259  -2.039  -0.022  0.00  0.00    -0.505 OA
ATOM     20  H   UNL     1       1.277  -2.438   0.859  0.00  0.00    +0.292 HD
ENDBRANCH  15  19
ENDBRANCH   9  16
ENDBRANCH   1  10
BRANCH   4  21
ATOM     21  S   UNL     1      -0.585  -7.577  -0.023  0.00  0.00    -0.083 S 
BRANCH  21  22
ATOM     22  C   UNL     1      -1.675  -9.027  -0.026  0.00  0.00    +0.093 C 
BRANCH  22  23
ATOM     23  C   UNL     1      -0.828 -10.301  -0.036  0.00  0.00    +0.095 C 
BRANCH  23  24
ATOM     24  N   UNL     1      -1.711 -11.475  -0.038  0.00  0.00    -0.297 NA
ATOM     25  C   UNL     1      -2.461 -11.573   1.222  0.00  0.00    +0.112 C 
ATOM     26  C   UNL     1      -3.409 -12.773   1.154  0.00  0.00    +0.175 C 
ATOM     27  O   UNL     1      -2.654 -13.956   0.881  0.00  0.00    -0.377 OA
ATOM     28  C   UNL     1      -1.911 -13.896  -0.340  0.00  0.00    +0.175 C 
ATOM     29  C   UNL     1      -0.948 -12.707  -0.287  0.00  0.00    +0.112 C 
ENDBRANCH  23  24
ENDBRANCH  22  23
ENDBRANCH  21  22
ENDBRANCH   4  21
TORSDOF 7
