REMARK  Name = ZINC12577069
REMARK  5 active torsions:
REMARK  status: ('A' for Active; 'I' for Inactive)
REMARK    1  A    between atoms: C_1  and  O_2
REMARK    2  A    between atoms: O_2  and  C_3
REMARK    3  A    between atoms: C_10  and  C_14
REMARK    4  A    between atoms: N_19  and  N_20
REMARK    5  A    between atoms: C_21  and  C_22
REMARK                            x       y       z     vdW  Elec       q    Type
REMARK                         _______ _______ _______ _____ _____    ______ ____
ROOT
ATOM      1  C   UNL     1      -0.118   5.669   0.033  0.00  0.00    +0.047 A 
ATOM      2  C   UNL     1      -0.845   6.512  -0.768  0.00  0.00    +0.129 A 
ATOM      3  N   UNL     1      -0.766   7.809  -0.581  0.00  0.00    -0.231 NA
ATOM      4  C   UNL     1       0.011   8.325   0.360  0.00  0.00    +0.178 A 
ATOM      5  S   UNL     1       0.716   6.851   1.085  0.00  0.00    -0.051 S 
ATOM      6  N   UNL     1       0.220   9.651   0.694  0.00  0.00    -0.215 N 
ATOM      7  H   UNL     1       0.826   9.880   1.416  0.00  0.00    +0.176 HD
ENDROOT
BRANCH   1  15
ATOM      8  C   UNL     1       2.409   0.015  -0.020  0.00  0.00    +0.121 A 
ATOM      9  C   UNL     1       1.203  -0.681  -0.013  0.00  0.00    +0.049 A 
ATOM     10  C   UNL     1       0.002  -0.004   0.002  0.00  0.00    +0.050 A 
ATOM     11  C   UNL     1      -0.017   1.386   0.010  0.00  0.00    +0.139 A 
ATOM     12  C   UNL     1       1.198   2.093   0.002  0.00  0.00    +0.022 A 
ATOM     13  C   UNL     1       2.413   1.395  -0.013  0.00  0.00    +0.057 A 
ATOM     14  C   UNL     1       1.184   3.556   0.010  0.00  0.00    +0.027 A 
ATOM     15  C   UNL     1      -0.040   4.196   0.025  0.00  0.00    +0.075 A 
ATOM     16  C   UNL     1      -1.263   3.383   0.032  0.00  0.00    +0.346 A 
ATOM     17  O   UNL     1      -2.349   3.931   0.045  0.00  0.00    -0.244 OA
ATOM     18  O   UNL     1      -1.196   2.044   0.030  0.00  0.00    -0.422 OA
BRANCH   8  20
ATOM     19  C   UNL     1       3.507  -2.094  -0.040  0.00  0.00    +0.277 C 
ATOM     20  O   UNL     1       3.585  -0.667  -0.034  0.00  0.00    -0.495 OA
ENDBRANCH   8  20
ENDBRANCH   1  15
BRANCH   6  21
ATOM     21  N   UNL     1      -0.443  10.664  -0.012  0.00  0.00    -0.188 NA
ATOM     22  C   UNL     1      -0.246  11.909   0.301  0.00  0.00    +0.138 C 
BRANCH  22  23
ATOM     23  C   UNL     1      -0.944  12.974  -0.442  0.00  0.00    -0.005 A 
ATOM     24  C   UNL     1      -1.813  12.649  -1.486  0.00  0.00    +0.010 A 
ATOM     25  C   UNL     1      -2.466  13.650  -2.173  0.00  0.00    +0.016 A 
ATOM     26  C   UNL     1      -2.254  14.977  -1.837  0.00  0.00    +0.018 A 
ATOM     27  C   UNL     1      -1.390  15.307  -0.806  0.00  0.00    +0.016 A 
ATOM     28  C   UNL     1      -0.735  14.315  -0.107  0.00  0.00    +0.010 A 
ATOM     29 BR   UNL     1      -3.148  16.344  -2.790  0.00  0.00    -0.050 Br
ENDBRANCH  22  23
ENDBRANCH   6  21
TORSDOF 4
