REMARK  Name = ZINC51681598
REMARK  8 active torsions:
REMARK  status: ('A' for Active; 'I' for Inactive)
REMARK    1  A    between atoms: C_1  and  C_2
REMARK    2  A    between atoms: C_2  and  C_3
REMARK    3  A    between atoms: C_3  and  C_4
REMARK    4  A    between atoms: C_4  and  C_6
REMARK    5  A    between atoms: C_4  and  N_7
REMARK    6  A    between atoms: C_8  and  C_10
REMARK    7  A    between atoms: N_19  and  C_20
REMARK    8  A    between atoms: N_23  and  C_26
REMARK                            x       y       z     vdW  Elec       q    Type
REMARK                         _______ _______ _______ _____ _____    ______ ____
ROOT
ATOM      1  C   UNL     1      -2.327  -4.292   1.026  0.00  0.00    +0.092 C 
ATOM      2  C   UNL     1      -2.412  -5.693   0.416  0.00  0.00    +0.016 C 
ATOM      3  C   UNL     1      -3.848  -6.212   0.524  0.00  0.00    +0.020 C 
ATOM      4  C   UNL     1      -4.245  -6.302   2.001  0.00  0.00    +0.109 C 
ATOM      5  N   UNL     1      -4.027  -4.992   2.630  0.00  0.00    -0.285 N 
ATOM      6  C   UNL     1      -2.707  -4.360   2.508  0.00  0.00    +0.122 C 
ATOM      7  C   UNL     1      -5.021  -4.381   3.305  0.00  0.00    +0.302 C 
ATOM      8  O   UNL     1      -4.804  -3.342   3.898  0.00  0.00    -0.253 OA
ATOM      9  N   UNL     1      -6.256  -4.922   3.322  0.00  0.00    -0.297 N 
ATOM     10  H   UNL     1      -6.412  -5.787   2.912  0.00  0.00    +0.151 HD
ENDROOT
BRANCH   9  11
ATOM     11  C   UNL     1      -7.361  -4.204   3.962  0.00  0.00    +0.071 C 
ATOM     12  C   UNL     1      -7.374  -4.513   5.461  0.00  0.00    +0.004 C 
ATOM     13  C   UNL     1      -8.577  -3.824   6.109  0.00  0.00    -0.077 C 
ATOM     14  N   UNL     1      -9.816  -4.317   5.495  0.00  0.00    +0.382 N 
ATOM     15  C   UNL     1      -9.843  -3.961   4.072  0.00  0.00    -0.077 C 
ATOM     16  C   UNL     1      -8.689  -4.655   3.346  0.00  0.00    +0.004 C 
ATOM     17  H   UNL     1      -9.861  -5.321   5.590  0.00  0.00    -0.081 HD
BRANCH  14  18
ATOM     18  C   UNL     1     -10.970  -3.711   6.172  0.00  0.00    -0.069 C 
ATOM     19  C   UNL     1     -11.855  -4.629   7.018  0.00  0.00    -0.017 C 
ATOM     20  C   UNL     1     -12.364  -4.100   5.676  0.00  0.00    -0.017 C 
ENDBRANCH  14  18
ENDBRANCH   9  11
BRANCH   1  22
ATOM     21  N   UNL     1      -0.607  -2.546   1.362  0.00  0.00    -0.312 N 
ATOM     22  C   UNL     1      -0.920  -3.769   0.891  0.00  0.00    +0.218 C 
ATOM     23  O   UNL     1      -0.069  -4.450   0.358  0.00  0.00    -0.275 OA
ATOM     24  H   UNL     1      -1.288  -2.002   1.788  0.00  0.00    +0.149 HD
BRANCH  21  25
ATOM     25  C   UNL     1       0.760  -2.038   1.230  0.00  0.00    +0.070 C 
ATOM     26  C   UNL     1       1.607  -2.543   2.400  0.00  0.00    +0.028 C 
BRANCH  25  27
ATOM     27  C   UNL     1       0.739  -0.508   1.240  0.00  0.00    +0.022 C 
BRANCH  27  29
ATOM     28  C   UNL     1      -0.023   1.529   0.010  0.00  0.00    +0.004 C 
ATOM     29  C   UNL     1      -0.002  -0.001   0.001  0.00  0.00    -0.002 C 
ENDBRANCH  27  29
ENDBRANCH  25  27
ENDBRANCH  21  25
ENDBRANCH   1  22
TORSDOF 6
