REMARK  Name = ZINC64789259
REMARK  7 active torsions:
REMARK  status: ('A' for Active; 'I' for Inactive)
REMARK    1  A    between atoms: C_1  and  C_2
REMARK    2  A    between atoms: C_2  and  C_3
REMARK    3  A    between atoms: C_6  and  C_26
REMARK    4  A    between atoms: N_16  and  C_19
REMARK    5  A    between atoms: C_29  and  C_32
REMARK    6  A    between atoms: C_32  and  C_33
REMARK    7  A    between atoms: C_32  and  C_34
REMARK                            x       y       z     vdW  Elec       q    Type
REMARK                         _______ _______ _______ _____ _____    ______ ____
ROOT
ATOM      1  C   UNL     1       0.731  -0.503   1.223  0.00  0.00    +0.232 C 
ATOM      2  O   UNL     1       1.189   0.287   2.021  0.00  0.00    -0.274 OA
ATOM      3  N   UNL     1       0.874  -1.828   1.428  0.00  0.00    -0.215 N 
ATOM      4  C   UNL     1       1.555  -2.441   2.576  0.00  0.00    +0.132 C 
ATOM      5  C   UNL     1       1.438  -3.957   2.328  0.00  0.00    +0.082 C 
ATOM      6  C   UNL     1       0.679  -4.064   1.025  0.00  0.00    +0.041 C 
ATOM      7  N   UNL     1       0.394  -2.830   0.587  0.00  0.00    -0.264 N 
ATOM      8  C   UNL     1       0.331  -5.243   0.392  0.00  0.00    +0.118 C 
ATOM      9  C   UNL     1       0.682  -6.556   0.963  0.00  0.00    +0.258 C 
ATOM     10  N   UNL     1       0.309  -7.664   0.290  0.00  0.00    -0.235 N 
ATOM     11  C   UNL     1      -0.361  -7.588  -0.868  0.00  0.00    +0.316 C 
ATOM     12  O   UNL     1      -0.667  -8.624  -1.424  0.00  0.00    -0.252 OA
ATOM     13  N   UNL     1      -0.713  -6.430  -1.445  0.00  0.00    -0.218 N 
ATOM     14  C   UNL     1      -0.412  -5.242  -0.881  0.00  0.00    +0.261 C 
ATOM     15  O   UNL     1      -0.741  -4.198  -1.412  0.00  0.00    -0.269 OA
ATOM     16  O   UNL     1       1.291  -6.638   2.013  0.00  0.00    -0.270 OA
ATOM     17  H   UNL     1       0.532  -8.536   0.652  0.00  0.00    +0.159 HD
ATOM     18  H   UNL     1      -0.093  -2.652  -0.233  0.00  0.00    +0.170 HD
ENDROOT
BRANCH  13  19
ATOM     19  C   UNL     1      -1.445  -6.456  -2.713  0.00  0.00    +0.086 C 
ATOM     20  C   UNL     1      -2.767  -7.203  -2.524  0.00  0.00    +0.023 C 
ATOM     21  C   UNL     1      -3.532  -7.229  -3.849  0.00  0.00    +0.002 C 
ATOM     22  C   UNL     1      -2.690  -7.942  -4.909  0.00  0.00    +0.000 C 
ATOM     23  C   UNL     1      -1.368  -7.196  -5.098  0.00  0.00    +0.002 C 
ATOM     24  C   UNL     1      -0.603  -7.169  -3.774  0.00  0.00    +0.023 C 
ENDBRANCH  13  19
BRANCH   4  25
ATOM     25  C   UNL     1       3.002  -2.023   2.615  0.00  0.00    -0.025 A 
ATOM     26  C   UNL     1       3.718  -1.899   1.438  0.00  0.00    +0.006 A 
ATOM     27  C   UNL     1       5.045  -1.515   1.474  0.00  0.00    +0.004 A 
ATOM     28  C   UNL     1       5.657  -1.254   2.685  0.00  0.00    -0.045 A 
ATOM     29  C   UNL     1       4.941  -1.377   3.862  0.00  0.00    +0.004 A 
ATOM     30  C   UNL     1       3.613  -1.757   3.826  0.00  0.00    +0.006 A 
BRANCH  28  31
ATOM     31  C   UNL     1       7.104  -0.836   2.724  0.00  0.00    +0.013 C 
ATOM     32  C   UNL     1       7.220   0.545   3.372  0.00  0.00    +0.012 C 
ATOM     33  C   UNL     1       7.907  -1.851   3.541  0.00  0.00    +0.012 C 
ENDBRANCH  28  31
ENDBRANCH   4  25
BRANCH   1  35
ATOM     34  C   UNL     1      -0.019   1.526   0.010  0.00  0.00    +0.013 C 
ATOM     35  C   UNL     1       0.002  -0.004   0.002  0.00  0.00    +0.094 C 
ENDBRANCH   1  35
TORSDOF 4
