REMARK  Name = ZINC39487429
REMARK  9 active torsions:
REMARK  status: ('A' for Active; 'I' for Inactive)
REMARK    1  A    between atoms: C_1  and  C_2
REMARK    2  A    between atoms: C_2  and  C_3
REMARK    3  A    between atoms: C_3  and  C_4
REMARK    4  A    between atoms: C_4  and  C_25
REMARK    5  A    between atoms: N_6  and  O_24
REMARK    6  A    between atoms: N_9  and  C_10
REMARK    7  A    between atoms: C_10  and  C_11
REMARK    8  A    between atoms: C_11  and  C_18
REMARK    9  A    between atoms: N_14  and  O_17
REMARK                            x       y       z     vdW  Elec       q    Type
REMARK                         _______ _______ _______ _____ _____    ______ ____
ROOT
ATOM      1  C   UNL     1       1.717  -1.084  -4.530  0.00  0.00    -0.008 C 
ATOM      2  C   UNL     1       3.161  -1.577  -4.660  0.00  0.00    +0.026 C 
ATOM      3  C   UNL     1       3.761  -1.756  -3.264  0.00  0.00    +0.115 C 
ATOM      4  N   UNL     1       3.726  -0.475  -2.546  0.00  0.00    -0.191 NA
ATOM      5  C   UNL     1       2.346  -0.004  -2.368  0.00  0.00    +0.115 C 
ATOM      6  C   UNL     1       1.703   0.227  -3.737  0.00  0.00    +0.026 C 
ENDROOT
BRANCH   1   7
ATOM      7  C   UNL     1       1.130  -0.845  -5.922  0.00  0.00    -0.003 C 
ATOM      8  C   UNL     1       1.396  -2.067  -6.804  0.00  0.00    +0.004 C 
ATOM      9  C   UNL     1       0.809  -1.828  -8.197  0.00  0.00    +0.000 C 
ATOM     10  C   UNL     1       1.463  -0.595  -8.822  0.00  0.00    +0.000 C 
ATOM     11  C   UNL     1       1.196   0.627  -7.940  0.00  0.00    +0.000 C 
ATOM     12  C   UNL     1       1.784   0.388  -6.548  0.00  0.00    +0.004 C 
ENDBRANCH   1   7
BRANCH   4  13
ATOM     13  O   UNL     1       4.416  -0.574  -1.260  0.00  0.00    -0.312 OA
ATOM     14  H   UNL     1       4.418   0.247  -0.751  0.00  0.00    +0.237 HD
ENDBRANCH   4  13
BRANCH   1  15
ATOM     15  C   UNL     1       0.882  -2.134  -3.796  0.00  0.00    +0.117 C 
BRANCH  15  21
ATOM     16  C   UNL     1      -1.667  -2.095  -4.351  0.00  0.00    +0.054 C 
ATOM     17  C   UNL     1      -2.817  -1.249  -3.772  0.00  0.00    +0.167 C 
ATOM     18  N   UNL     1      -2.158  -0.399  -2.768  0.00  0.00    -0.165 N 
ATOM     19  C   UNL     1      -0.849  -0.680  -2.744  0.00  0.00    +0.328 C 
ATOM     20  O   UNL     1      -0.064  -0.121  -2.003  0.00  0.00    -0.250 OA
ATOM     21  N   UNL     1      -0.482  -1.633  -3.612  0.00  0.00    -0.276 N 
ATOM     22  C   UNL     1      -1.911  -3.584  -4.096  0.00  0.00    +0.033 C 
BRANCH  18  23
ATOM     23  O   UNL     1      -2.805   0.564  -1.956  0.00  0.00    -0.291 OA
ATOM     24  H   UNL     1      -2.212   1.030  -1.351  0.00  0.00    +0.242 HD
ENDBRANCH  18  23
BRANCH  16  25
ATOM     25  C   UNL     1      -1.504  -1.828  -5.848  0.00  0.00    +0.027 C 
BRANCH  25  27
ATOM     26  C   UNL     1      -2.698  -1.800  -8.043  0.00  0.00    +0.004 C 
ATOM     27  C   UNL     1      -2.777  -2.252  -6.583  0.00  0.00    -0.001 C 
ENDBRANCH  25  27
ENDBRANCH  16  25
ENDBRANCH  15  21
ENDBRANCH   1  15
TORSDOF 7
