REMARK  Name = ZINC40285287
REMARK  3 active torsions:
REMARK  status: ('A' for Active; 'I' for Inactive)
REMARK    1  A    between atoms: C_7  and  C_10
REMARK    2  A    between atoms: C_10  and  C_12
REMARK    3  A    between atoms: C_15  and  N_17
REMARK                            x       y       z     vdW  Elec       q    Type
REMARK                         _______ _______ _______ _____ _____    ______ ____
ROOT
ATOM      1  C   UNL     1       0.282  -3.100  -0.017  0.00  0.00    +0.153 C 
ATOM      2 BR   UNL     1       0.826  -4.813  -0.815  0.00  0.00    -0.075 Br
ENDROOT
BRANCH   1   9
ATOM      3  C   UNL     1      -0.016   1.355   0.009  0.00  0.00    +0.001 A 
ATOM      4  C   UNL     1       1.157   2.097   0.002  0.00  0.00    +0.001 A 
ATOM      5  C   UNL     1       2.374   1.445  -0.013  0.00  0.00    +0.015 A 
ATOM      6  C   UNL     1       2.406   0.067  -0.020  0.00  0.00    +0.020 A 
ATOM      7  C   UNL     1       1.228  -0.711  -0.013  0.00  0.00    -0.006 A 
ATOM      8  C   UNL     1       0.002  -0.004   0.002  0.00  0.00    +0.009 A 
ATOM      9  C   UNL     1       1.451  -2.149  -0.023  0.00  0.00    -0.012 A 
ATOM     10  C   UNL     1       2.706  -2.619  -0.038  0.00  0.00    +0.051 A 
ATOM     11  S   UNL     1       3.704  -1.142  -0.039  0.00  0.00    -0.096 S 
ENDBRANCH   1   9
BRANCH   1  12
ATOM     12  C   UNL     1      -0.172  -3.329   1.402  0.00  0.00    +0.126 A 
ATOM     13  C   UNL     1      -1.364  -2.972   1.914  0.00  0.00    +0.048 A 
ATOM     14  C   UNL     1      -1.365  -3.375   3.269  0.00  0.00    +0.076 A 
ATOM     15  C   UNL     1      -0.173  -3.954   3.504  0.00  0.00    +0.280 A 
ATOM     16  O   UNL     1       0.543  -3.928   2.368  0.00  0.00    -0.438 OA
BRANCH  15  17
ATOM     17  N   UNL     1       0.271  -4.527   4.795  0.00  0.00    +0.093 N 
ATOM     18  O   UNL     1      -0.465  -4.499   5.754  0.00  0.00    -0.123 OA
ATOM     19  O   UNL     1       1.369  -5.024   4.890  0.00  0.00    -0.123 OA
ENDBRANCH  15  17
ENDBRANCH   1  12
TORSDOF 3
