REMARK  Name = ZINC09514531
REMARK  5 active torsions:
REMARK  status: ('A' for Active; 'I' for Inactive)
REMARK    1  A    between atoms: C_1  and  C_2
REMARK    2  A    between atoms: C_2  and  C_29
REMARK    3  A    between atoms: N_5  and  C_9
REMARK    4  A    between atoms: C_9  and  C_10
REMARK    5  A    between atoms: C_21  and  C_23
REMARK                            x       y       z     vdW  Elec       q    Type
REMARK                         _______ _______ _______ _____ _____    ______ ____
ROOT
ATOM      1  C   UNL     1      -0.535  -0.528   1.328  0.00  0.00    +0.047 C 
ATOM      2  C   UNL     1      -0.002   0.011  -0.001  0.00  0.00    +0.136 C 
ATOM      3  C   UNL     1      -0.822  -0.521  -1.160  0.00  0.00    +0.251 C 
ATOM      4  O   UNL     1      -2.005  -0.347  -1.361  0.00  0.00    -0.272 OA
ATOM      5  N   UNL     1       0.037  -1.228  -1.920  0.00  0.00    -0.215 N 
ATOM      6  C   UNL     1       1.274  -1.216  -1.409  0.00  0.00    +0.310 C 
ATOM      7  O   UNL     1       2.220  -1.784  -1.917  0.00  0.00    -0.252 OA
ATOM      8  N   UNL     1       1.351  -0.506  -0.269  0.00  0.00    -0.281 N 
ATOM      9  H   UNL     1       2.144  -0.363   0.272  0.00  0.00    +0.152 HD
ENDROOT
BRANCH   2  10
ATOM     10  C   UNL     1      -0.003   1.518   0.001  0.00  0.00    -0.008 A 
ATOM     11  C   UNL     1       1.160   2.203  -0.175  0.00  0.00    +0.007 A 
ATOM     12  C   UNL     1       1.179   3.596  -0.176  0.00  0.00    +0.001 A 
ATOM     13  C   UNL     1       0.035   4.313  -0.002  0.00  0.00    +0.008 A 
ATOM     14  C   UNL     1      -1.185   3.640   0.183  0.00  0.00    -0.018 A 
ATOM     15  C   UNL     1      -1.205   2.223   0.179  0.00  0.00    -0.012 A 
ATOM     16  C   UNL     1      -2.426   1.551   0.358  0.00  0.00    +0.009 A 
ATOM     17  C   UNL     1      -3.571   2.267   0.527  0.00  0.00    +0.001 A 
ATOM     18  C   UNL     1      -3.552   3.661   0.526  0.00  0.00    +0.001 A 
ATOM     19  C   UNL     1      -2.387   4.346   0.366  0.00  0.00    +0.008 A 
ENDBRANCH   2  10
BRANCH   5  20
ATOM     20  C   UNL     1      -0.336  -1.922  -3.155  0.00  0.00    +0.214 C 
BRANCH  20  21
ATOM     21  C   UNL     1      -0.164  -0.990  -4.327  0.00  0.00    +0.238 C 
ATOM     22  O   UNL     1       0.316   0.111  -4.161  0.00  0.00    -0.273 OA
ATOM     23  N   UNL     1      -0.544  -1.380  -5.560  0.00  0.00    -0.256 N 
ATOM     24  C   UNL     1      -0.321  -0.564  -6.682  0.00  0.00    +0.079 A 
ATOM     25  C   UNL     1       0.045   0.761  -6.517  0.00  0.00    +0.027 A 
ATOM     26  C   UNL     1       0.271   1.557  -7.625  0.00  0.00    +0.002 A 
ATOM     27  C   UNL     1       0.138   1.029  -8.896  0.00  0.00    +0.004 A 
ATOM     28  C   UNL     1      -0.222  -0.294  -9.067  0.00  0.00    +0.047 A 
ATOM     29  C   UNL     1      -0.453  -1.100  -7.961  0.00  0.00    +0.142 A 
ATOM     30  O   UNL     1      -0.810  -2.399  -8.139  0.00  0.00    -0.488 OA
ATOM     31  C   UNL     1      -0.614  -3.299  -7.046  0.00  0.00    +0.256 C 
ATOM     32  C   UNL     1      -1.213  -2.674  -5.777  0.00  0.00    +0.149 C 
BRANCH  32  33
ATOM     33  C   UNL     1      -2.693  -2.460  -5.961  0.00  0.00    -0.023 A 
ATOM     34  C   UNL     1      -3.150  -1.382  -6.696  0.00  0.00    +0.005 A 
ATOM     35  C   UNL     1      -4.507  -1.188  -6.868  0.00  0.00    +0.000 A 
ATOM     36  C   UNL     1      -5.409  -2.067  -6.298  0.00  0.00    +0.000 A 
ATOM     37  C   UNL     1      -4.953  -3.142  -5.559  0.00  0.00    +0.000 A 
ATOM     38  C   UNL     1      -3.595  -3.339  -5.390  0.00  0.00    +0.005 A 
ENDBRANCH  32  33
ENDBRANCH  20  21
ENDBRANCH   5  20
TORSDOF 4
