REMARK  Name = ZINC05222649
REMARK  11 active torsions:
REMARK  status: ('A' for Active; 'I' for Inactive)
REMARK    1  A    between atoms: C_1  and  C_2
REMARK    2  A    between atoms: C_2  and  O_4
REMARK    3  A    between atoms: O_4  and  C_5
REMARK    4  A    between atoms: C_9  and  C_35
REMARK    5  A    between atoms: C_12  and  C_13
REMARK    6  A    between atoms: C_12  and  C_14
REMARK    7  A    between atoms: C_17  and  C_33
REMARK    8  A    between atoms: C_17  and  O_34
REMARK    9  A    between atoms: C_18  and  C_20
REMARK   10  A    between atoms: C_20  and  O_21
REMARK   11  A    between atoms: O_21  and  C_22
REMARK                            x       y       z     vdW  Elec       q    Type
REMARK                         _______ _______ _______ _____ _____    ______ ____
ROOT
ATOM      1  C   UNL     1      -2.815  -2.728   0.633  0.00  0.00    +0.182 C 
ATOM      2  C   UNL     1      -1.664  -2.119   1.425  0.00  0.00    +0.046 C 
ATOM      3  C   UNL     1      -0.721  -1.380   0.479  0.00  0.00    +0.011 C 
ATOM      4  C   UNL     1      -1.466  -0.246  -0.228  0.00  0.00    -0.020 C 
ATOM      5  C   UNL     1      -2.666  -0.779  -0.992  0.00  0.00    +0.005 C 
ATOM      6  C   UNL     1      -3.578  -1.675  -0.163  0.00  0.00    +0.005 C 
ATOM      7  C   UNL     1      -4.467  -0.858   0.784  0.00  0.00    +0.015 C 
ATOM      8  C   UNL     1      -4.556  -2.431  -1.091  0.00  0.00    +0.015 C 
ATOM      9  C   UNL     1      -2.213  -1.524  -2.251  0.00  0.00    +0.007 C 
ATOM     10  C   UNL     1      -1.397  -0.588  -3.149  0.00  0.00    +0.035 C 
ATOM     11  C   UNL     1      -0.125  -0.182  -2.408  0.00  0.00    +0.070 C 
ATOM     12  C   UNL     1      -0.475   0.518  -1.109  0.00  0.00    +0.064 C 
ATOM     13  C   UNL     1       0.681   0.776  -3.299  0.00  0.00    +0.042 C 
ATOM     14  C   UNL     1      -1.909   0.779   0.838  0.00  0.00    +0.012 C 
ENDROOT
BRANCH  11  15
ATOM     15  O   UNL     1       0.673  -1.341  -2.153  0.00  0.00    -0.388 OA
ATOM     16  H   UNL     1       0.926  -1.828  -2.949  0.00  0.00    +0.210 HD
ENDBRANCH  11  15
BRANCH   1  17
ATOM     17  O   UNL     1      -2.310  -3.758  -0.258  0.00  0.00    -0.461 OA
BRANCH  17  19
ATOM     18  C   UNL     1      -1.744  -6.130  -0.640  0.00  0.00    +0.136 C 
ATOM     19  C   UNL     1      -2.256  -5.009   0.226  0.00  0.00    +0.304 C 
ATOM     20  O   UNL     1      -2.618  -5.236   1.356  0.00  0.00    -0.251 OA
ENDBRANCH  17  19
ENDBRANCH   1  17
BRANCH  12  21
ATOM     21  C   UNL     1      -1.024   1.920  -1.395  0.00  0.00    +0.236 C 
BRANCH  21  22
ATOM     22  O   UNL     1      -2.336   1.814  -1.952  0.00  0.00    -0.491 OA
BRANCH  22  23
ATOM     23  C   UNL     1      -2.969   2.973  -2.264  0.00  0.00    +0.124 A 
ATOM     24  C   UNL     1      -2.332   4.192  -2.036  0.00  0.00    +0.046 A 
ATOM     25  C   UNL     1      -2.954   5.366  -2.346  0.00  0.00    +0.015 A 
ATOM     26  C   UNL     1      -4.241   5.347  -2.896  0.00  0.00    +0.018 A 
ATOM     27  C   UNL     1      -4.934   6.591  -3.237  0.00  0.00    +0.018 A 
ATOM     28  C   UNL     1      -6.181   6.506  -3.768  0.00  0.00    +0.092 A 
ATOM     29  C   UNL     1      -6.771   5.242  -3.974  0.00  0.00    +0.337 A 
ATOM     30  O   UNL     1      -7.891   5.180  -4.450  0.00  0.00    -0.245 OA
ATOM     31  O   UNL     1      -6.131   4.105  -3.659  0.00  0.00    -0.422 OA
ATOM     32  C   UNL     1      -4.890   4.120  -3.128  0.00  0.00    +0.143 A 
ATOM     33  C   UNL     1      -4.240   2.936  -2.813  0.00  0.00    +0.092 A 
ENDBRANCH  22  23
ENDBRANCH  21  22
ENDBRANCH  12  21
TORSDOF 6
