REMARK  Name = ZINC37785255
REMARK  8 active torsions:
REMARK  status: ('A' for Active; 'I' for Inactive)
REMARK    1  A    between atoms: C_1  and  C_2
REMARK    2  A    between atoms: C_4  and  C_21
REMARK    3  A    between atoms: C_5  and  C_9
REMARK    4  A    between atoms: C_6  and  C_8
REMARK    5  A    between atoms: C_9  and  C_11
REMARK    6  A    between atoms: C_9  and  N_12
REMARK    7  A    between atoms: N_12  and  C_13
REMARK    8  A    between atoms: N_18  and  C_20
REMARK                            x       y       z     vdW  Elec       q    Type
REMARK                         _______ _______ _______ _____ _____    ______ ____
ROOT
ATOM      1  C   UNL     1      -0.349  -4.381  -0.173  0.00  0.00    +0.098 C 
ATOM      2  C   UNL     1       0.902  -4.972   0.480  0.00  0.00    +0.033 C 
ENDROOT
BRANCH   1   7
ATOM      3  C   UNL     1      -0.522   1.312   0.806  0.00  0.00    +0.044 C 
ATOM      4  C   UNL     1      -0.477  -0.173   0.551  0.00  0.00    -0.050 A 
ATOM      5  C   UNL     1      -0.749  -1.059   1.577  0.00  0.00    +0.007 A 
ATOM      6  C   UNL     1      -0.708  -2.421   1.342  0.00  0.00    -0.045 A 
ATOM      7  C   UNL     1      -0.395  -2.896   0.083  0.00  0.00    -0.022 A 
ATOM      8  C   UNL     1      -0.123  -2.010  -0.943  0.00  0.00    -0.045 A 
ATOM      9  C   UNL     1      -0.169  -0.648  -0.710  0.00  0.00    +0.007 A 
ATOM     10  C   UNL     1       0.218  -2.528  -2.316  0.00  0.00    +0.044 C 
ATOM     11  C   UNL     1      -1.003  -3.387   2.460  0.00  0.00    +0.044 C 
ENDBRANCH   1   7
BRANCH   1  12
ATOM     12  N   UNL     1      -1.542  -5.012   0.398  0.00  0.00    -0.336 N 
ATOM     13  H   UNL     1      -2.084  -4.530   1.042  0.00  0.00    +0.147 HD
BRANCH  12  14
ATOM     14  C   UNL     1      -1.901  -6.312   0.011  0.00  0.00    +0.044 A 
ATOM     15  C   UNL     1      -1.113  -7.013  -0.919  0.00  0.00    +0.030 A 
ATOM     16  C   UNL     1      -1.478  -8.276  -1.282  0.00  0.00    +0.072 A 
ATOM     17  C   UNL     1      -2.631  -8.850  -0.721  0.00  0.00    +0.251 A 
ATOM     18  O   UNL     1      -2.966  -9.980  -1.040  0.00  0.00    -0.268 OA
ATOM     19  N   UNL     1      -3.367  -8.157   0.168  0.00  0.00    -0.316 N 
ATOM     20  C   UNL     1      -3.007  -6.898   0.539  0.00  0.00    +0.111 A 
ATOM     21  C   UNL     1      -4.567  -8.766   0.745  0.00  0.00    +0.152 C 
ENDBRANCH  12  14
ENDBRANCH   1  12
TORSDOF 3
