REMARK  Name = ZINC37908916
REMARK  2 active torsions:
REMARK  status: ('A' for Active; 'I' for Inactive)
REMARK    1  A    between atoms: C_5  and  S_8
REMARK    2  A    between atoms: S_8  and  N_11
REMARK                            x       y       z     vdW  Elec       q    Type
REMARK                         _______ _______ _______ _____ _____    ______ ____
ROOT
ATOM      1  S   UNL     1       1.234  -2.442  -0.023  0.00  0.00    +0.066 S 
ATOM      2  O   UNL     1      -0.011  -2.861  -0.564  0.00  0.00    -0.153 OA
ATOM      3  O   UNL     1       2.479  -2.828  -0.589  0.00  0.00    -0.153 OA
ENDROOT
BRANCH   1   4
ATOM      4  N   UNL     1       1.257  -2.941   1.556  0.00  0.00    -0.178 NA
ATOM      5  C   UNL     1       2.450  -3.184   2.384  0.00  0.00    +0.111 C 
ATOM      6  C   UNL     1       2.049  -2.835   3.827  0.00  0.00    -0.010 C 
ATOM      7  C   UNL     1       2.520  -3.962   4.772  0.00  0.00    -0.016 C 
ATOM      8  C   UNL     1       1.286  -4.190   5.681  0.00  0.00    -0.082 C 
ATOM      9  N   UNL     1       0.142  -4.028   4.749  0.00  0.00    +0.382 N 
ATOM     10  C   UNL     1       0.502  -2.883   3.846  0.00  0.00    -0.052 C 
ATOM     11  C   UNL     1       0.089  -3.222   2.406  0.00  0.00    +0.094 C 
ATOM     12  H   UNL     1       0.008  -4.872   4.213  0.00  0.00    -0.085 HD
ATOM     13  H   UNL     1      -0.696  -3.805   5.263  0.00  0.00    -0.085 HD
ENDBRANCH   1   4
BRANCH   1  18
ATOM     14  C   UNL     1      -0.017   1.380   0.010  0.00  0.00    +0.078 A 
ATOM     15  C   UNL     1       1.173   2.088   0.002  0.00  0.00    +0.129 A 
ATOM     16  C   UNL     1       2.381   1.413  -0.013  0.00  0.00    +0.078 A 
ATOM     17  C   UNL     1       2.400   0.029  -0.021  0.00  0.00    +0.155 A 
ATOM     18  C   UNL     1       1.210  -0.680  -0.013  0.00  0.00    +0.176 A 
ATOM     19  C   UNL     1       0.002  -0.004   0.002  0.00  0.00    +0.155 A 
ATOM     20  F   UNL     1      -1.159  -0.695   0.009  0.00  0.00    -0.203 F 
ATOM     21  F   UNL     1       3.579  -0.631  -0.036  0.00  0.00    -0.203 F 
ATOM     22  F   UNL     1       1.154   3.439   0.009  0.00  0.00    -0.205 F 
ENDBRANCH   1  18
TORSDOF 2
