REMARK  Name = ZINC09723399
REMARK  9 active torsions:
REMARK  status: ('A' for Active; 'I' for Inactive)
REMARK    1  A    between atoms: C_1  and  O_2
REMARK    2  A    between atoms: O_2  and  C_3
REMARK    3  A    between atoms: C_3  and  C_4
REMARK    4  A    between atoms: C_4  and  N_5
REMARK    5  A    between atoms: C_9  and  S_24
REMARK    6  A    between atoms: N_14  and  C_15
REMARK    7  A    between atoms: C_15  and  C_17
REMARK    8  A    between atoms: C_18  and  C_19
REMARK    9  A    between atoms: S_24  and  N_27
REMARK                            x       y       z     vdW  Elec       q    Type
REMARK                         _______ _______ _______ _____ _____    ______ ____
ROOT
ATOM      1  N   UNL     1       1.039   2.201   0.019  0.00  0.00    -0.319 N 
ATOM      2  C   UNL     1       0.826   3.567   0.067  0.00  0.00    +0.058 A 
ATOM      3  C   UNL     1       1.795   4.584   0.092  0.00  0.00    +0.029 A 
ATOM      4  C   UNL     1       1.428   5.907   0.141  0.00  0.00    +0.030 A 
ATOM      5  C   UNL     1       0.095   6.283   0.166  0.00  0.00    +0.106 A 
ATOM      6  C   UNL     1      -0.881   5.303   0.142  0.00  0.00    +0.045 A 
ATOM      7  C   UNL     1      -0.515   3.979   0.094  0.00  0.00    +0.041 A 
ATOM      8  S   UNL     1      -1.417   2.449   0.042  0.00  0.00    -0.052 S 
ATOM      9  C   UNL     1      -0.018   1.340  -0.001  0.00  0.00    +0.167 A 
ATOM     10  N   UNL     1      -0.011   0.014  -0.046  0.00  0.00    -0.153 NA
ENDROOT
BRANCH   5  11
ATOM     11  S   UNL     1      -0.351   7.986   0.228  0.00  0.00    +0.056 S 
ATOM     12  O   UNL     1       0.746   8.713  -0.309  0.00  0.00    -0.153 OA
ATOM     13  O   UNL     1      -1.664   8.082  -0.308  0.00  0.00    -0.153 OA
BRANCH  11  14
ATOM     14  N   UNL     1      -0.461   8.406   1.826  0.00  0.00    -0.204 NA
ATOM     15  H   UNL     1      -0.287   7.745   2.514  0.00  0.00    +0.144 HD
ATOM     16  H   UNL     1      -0.699   9.314   2.074  0.00  0.00    +0.144 HD
ENDBRANCH  11  14
ENDBRANCH   5  11
BRANCH  10  17
ATOM     17  C   UNL     1      -1.169  -0.664  -0.058  0.00  0.00    +0.262 C 
ATOM     18  O   UNL     1      -2.229  -0.060  -0.027  0.00  0.00    -0.269 OA
BRANCH  17  19
ATOM     19  C   UNL     1      -1.160  -2.126  -0.107  0.00  0.00    +0.070 C 
ATOM     20  C   UNL     1      -2.328  -2.810  -0.120  0.00  0.00    +0.020 C 
BRANCH  20  21
ATOM     21  C   UNL     1      -2.319  -4.227  -0.168  0.00  0.00    +0.012 A 
ATOM     22  C   UNL     1      -3.392  -5.109  -0.182  0.00  0.00    +0.015 A 
ATOM     23  C   UNL     1      -3.097  -6.449  -0.235  0.00  0.00    +0.008 A 
ATOM     24  C   UNL     1      -1.797  -6.842  -0.261  0.00  0.00    +0.046 A 
ATOM     25  S   UNL     1      -0.928  -5.342  -0.218  0.00  0.00    -0.097 S 
ENDBRANCH  20  21
ENDBRANCH  17  19
ENDBRANCH  10  17
BRANCH   1  26
ATOM     26  C   UNL     1       2.407   1.677  -0.011  0.00  0.00    +0.152 C 
BRANCH  26  27
ATOM     27  C   UNL     1       2.477   0.387   0.809  0.00  0.00    +0.181 C 
BRANCH  27  29
ATOM     28  C   UNL     1       4.012  -1.256   1.640  0.00  0.00    +0.194 C 
ATOM     29  O   UNL     1       3.835  -0.052   0.891  0.00  0.00    -0.381 OA
ENDBRANCH  27  29
ENDBRANCH  26  27
ENDBRANCH   1  26
TORSDOF 8
