REMARK  Name = ZINC12658477
REMARK  14 active torsions:
REMARK  status: ('A' for Active; 'I' for Inactive)
REMARK    1  A    between atoms: C_1  and  C_2
REMARK    2  A    between atoms: C_2  and  C_4
REMARK    3  A    between atoms: C_2  and  N_11
REMARK    4  A    between atoms: C_4  and  C_5
REMARK    5  A    between atoms: C_5  and  C_6
REMARK    6  A    between atoms: N_11  and  C_12
REMARK    7  A    between atoms: C_20  and  N_68
REMARK    8  A    between atoms: C_26  and  O_34
REMARK    9  A    between atoms: C_27  and  O_32
REMARK   10  A    between atoms: C_28  and  O_30
REMARK   11  A    between atoms: O_30  and  C_31
REMARK   12  A    between atoms: O_32  and  C_33
REMARK   13  A    between atoms: O_34  and  C_35
REMARK   14  A    between atoms: C_36  and  N_68
REMARK                            x       y       z     vdW  Elec       q    Type
REMARK                         _______ _______ _______ _____ _____    ______ ____
ROOT
ATOM      1  C   UNL     1       4.718  -5.256   1.037  0.00  0.00    +0.075 A 
ATOM      2  C   UNL     1       3.742  -6.208   1.013  0.00  0.00    +0.027 A 
ATOM      3  C   UNL     1       3.752  -7.408   0.406  0.00  0.00    +0.011 A 
ATOM      4  C   UNL     1       4.676  -8.046  -0.382  0.00  0.00    -0.012 A 
ATOM      5  C   UNL     1       5.908  -7.532  -0.788  0.00  0.00    -0.050 A 
ATOM      6  C   UNL     1       6.424  -6.353  -0.397  0.00  0.00    +0.055 A 
ATOM      7  C   UNL     1       5.954  -5.352   0.402  0.00  0.00    +0.200 A 
ATOM      8  O   UNL     1       6.721  -4.417   0.590  0.00  0.00    -0.286 OA
ATOM      9  C   UNL     1       6.748  -8.346  -1.751  0.00  0.00    -0.040 C 
ATOM     10  C   UNL     1       7.495  -9.458  -1.042  0.00  0.00    -0.007 C 
ATOM     11  C   UNL     1       6.586 -10.190  -0.059  0.00  0.00    +0.035 C 
ATOM     12  C   UNL     1       5.251 -10.457  -0.705  0.00  0.00    -0.033 A 
ATOM     13  C   UNL     1       4.330  -9.423  -0.844  0.00  0.00    +0.031 A 
ATOM     14  C   UNL     1       3.078  -9.666  -1.416  0.00  0.00    +0.173 A 
ATOM     15  C   UNL     1       2.764 -10.947  -1.852  0.00  0.00    +0.204 A 
ATOM     16  C   UNL     1       3.693 -11.973  -1.718  0.00  0.00    +0.165 A 
ATOM     17  C   UNL     1       4.935 -11.725  -1.145  0.00  0.00    +0.054 A 
ENDROOT
BRANCH   9  19
ATOM     18  C   UNL     1       8.216  -8.053  -3.654  0.00  0.00    -0.100 C 
ATOM     19  N   UNL     1       7.721  -7.449  -2.402  0.00  0.00    +0.382 N 
ATOM     20  H   UNL     1       8.512  -7.289  -1.768  0.00  0.00    -0.085 HD
ATOM     21  H   UNL     1       7.266  -6.553  -2.615  0.00  0.00    -0.085 HD
ENDBRANCH   9  19
BRANCH   1  22
ATOM     22  N   UNL     1       4.456  -4.097   1.747  0.00  0.00    -0.338 N 
ATOM     23  H   UNL     1       5.114  -3.385   1.772  0.00  0.00    +0.146 HD
BRANCH  22  25
ATOM     24  C   UNL     1       3.267  -4.665   3.807  0.00  0.00    +0.028 C 
ATOM     25  C   UNL     1       3.185  -3.945   2.459  0.00  0.00    +0.068 C 
BRANCH  25  26
ATOM     26  C   UNL     1       2.905  -2.459   2.692  0.00  0.00    +0.029 C 
BRANCH  26  27
ATOM     27  C   UNL     1       2.700  -1.762   1.345  0.00  0.00    +0.076 C 
BRANCH  27  28
ATOM     28  C   UNL     1       2.424  -0.298   1.574  0.00  0.00    +0.105 A 
ATOM     29  C   UNL     1       3.349   0.676   1.639  0.00  0.00    +0.044 A 
ATOM     30  C   UNL     1       2.654   1.887   1.864  0.00  0.00    +0.041 A 
ATOM     31  C   UNL     1       1.345   1.580   1.923  0.00  0.00    +0.195 A 
ATOM     32  O   UNL     1       1.212   0.255   1.747  0.00  0.00    -0.468 OA
ENDBRANCH  27  28
ENDBRANCH  26  27
ENDBRANCH  25  26
ENDBRANCH  22  25
ENDBRANCH   1  22
BRANCH  16  33
ATOM     33  O   UNL     1       3.386 -13.225  -2.150  0.00  0.00    -0.491 OA
ATOM     34  C   UNL     1       4.386 -14.232  -1.983  0.00  0.00    +0.277 C 
ENDBRANCH  16  33
BRANCH  15  35
ATOM     35  O   UNL     1       1.548 -11.199  -2.410  0.00  0.00    -0.488 OA
ATOM     36  C   UNL     1       0.498 -11.595  -1.526  0.00  0.00    +0.277 C 
ENDBRANCH  15  35
BRANCH  14  37
ATOM     37  O   UNL     1       2.175  -8.659  -1.544  0.00  0.00    -0.491 OA
ATOM     38  C   UNL     1       2.216  -7.901  -2.755  0.00  0.00    +0.277 C 
ENDBRANCH  14  37
TORSDOF 9
