REMARK  Name = ZINC63956956
REMARK  14 active torsions:
REMARK  status: ('A' for Active; 'I' for Inactive)
REMARK    1  A    between atoms: C_1  and  C_2
REMARK    2  A    between atoms: C_2  and  C_3
REMARK    3  A    between atoms: C_3  and  C_26
REMARK    4  A    between atoms: N_6  and  C_10
REMARK    5  A    between atoms: C_10  and  C_11
REMARK    6  A    between atoms: N_13  and  C_14
REMARK    7  A    between atoms: C_14  and  C_15
REMARK    8  A    between atoms: C_14  and  C_16
REMARK    9  A    between atoms: C_14  and  C_17
REMARK   10  A    between atoms: C_19  and  C_22
REMARK   11  A    between atoms: C_22  and  C_23
REMARK   12  A    between atoms: C_22  and  C_24
REMARK   13  A    between atoms: C_22  and  C_25
REMARK   14  A    between atoms: C_26  and  C_27
REMARK                            x       y       z     vdW  Elec       q    Type
REMARK                         _______ _______ _______ _____ _____    ______ ____
ROOT
ATOM      1  C   UNL     1      -5.368   0.431  -1.812  0.00  0.00    +0.232 C 
ATOM      2  O   UNL     1      -5.362  -0.684  -1.335  0.00  0.00    -0.274 OA
ATOM      3  N   UNL     1      -6.410   0.837  -2.564  0.00  0.00    -0.302 N 
ATOM      4  H   UNL     1      -6.415   1.728  -2.946  0.00  0.00    +0.150 HD
ENDROOT
BRANCH   3   5
ATOM      5  C   UNL     1      -7.536  -0.069  -2.805  0.00  0.00    +0.092 C 
ATOM      6  C   UNL     1      -7.035  -1.328  -3.516  0.00  0.00    +0.040 C 
ATOM      7  C   UNL     1      -8.174  -0.457  -1.470  0.00  0.00    +0.040 C 
BRANCH   5   8
ATOM      8  C   UNL     1      -8.560   0.621  -3.669  0.00  0.00    +0.194 A 
ATOM      9  N   UNL     1      -9.717   0.089  -4.080  0.00  0.00    -0.193 NA
ATOM     10  C   UNL     1     -10.371   0.949  -4.811  0.00  0.00    +0.233 A 
ATOM     11  O   UNL     1      -9.643   2.070  -4.891  0.00  0.00    -0.337 OA
ATOM     12  N   UNL     1      -8.466   1.834  -4.132  0.00  0.00    -0.059 NA
BRANCH  10  13
ATOM     13  C   UNL     1     -11.714   0.720  -5.455  0.00  0.00    +0.041 C 
ATOM     14  C   UNL     1     -12.753   0.416  -4.373  0.00  0.00    +0.020 C 
ATOM     15  C   UNL     1     -12.130   1.974  -6.225  0.00  0.00    +0.020 C 
ATOM     16  C   UNL     1     -11.621  -0.464  -6.420  0.00  0.00    +0.020 C 
ENDBRANCH  10  13
ENDBRANCH   5   8
ENDBRANCH   3   5
BRANCH   1  17
ATOM     17  C   UNL     1      -4.210   1.363  -1.565  0.00  0.00    +0.213 C 
BRANCH  17  21
ATOM     18  C   UNL     1      -1.433  -0.534   0.013  0.00  0.00    +0.112 C 
ATOM     19  C   UNL     1      -2.192  -0.043  -1.205  0.00  0.00    +0.247 C 
ATOM     20  O   UNL     1      -1.933  -0.267  -2.368  0.00  0.00    -0.273 OA
ATOM     21  N   UNL     1      -3.214   0.692  -0.725  0.00  0.00    -0.215 N 
ATOM     22  C   UNL     1      -3.207   0.734   0.612  0.00  0.00    +0.310 C 
ATOM     23  O   UNL     1      -4.031   1.335   1.273  0.00  0.00    -0.252 OA
ATOM     24  N   UNL     1      -2.187   0.036   1.143  0.00  0.00    -0.285 N 
ATOM     25  H   UNL     1      -1.987  -0.072   2.086  0.00  0.00    +0.151 HD
BRANCH  18  27
ATOM     26  C   UNL     1      -0.019   1.526   0.010  0.00  0.00    +0.006 C 
ATOM     27  C   UNL     1       0.002  -0.004   0.002  0.00  0.00    +0.032 C 
ENDBRANCH  18  27
BRANCH  18  28
ATOM     28  C   UNL     1      -1.441  -2.062   0.076  0.00  0.00    +0.032 C 
ATOM     29  C   UNL     1      -2.886  -2.565   0.086  0.00  0.00    +0.006 C 
ENDBRANCH  18  28
ENDBRANCH  17  21
ENDBRANCH   1  17
TORSDOF 7
