REMARK  Name = ZINC35769504
REMARK  8 active torsions:
REMARK  status: ('A' for Active; 'I' for Inactive)
REMARK    1  A    between atoms: C_1  and  C_2
REMARK    2  A    between atoms: C_2  and  C_3
REMARK    3  A    between atoms: C_4  and  C_29
REMARK    4  A    between atoms: C_5  and  N_10
REMARK    5  A    between atoms: C_7  and  C_9
REMARK    6  A    between atoms: N_13  and  S_16
REMARK    7  A    between atoms: S_16  and  C_19
REMARK    8  A    between atoms: C_29  and  C_30
REMARK                            x       y       z     vdW  Elec       q    Type
REMARK                         _______ _______ _______ _____ _____    ______ ____
ROOT
ATOM      1  N   UNL     1      -0.479  -1.909  -4.686  0.00  0.00    -0.312 N 
ATOM      2  C   UNL     1      -1.941  -1.838  -4.551  0.00  0.00    +0.123 C 
ATOM      3  C   UNL     1      -2.503  -1.038  -5.733  0.00  0.00    +0.128 C 
ATOM      4  N   UNL     1      -1.931  -1.573  -6.977  0.00  0.00    -0.174 NA
ATOM      5  C   UNL     1      -0.469  -1.644  -7.111  0.00  0.00    +0.128 C 
ATOM      6  C   UNL     1       0.093  -2.438  -5.932  0.00  0.00    +0.123 C 
ENDROOT
BRANCH   1   9
ATOM      7  C   UNL     1       1.438  -1.833  -1.568  0.00  0.00    +0.050 A 
ATOM      8  C   UNL     1       0.610  -2.308  -2.567  0.00  0.00    +0.018 A 
ATOM      9  C   UNL     1       0.345  -1.479  -3.658  0.00  0.00    +0.129 A 
ATOM     10  N   UNL     1       0.897  -0.269  -3.696  0.00  0.00    -0.217 NA
ATOM     11  C   UNL     1       1.682   0.143  -2.721  0.00  0.00    +0.128 A 
ATOM     12  N   UNL     1       1.947  -0.614  -1.675  0.00  0.00    -0.237 NA
ATOM     13  C   UNL     1       2.289   1.520  -2.802  0.00  0.00    +0.088 C 
BRANCH   7  15
ATOM     14  C   UNL     1       0.642  -2.539   0.672  0.00  0.00    +0.010 C 
ATOM     15  C   UNL     1       1.754  -2.689  -0.369  0.00  0.00    +0.052 C 
ENDBRANCH   7  15
BRANCH   8  16
ATOM     16  C   UNL     1       0.007  -3.686  -2.480  0.00  0.00    +0.075 C 
BRANCH  16  17
ATOM     17  C   UNL     1       1.008  -4.704  -2.964  0.00  0.00    -0.043 A 
ATOM     18  C   UNL     1       1.174  -4.919  -4.319  0.00  0.00    +0.005 A 
ATOM     19  C   UNL     1       2.092  -5.852  -4.763  0.00  0.00    +0.020 A 
ATOM     20  C   UNL     1       2.845  -6.570  -3.852  0.00  0.00    +0.041 A 
ATOM     21  C   UNL     1       2.678  -6.354  -2.495  0.00  0.00    +0.020 A 
ATOM     22  C   UNL     1       1.764  -5.417  -2.052  0.00  0.00    +0.005 A 
ATOM     23 CL   UNL     1       3.997  -7.743  -4.409  0.00  0.00    -0.084 Cl
ENDBRANCH  16  17
ENDBRANCH   8  16
ENDBRANCH   1   9
BRANCH   4  24
ATOM     24  S   UNL     1      -2.916  -2.087  -8.205  0.00  0.00    +0.063 S 
ATOM     25  O   UNL     1      -2.161  -3.018  -8.968  0.00  0.00    -0.153 OA
ATOM     26  O   UNL     1      -4.163  -2.422  -7.612  0.00  0.00    -0.153 OA
BRANCH  24  27
ATOM     27  C   UNL     1      -3.212  -0.700  -9.250  0.00  0.00    +0.131 A 
ATOM     28  C   UNL     1      -2.758  -0.703 -10.534  0.00  0.00    +0.031 A 
ATOM     29  C   UNL     1      -2.981   0.383 -11.377  0.00  0.00    +0.003 A 
ATOM     30  C   UNL     1      -3.661   1.479 -10.941  0.00  0.00    +0.010 A 
ATOM     31  C   UNL     1      -4.144   1.516  -9.623  0.00  0.00    +0.002 A 
ATOM     32  C   UNL     1      -3.923   0.410  -8.764  0.00  0.00    +0.097 A 
ATOM     33  N   UNL     1      -4.385   0.439  -7.510  0.00  0.00    -0.253 NA
ATOM     34  C   UNL     1      -5.049   1.473  -7.052  0.00  0.00    +0.111 A 
ATOM     35  C   UNL     1      -5.305   2.590  -7.845  0.00  0.00    +0.020 A 
ATOM     36  C   UNL     1      -4.851   2.630  -9.132  0.00  0.00    +0.011 A 
ENDBRANCH  24  27
ENDBRANCH   4  24
TORSDOF 6
