REMARK  Name = ZINC02410458
REMARK  3 active torsions:
REMARK  status: ('A' for Active; 'I' for Inactive)
REMARK    1  A    between atoms: N_14  and  C_24
REMARK    2  A    between atoms: C_15  and  C_17
REMARK    3  A    between atoms: C_24  and  C_25
REMARK                            x       y       z     vdW  Elec       q    Type
REMARK                         _______ _______ _______ _____ _____    ______ ____
ROOT
ATOM      1  C   UNL     1      -3.666   2.065   0.047  0.00  0.00    +0.001 A 
ATOM      2  C   UNL     1      -3.608   3.451   0.054  0.00  0.00    +0.004 A 
ATOM      3  C   UNL     1      -2.397   4.107   0.045  0.00  0.00    +0.047 A 
ATOM      4  C   UNL     1      -1.212   3.376   0.031  0.00  0.00    +0.139 A 
ATOM      5  C   UNL     1      -1.281   1.972   0.019  0.00  0.00    +0.064 A 
ATOM      6  C   UNL     1      -2.516   1.325   0.032  0.00  0.00    +0.015 A 
ATOM      7  C   UNL     1      -0.014   1.214   0.009  0.00  0.00    +0.199 A 
ATOM      8  O   UNL     1       0.002  -0.004   0.002  0.00  0.00    -0.287 OA
ATOM      9  C   UNL     1       1.222   2.001   0.001  0.00  0.00    +0.072 A 
ATOM     10  C   UNL     1       1.161   3.354   0.009  0.00  0.00    +0.199 A 
ATOM     11  O   UNL     1      -0.021   4.001   0.023  0.00  0.00    -0.450 OA
ATOM     12  C   UNL     1       2.548   3.885  -0.002  0.00  0.00    +0.284 C 
ATOM     13  O   UNL     1       2.841   5.064   0.001  0.00  0.00    -0.267 OA
ATOM     14  N   UNL     1       3.432   2.873  -0.016  0.00  0.00    -0.276 N 
ATOM     15  C   UNL     1       2.678   1.613  -0.015  0.00  0.00    +0.145 C 
ENDROOT
BRANCH  15  16
ATOM     16  C   UNL     1       2.990   0.820  -1.258  0.00  0.00    -0.021 A 
ATOM     17  C   UNL     1       3.102  -0.556  -1.190  0.00  0.00    +0.006 A 
ATOM     18  C   UNL     1       3.389  -1.284  -2.329  0.00  0.00    +0.001 A 
ATOM     19  C   UNL     1       3.563  -0.636  -3.538  0.00  0.00    +0.015 A 
ATOM     20  C   UNL     1       3.452   0.741  -3.606  0.00  0.00    +0.018 A 
ATOM     21  C   UNL     1       3.160   1.468  -2.466  0.00  0.00    +0.021 A 
ATOM     22 BR   UNL     1       3.691   1.628  -5.259  0.00  0.00    -0.050 Br
ENDBRANCH  15  16
BRANCH  14  23
ATOM     23  C   UNL     1       4.891   3.003  -0.030  0.00  0.00    +0.183 C 
BRANCH  23  24
ATOM     24  C   UNL     1       5.377   3.056  -1.455  0.00  0.00    +0.122 A 
ATOM     25  C   UNL     1       5.529   4.169  -2.194  0.00  0.00    +0.046 A 
ATOM     26  C   UNL     1       6.006   3.759  -3.461  0.00  0.00    +0.041 A 
ATOM     27  C   UNL     1       6.109   2.418  -3.422  0.00  0.00    +0.195 A 
ATOM     28  O   UNL     1       5.728   1.998  -2.205  0.00  0.00    -0.466 OA
ENDBRANCH  23  24
ENDBRANCH  14  23
TORSDOF 3
