REMARK  Name = ZINC59383207
REMARK  8 active torsions:
REMARK  status: ('A' for Active; 'I' for Inactive)
REMARK    1  A    between atoms: C_1  and  C_2
REMARK    2  A    between atoms: C_5  and  N_9
REMARK    3  A    between atoms: C_6  and  C_8
REMARK    4  A    between atoms: N_9  and  C_10
REMARK    5  A    between atoms: C_10  and  C_12
REMARK    6  A    between atoms: C_10  and  N_19
REMARK    7  A    between atoms: C_23  and  C_25
REMARK    8  A    between atoms: C_30  and  O_31
REMARK                            x       y       z     vdW  Elec       q    Type
REMARK                         _______ _______ _______ _____ _____    ______ ____
ROOT
ATOM      1  C   UNL     1      -0.049  -4.894  -1.288  0.00  0.00    +0.226 C 
ENDROOT
BRANCH   1   2
ATOM      2  C   UNL     1       0.886  -6.076  -1.270  0.00  0.00    -0.005 A 
ATOM      3  C   UNL     1       0.575  -7.214  -1.990  0.00  0.00    +0.009 A 
ATOM      4  C   UNL     1       1.432  -8.298  -1.974  0.00  0.00    +0.020 A 
ATOM      5  C   UNL     1       2.602  -8.244  -1.237  0.00  0.00    +0.041 A 
ATOM      6  C   UNL     1       2.913  -7.105  -0.516  0.00  0.00    +0.020 A 
ATOM      7  C   UNL     1       2.057  -6.019  -0.538  0.00  0.00    +0.009 A 
ATOM      8 CL   UNL     1       3.679  -9.605  -1.216  0.00  0.00    -0.084 Cl
ENDBRANCH   1   2
BRANCH   1   9
ATOM      9  N   UNL     1      -1.425  -5.364  -1.467  0.00  0.00    -0.198 N 
ATOM     10  C   UNL     1      -2.348  -4.848  -2.307  0.00  0.00    +0.269 A 
ATOM     11  S   UNL     1      -2.126  -3.519  -3.363  0.00  0.00    +0.011 S 
ATOM     12  O   UNL     1      -3.474  -5.569  -2.161  0.00  0.00    -0.412 OA
ATOM     13  C   UNL     1      -3.259  -6.531  -1.237  0.00  0.00    +0.251 A 
ATOM     14  N   UNL     1      -2.035  -6.439  -0.804  0.00  0.00    -0.127 NA
BRANCH  13  15
ATOM     15  C   UNL     1      -4.253  -7.530  -0.794  0.00  0.00    +0.080 A 
ATOM     16  C   UNL     1      -5.536  -7.535  -1.343  0.00  0.00    +0.017 A 
ATOM     17  C   UNL     1      -6.459  -8.471  -0.925  0.00  0.00    +0.001 A 
ATOM     18  C   UNL     1      -6.119  -9.405   0.038  0.00  0.00    +0.004 A 
ATOM     19  C   UNL     1      -4.852  -9.410   0.589  0.00  0.00    +0.046 A 
ATOM     20  C   UNL     1      -3.911  -8.481   0.175  0.00  0.00    +0.129 A 
BRANCH  20  21
ATOM     21  O   UNL     1      -2.663  -8.488   0.712  0.00  0.00    -0.506 OA
ATOM     22  H   UNL     1      -2.572  -7.940   1.503  0.00  0.00    +0.292 HD
ENDBRANCH  20  21
ENDBRANCH  13  15
ENDBRANCH   1   9
BRANCH   1  23
ATOM     23  N   UNL     1       0.058  -4.167  -0.021  0.00  0.00    -0.319 N 
ATOM     24  H   UNL     1       0.081  -4.655   0.817  0.00  0.00    +0.148 HD
BRANCH  23  29
ATOM     25  C   UNL     1       0.340   1.496  -0.016  0.00  0.00    +0.044 C 
ATOM     26  C   UNL     1       0.265  -0.009  -0.018  0.00  0.00    -0.050 A 
ATOM     27  C   UNL     1       0.281  -0.699  -1.216  0.00  0.00    +0.005 A 
ATOM     28  C   UNL     1       0.213  -2.079  -1.220  0.00  0.00    +0.023 A 
ATOM     29  C   UNL     1       0.128  -2.772  -0.020  0.00  0.00    +0.032 A 
ATOM     30  C   UNL     1       0.112  -2.076   1.182  0.00  0.00    -0.029 A 
ATOM     31  C   UNL     1       0.186  -0.696   1.179  0.00  0.00    +0.008 A 
ATOM     32  C   UNL     1       0.019  -2.824   2.486  0.00  0.00    +0.045 C 
ENDBRANCH  23  29
ENDBRANCH   1  23
TORSDOF 6
