REMARK  Name = ZINC09254205
REMARK  5 active torsions:
REMARK  status: ('A' for Active; 'I' for Inactive)
REMARK    1  A    between atoms: C_1  and  C_2
REMARK    2  A    between atoms: C_15  and  C_17
REMARK    3  A    between atoms: C_17  and  N_18
REMARK    4  A    between atoms: C_21  and  C_25
REMARK    5  A    between atoms: C_21  and  C_26
REMARK                            x       y       z     vdW  Elec       q    Type
REMARK                         _______ _______ _______ _____ _____    ______ ____
ROOT
ATOM      1  N   UNL     1       5.074   1.661   3.261  0.00  0.00    -0.215 N 
ATOM      2  C   UNL     1       6.143   0.857   3.424  0.00  0.00    +0.251 C 
ATOM      3  O   UNL     1       6.414  -0.139   2.788  0.00  0.00    -0.272 OA
ATOM      4  C   UNL     1       6.938   1.459   4.566  0.00  0.00    +0.135 C 
ATOM      5  N   UNL     1       6.146   2.638   4.956  0.00  0.00    -0.281 N 
ATOM      6  C   UNL     1       5.079   2.672   4.138  0.00  0.00    +0.310 C 
ATOM      7  O   UNL     1       4.215   3.526   4.189  0.00  0.00    -0.252 OA
ATOM      8  C   UNL     1       8.332   1.878   4.095  0.00  0.00    +0.047 C 
ATOM      9  H   UNL     1       6.354   3.268   5.663  0.00  0.00    +0.152 HD
ENDROOT
BRANCH   4  10
ATOM     10  C   UNL     1       7.038   0.485   5.712  0.00  0.00    -0.015 A 
ATOM     11  C   UNL     1       7.124  -0.872   5.462  0.00  0.00    +0.006 A 
ATOM     12  C   UNL     1       7.216  -1.762   6.513  0.00  0.00    +0.004 A 
ATOM     13  C   UNL     1       7.221  -1.301   7.819  0.00  0.00    -0.044 A 
ATOM     14  C   UNL     1       7.135   0.056   8.069  0.00  0.00    -0.044 A 
ATOM     15  C   UNL     1       7.049   0.948   7.013  0.00  0.00    +0.010 A 
ATOM     16  C   UNL     1       7.160   0.303   9.562  0.00  0.00    +0.036 C 
ATOM     17  C   UNL     1       6.832  -1.062  10.204  0.00  0.00    +0.009 C 
ATOM     18  C   UNL     1       7.311  -2.058   9.127  0.00  0.00    +0.036 C 
ENDBRANCH   4  10
BRANCH   1  19
ATOM     19  C   UNL     1       4.032   1.451   2.254  0.00  0.00    +0.214 C 
BRANCH  19  33
ATOM     20  C   UNL     1       4.473   1.810  -2.343  0.00  0.00    +0.029 C 
ATOM     21  C   UNL     1       3.939   2.819  -1.324  0.00  0.00    +0.087 C 
ATOM     22  C   UNL     1       2.702   3.513  -1.897  0.00  0.00    +0.118 C 
ATOM     23  C   UNL     1       1.938   4.200  -0.796  0.00  0.00    +0.219 C 
ATOM     24  O   UNL     1       2.002   5.406  -0.680  0.00  0.00    -0.275 OA
ATOM     25  N   UNL     1       1.182   3.482   0.062  0.00  0.00    -0.284 N 
ATOM     26  C   UNL     1       1.175   2.084   0.002  0.00  0.00    +0.055 A 
ATOM     27  C   UNL     1      -0.017   1.379   0.010  0.00  0.00    +0.025 A 
ATOM     28  C   UNL     1       0.002  -0.004   0.002  0.00  0.00    +0.002 A 
ATOM     29  C   UNL     1       1.206  -0.685  -0.016  0.00  0.00    +0.002 A 
ATOM     30  C   UNL     1       2.400   0.012  -0.037  0.00  0.00    +0.025 A 
ATOM     31  C   UNL     1       2.390   1.397  -0.034  0.00  0.00    +0.058 A 
ATOM     32  N   UNL     1       3.589   2.121  -0.086  0.00  0.00    -0.265 N 
ATOM     33  C   UNL     1       4.405   2.174   0.986  0.00  0.00    +0.238 C 
ATOM     34  O   UNL     1       5.441   2.803   0.929  0.00  0.00    -0.273 OA
ATOM     35  H   UNL     1       0.640   3.939   0.725  0.00  0.00    +0.155 HD
ENDBRANCH  19  33
ENDBRANCH   1  19
TORSDOF 3
