REMARK  Name = ZINC15970749
REMARK  5 active torsions:
REMARK  status: ('A' for Active; 'I' for Inactive)
REMARK    1  A    between atoms: C_1  and  N_2
REMARK    2  A    between atoms: C_4  and  C_26
REMARK    3  A    between atoms: C_6  and  C_19
REMARK    4  A    between atoms: C_19  and  C_21
REMARK    5  A    between atoms: C_30  and  N_32
REMARK                            x       y       z     vdW  Elec       q    Type
REMARK                         _______ _______ _______ _____ _____    ______ ____
ROOT
ATOM      1  C   UNL     1       4.224  -5.495   0.049  0.00  0.00    +0.106 C 
ATOM      2  N   UNL     1       2.888  -4.918   0.251  0.00  0.00    -0.287 NA
ATOM      3  C   UNL     1       2.782  -4.275   1.588  0.00  0.00    +0.094 C 
ATOM      4  C   UNL     1       1.595  -3.292   1.419  0.00  0.00    +0.046 C 
ATOM      5  C   UNL     1       1.776  -2.776  -0.029  0.00  0.00    +0.103 C 
ATOM      6  C   UNL     1       2.621  -3.849  -0.728  0.00  0.00    +0.136 C 
ATOM      7  C   UNL     1       1.914  -4.385  -1.944  0.00  0.00    +0.005 A 
ATOM      8  C   UNL     1       0.713  -5.033  -2.129  0.00  0.00    +0.027 A 
ATOM      9  C   UNL     1       0.320  -5.412  -3.401  0.00  0.00    +0.041 A 
ATOM     10  C   UNL     1       1.138  -5.139  -4.484  0.00  0.00    +0.022 A 
ATOM     11  C   UNL     1       2.342  -4.492  -4.301  0.00  0.00    +0.025 A 
ATOM     12  C   UNL     1       2.744  -4.107  -3.024  0.00  0.00    +0.039 A 
ATOM     13  N   UNL     1       3.898  -3.451  -2.590  0.00  0.00    -0.283 N 
ATOM     14  C   UNL     1       3.904  -3.263  -1.257  0.00  0.00    +0.243 C 
ATOM     15  O   UNL     1       4.775  -2.724  -0.607  0.00  0.00    -0.273 OA
ATOM     16 CL   UNL     1      -1.194  -6.228  -3.638  0.00  0.00    -0.084 Cl
ATOM     17  H   UNL     1       4.669  -3.155  -3.317  0.00  0.00    +0.155 HD
ENDROOT
BRANCH   4  18
ATOM     18  C   UNL     1       1.698  -2.157   2.405  0.00  0.00    -0.040 A 
ATOM     19  C   UNL     1       2.860  -1.413   2.483  0.00  0.00    +0.004 A 
ATOM     20  C   UNL     1       2.953  -0.369   3.385  0.00  0.00    +0.002 A 
ATOM     21  C   UNL     1       1.887  -0.076   4.216  0.00  0.00    +0.033 A 
ATOM     22  C   UNL     1       0.728  -0.824   4.141  0.00  0.00    +0.126 A 
ATOM     23  C   UNL     1       0.633  -1.865   3.236  0.00  0.00    +0.036 A 
BRANCH  22  24
ATOM     24  N   UNL     1      -0.413  -0.512   5.031  0.00  0.00    +0.056 N 
ATOM     25  O   UNL     1      -1.435  -1.171   4.966  0.00  0.00    -0.126 OA
ATOM     26  O   UNL     1      -0.330   0.405   5.829  0.00  0.00    -0.126 OA
ENDBRANCH  22  24
ENDBRANCH   4  18
BRANCH   5  27
ATOM     27  C   UNL     1       2.502  -1.456  -0.029  0.00  0.00    +0.176 C 
ATOM     28  O   UNL     1       3.689  -1.415   0.224  0.00  0.00    -0.291 OA
BRANCH  27  29
ATOM     29  C   UNL     1       1.801  -0.265  -0.324  0.00  0.00    +0.055 A 
ATOM     30  C   UNL     1       2.275   1.042  -0.376  0.00  0.00    +0.019 A 
ATOM     31  C   UNL     1       1.369   2.021  -0.689  0.00  0.00    +0.008 A 
ATOM     32  C   UNL     1       0.075   1.677  -0.929  0.00  0.00    +0.046 A 
ATOM     33  S   UNL     1       0.076  -0.045  -0.724  0.00  0.00    -0.094 S 
ENDBRANCH  27  29
ENDBRANCH   5  27
TORSDOF 4
