REMARK  Name = ZINC44568563
REMARK  9 active torsions:
REMARK  status: ('A' for Active; 'I' for Inactive)
REMARK    1  A    between atoms: C_1  and  C_2
REMARK    2  A    between atoms: C_2  and  C_3
REMARK    3  A    between atoms: C_2  and  C_4
REMARK    4  A    between atoms: C_4  and  C_5
REMARK    5  A    between atoms: C_5  and  C_7
REMARK    6  A    between atoms: C_5  and  N_11
REMARK    7  A    between atoms: C_7  and  O_9
REMARK    8  A    between atoms: O_9  and  C_10
REMARK    9  A    between atoms: C_23  and  C_25
REMARK                            x       y       z     vdW  Elec       q    Type
REMARK                         _______ _______ _______ _____ _____    ______ ____
ROOT
ATOM      1  N   UNL     1       2.123   0.913   1.354  0.00  0.00    -0.286 N 
ATOM      2  C   UNL     1       2.801  -0.233   1.146  0.00  0.00    +0.304 C 
ATOM      3  O   UNL     1       2.785  -0.758   0.049  0.00  0.00    -0.253 OA
ATOM      4  N   UNL     1       3.497  -0.797   2.153  0.00  0.00    -0.273 N 
ATOM      5  C   UNL     1       4.334  -1.983   1.918  0.00  0.00    +0.116 C 
ATOM      6  C   UNL     1       5.802  -1.620   2.175  0.00  0.00    +0.074 C 
ATOM      7  C   UNL     1       5.890  -0.828   3.453  0.00  0.00    +0.040 A 
ATOM      8  C   UNL     1       4.849  -0.211   4.052  0.00  0.00    +0.062 A 
ATOM      9  N   UNL     1       5.300   0.391   5.154  0.00  0.00    -0.348 N 
ATOM     10  C   UNL     1       6.584   0.169   5.267  0.00  0.00    +0.171 A 
ATOM     11  N   UNL     1       6.988  -0.590   4.223  0.00  0.00    -0.349 N 
ATOM     12  H   UNL     1       7.890  -0.906   4.055  0.00  0.00    +0.166 HD
ATOM     13  C   UNL     1       3.442  -0.237   3.515  0.00  0.00    +0.156 C 
ATOM     14  H   UNL     1       2.069   1.289   2.247  0.00  0.00    +0.151 HD
ATOM     15  H   UNL     1       4.762   0.910   5.772  0.00  0.00    +0.167 HD
ENDROOT
BRANCH  13  16
ATOM     16  C   UNL     1       2.579  -1.106   4.393  0.00  0.00    -0.021 A 
ATOM     17  C   UNL     1       2.969  -2.401   4.681  0.00  0.00    +0.007 A 
ATOM     18  C   UNL     1       2.179  -3.199   5.486  0.00  0.00    +0.015 A 
ATOM     19  C   UNL     1       0.996  -2.701   6.004  0.00  0.00    +0.018 A 
ATOM     20  C   UNL     1       0.606  -1.406   5.716  0.00  0.00    +0.015 A 
ATOM     21  C   UNL     1       1.400  -0.607   4.915  0.00  0.00    +0.007 A 
ATOM     22 BR   UNL     1      -0.086  -3.793   7.106  0.00  0.00    -0.050 Br
ENDBRANCH  13  16
BRANCH   1  23
ATOM     23  C   UNL     1       1.469   1.591   0.232  0.00  0.00    +0.183 C 
BRANCH  23  24
ATOM     24  C   UNL     1       0.328   2.429   0.749  0.00  0.00    +0.327 C 
ATOM     25  O   UNL     1       0.086   2.457   1.932  0.00  0.00    -0.249 OA
BRANCH  24  26
ATOM     26  O   UNL     1      -0.419   3.145  -0.106  0.00  0.00    -0.467 OA
ATOM     27  C   UNL     1      -1.485   3.916   0.452  0.00  0.00    +0.280 C 
ENDBRANCH  24  26
ENDBRANCH  23  24
BRANCH  23  28
ATOM     28  C   UNL     1       2.481   2.491  -0.480  0.00  0.00    +0.036 C 
BRANCH  28  30
ATOM     29  C   UNL     1       2.966   0.755  -2.210  0.00  0.00    +0.007 C 
ATOM     30  C   UNL     1       3.575   1.628  -1.111  0.00  0.00    -0.015 C 
ATOM     31  C   UNL     1       4.652   2.531  -1.715  0.00  0.00    +0.007 C 
ENDBRANCH  28  30
ENDBRANCH  23  28
ENDBRANCH   1  23
TORSDOF 6
