REMARK  Name = ZINC45022539
REMARK  8 active torsions:
REMARK  status: ('A' for Active; 'I' for Inactive)
REMARK    1  A    between atoms: N_9  and  C_10
REMARK    2  A    between atoms: C_10  and  C_11
REMARK    3  A    between atoms: C_11  and  C_12
REMARK    4  A    between atoms: N_14  and  N_15
REMARK    5  A    between atoms: C_16  and  C_17
REMARK    6  A    between atoms: C_20  and  O_23
REMARK    7  A    between atoms: O_23  and  C_24
REMARK    8  A    between atoms: C_24  and  C_25
REMARK                            x       y       z     vdW  Elec       q    Type
REMARK                         _______ _______ _______ _____ _____    ______ ____
ROOT
ATOM      1  C   UNL     1       6.761   0.561   1.385  0.00  0.00    +0.234 C 
ATOM      2  O   UNL     1       7.329   0.205   0.374  0.00  0.00    -0.274 OA
ATOM      3  N   UNL     1       7.465   0.761   2.518  0.00  0.00    -0.207 N 
ATOM      4  H   UNL     1       7.011   1.045   3.326  0.00  0.00    +0.177 HD
ENDROOT
BRANCH   3   5
ATOM      5  N   UNL     1       8.851   0.559   2.526  0.00  0.00    -0.188 NA
ATOM      6  C   UNL     1       9.511   0.636   3.641  0.00  0.00    +0.138 C 
BRANCH   6   7
ATOM      7  C   UNL     1       8.811   0.459   4.926  0.00  0.00    -0.005 A 
ATOM      8  C   UNL     1       9.438   0.820   6.121  0.00  0.00    +0.013 A 
ATOM      9  C   UNL     1       8.780   0.654   7.320  0.00  0.00    +0.046 A 
ATOM     10  C   UNL     1       7.494   0.129   7.342  0.00  0.00    +0.121 A 
ATOM     11  C   UNL     1       6.867  -0.232   6.156  0.00  0.00    +0.046 A 
ATOM     12  C   UNL     1       7.515  -0.064   4.952  0.00  0.00    +0.013 A 
BRANCH  10  13
ATOM     13  O   UNL     1       6.849  -0.034   8.526  0.00  0.00    -0.487 OA
BRANCH  13  14
ATOM     14  C   UNL     1       5.529  -0.579   8.476  0.00  0.00    +0.266 C 
BRANCH  14  15
ATOM     15  C   UNL     1       4.976  -0.685   9.874  0.00  0.00    +0.008 A 
ATOM     16  C   UNL     1       5.738  -0.273  10.952  0.00  0.00    +0.010 A 
ATOM     17  C   UNL     1       5.231  -0.370  12.234  0.00  0.00    +0.020 A 
ATOM     18  C   UNL     1       3.961  -0.878  12.440  0.00  0.00    +0.042 A 
ATOM     19  C   UNL     1       3.198  -1.290  11.362  0.00  0.00    +0.040 A 
ATOM     20  C   UNL     1       3.704  -1.188  10.078  0.00  0.00    +0.049 A 
ATOM     21 CL   UNL     1       2.745  -1.699   8.725  0.00  0.00    -0.083 Cl
ATOM     22 CL   UNL     1       3.325  -1.000  14.051  0.00  0.00    -0.083 Cl
ENDBRANCH  14  15
ENDBRANCH  13  14
ENDBRANCH  10  13
ENDBRANCH   6   7
ENDBRANCH   3   5
BRANCH   1  23
ATOM     23  C   UNL     1       5.270   0.778   1.376  0.00  0.00    +0.119 C 
BRANCH  23  24
ATOM     24  C   UNL     1       4.720   0.484  -0.021  0.00  0.00    +0.131 C 
BRANCH  24  33
ATOM     25  C   UNL     1       0.854   3.952  -0.812  0.00  0.00    +0.001 A 
ATOM     26  C   UNL     1       2.221   4.171  -0.914  0.00  0.00    +0.002 A 
ATOM     27  C   UNL     1       3.115   3.151  -0.673  0.00  0.00    +0.026 A 
ATOM     28  C   UNL     1       2.647   1.888  -0.325  0.00  0.00    +0.050 A 
ATOM     29  C   UNL     1       1.260   1.671  -0.222  0.00  0.00    +0.003 A 
ATOM     30  C   UNL     1       0.372   2.720  -0.471  0.00  0.00    +0.010 A 
ATOM     31  C   UNL     1       1.103   0.269   0.152  0.00  0.00    -0.019 A 
ATOM     32  C   UNL     1       2.337  -0.261   0.253  0.00  0.00    +0.023 A 
ATOM     33  N   UNL     1       3.271   0.696  -0.030  0.00  0.00    -0.343 N 
ATOM     34  C   UNL     1       2.602  -1.702   0.626  0.00  0.00    +0.054 C 
ATOM     35  C   UNL     1       1.332  -2.283   1.257  0.00  0.00    +0.006 C 
ATOM     36  C   UNL     1       0.132  -1.990   0.353  0.00  0.00    +0.005 C 
ATOM     37  C   UNL     1      -0.178  -0.488   0.392  0.00  0.00    +0.037 C 
ENDBRANCH  24  33
ENDBRANCH  23  24
ENDBRANCH   1  23
TORSDOF 8
