REMARK  Name = ZINC34923279
REMARK  13 active torsions:
REMARK  status: ('A' for Active; 'I' for Inactive)
REMARK    1  A    between atoms: C_1  and  C_2
REMARK    2  A    between atoms: C_2  and  C_3
REMARK    3  A    between atoms: C_4  and  C_33
REMARK    4  A    between atoms: C_5  and  C_25
REMARK    5  A    between atoms: C_8  and  C_13
REMARK    6  A    between atoms: C_14  and  N_16
REMARK    7  A    between atoms: N_16  and  C_17
REMARK    8  A    between atoms: N_16  and  C_18
REMARK    9  A    between atoms: N_21  and  C_24
REMARK   10  A    between atoms: C_28  and  C_32
REMARK   11  A    between atoms: C_30  and  C_31
REMARK   12  A    between atoms: C_33  and  O_35
REMARK   13  A    between atoms: O_35  and  C_36
REMARK                            x       y       z     vdW  Elec       q    Type
REMARK                         _______ _______ _______ _____ _____    ______ ____
ROOT
ATOM      1  C   UNL     1      -1.845  -1.557   0.447  0.00  0.00    +0.056 C 
ATOM      2  C   UNL     1      -2.209  -1.679  -0.881  0.00  0.00    +0.083 C 
ATOM      3  C   UNL     1      -3.680  -1.820  -1.199  0.00  0.00    +0.150 C 
ATOM      4  N   UNL     1      -4.625  -1.817  -0.050  0.00  0.00    -0.267 N 
ATOM      5  C   UNL     1      -5.999  -1.932  -0.104  0.00  0.00    +0.048 C 
ATOM      6  C   UNL     1      -6.677  -1.906   1.065  0.00  0.00    +0.072 C 
ATOM      7  S   UNL     1      -5.360  -1.717   2.250  0.00  0.00    -0.060 S 
ATOM      8  C   UNL     1      -4.061  -1.685   1.188  0.00  0.00    +0.166 C 
ATOM      9  N   UNL     1      -2.765  -1.571   1.397  0.00  0.00    -0.229 NA
ENDROOT
BRANCH   3  10
ATOM     10  C   UNL     1      -3.871  -3.112  -1.951  0.00  0.00    -0.019 A 
ATOM     11  C   UNL     1      -4.167  -4.275  -1.264  0.00  0.00    +0.006 A 
ATOM     12  C   UNL     1      -4.341  -5.460  -1.953  0.00  0.00    +0.004 A 
ATOM     13  C   UNL     1      -4.220  -5.483  -3.330  0.00  0.00    -0.050 A 
ATOM     14  C   UNL     1      -3.925  -4.320  -4.018  0.00  0.00    +0.007 A 
ATOM     15  C   UNL     1      -3.755  -3.134  -3.328  0.00  0.00    -0.045 A 
ATOM     16  C   UNL     1      -3.438  -1.865  -4.078  0.00  0.00    +0.044 C 
ATOM     17  C   UNL     1      -4.409  -6.775  -4.082  0.00  0.00    +0.044 C 
ENDBRANCH   3  10
BRANCH   5  18
ATOM     18  C   UNL     1      -6.701  -2.078  -1.387  0.00  0.00    +0.091 C 
ATOM     19  C   UNL     1      -8.023  -2.336  -1.406  0.00  0.00    +0.241 C 
ATOM     20  O   UNL     1      -8.728  -2.349  -0.249  0.00  0.00    -0.271 OA
BRANCH  19  21
ATOM     21  N   UNL     1      -8.662  -2.587  -2.609  0.00  0.00    -0.298 N 
ATOM     22  C   UNL     1      -7.886  -2.666  -3.849  0.00  0.00    +0.132 C 
BRANCH  21  23
ATOM     23  C   UNL     1     -10.115  -2.773  -2.641  0.00  0.00    +0.073 C 
ATOM     24  C   UNL     1     -10.438  -4.195  -3.110  0.00  0.00    +0.004 C 
ATOM     25  C   UNL     1     -11.956  -4.358  -3.218  0.00  0.00    -0.077 C 
ATOM     26  N   UNL     1     -12.488  -3.389  -4.184  0.00  0.00    +0.378 N 
ATOM     27  C   UNL     1     -12.245  -2.023  -3.705  0.00  0.00    -0.077 C 
ATOM     28  C   UNL     1     -10.738  -1.771  -3.616  0.00  0.00    +0.004 C 
ATOM     29  C   UNL     1     -13.933  -3.601  -4.342  0.00  0.00    -0.096 C 
ATOM     30  H   UNL     1     -12.032  -3.519  -5.075  0.00  0.00    -0.082 HD
ENDBRANCH  21  23
ENDBRANCH  19  21
ENDBRANCH   5  18
BRANCH   1  32
ATOM     31  C   UNL     1      -0.022   0.069   0.868  0.00  0.00    +0.010 C 
ATOM     32  C   UNL     1      -0.391  -1.414   0.815  0.00  0.00    +0.053 C 
ENDBRANCH   1  32
BRANCH   2  33
ATOM     33  C   UNL     1      -1.246  -1.671  -1.898  0.00  0.00    +0.339 C 
ATOM     34  O   UNL     1      -1.015  -0.643  -2.511  0.00  0.00    -0.245 OA
BRANCH  33  35
ATOM     35  O   UNL     1      -0.573  -2.804  -2.200  0.00  0.00    -0.465 OA
ATOM     36  C   UNL     1       0.441  -2.708  -3.201  0.00  0.00    +0.280 C 
ENDBRANCH  33  35
ENDBRANCH   2  33
TORSDOF 7
