REMARK  Name = ZINC13494539
REMARK  14 active torsions:
REMARK  status: ('A' for Active; 'I' for Inactive)
REMARK    1  A    between atoms: C_1  and  C_2
REMARK    2  A    between atoms: C_2  and  C_3
REMARK    3  A    between atoms: C_3  and  C_5
REMARK    4  A    between atoms: C_3  and  N_68
REMARK    5  A    between atoms: N_9  and  C_10
REMARK    6  A    between atoms: C_10  and  C_11
REMARK    7  A    between atoms: C_10  and  C_12
REMARK    8  A    between atoms: C_10  and  C_13
REMARK    9  A    between atoms: C_14  and  C_15
REMARK   10  A    between atoms: C_14  and  N_68
REMARK   11  A    between atoms: C_15  and  C_16
REMARK   12  A    between atoms: C_22  and  C_23
REMARK   13  A    between atoms: C_22  and  N_68
REMARK   14  A    between atoms: C_27  and  C_35
REMARK                            x       y       z     vdW  Elec       q    Type
REMARK                         _______ _______ _______ _____ _____    ______ ____
ROOT
ATOM      1  N   UNL     1      -0.935   1.268  -0.412  0.00  0.00    +0.389 N 
ATOM      2  H   UNL     1      -1.854   0.974  -0.061  0.00  0.00    -0.080 HD
ENDROOT
BRANCH   1   3
ATOM      3  C   UNL     1       0.066   1.099   0.662  0.00  0.00    +0.003 C 
BRANCH   3   4
ATOM      4  C   UNL     1      -0.626   1.258   1.992  0.00  0.00    +0.139 A 
ATOM      5  N   UNL     1      -1.569   2.120   2.285  0.00  0.00    -0.115 NA
ATOM      6  N   UNL     1      -1.902   1.942   3.517  0.00  0.00    -0.023 NA
ATOM      7  N   UNL     1      -1.190   0.994   4.019  0.00  0.00    -0.043 NA
ATOM      8  N   UNL     1      -0.391   0.547   3.110  0.00  0.00    -0.226 N 
BRANCH   8   9
ATOM      9  C   UNL     1       0.587  -0.532   3.265  0.00  0.00    +0.059 C 
ATOM     10  C   UNL     1       1.971  -0.030   2.848  0.00  0.00    +0.036 C 
ATOM     11  C   UNL     1       0.627  -0.978   4.728  0.00  0.00    +0.036 C 
ATOM     12  C   UNL     1       0.186  -1.715   2.382  0.00  0.00    +0.036 C 
ENDBRANCH   8   9
ENDBRANCH   3   4
BRANCH   3  14
ATOM     13  C   UNL     1       1.938   1.927  -0.771  0.00  0.00    +0.002 C 
ATOM     14  C   UNL     1       1.169   2.152   0.532  0.00  0.00    -0.011 C 
ENDBRANCH   3  14
ENDBRANCH   1   3
BRANCH   1  15
ATOM     15  C   UNL     1      -0.575   0.430  -1.575  0.00  0.00    -0.073 C 
BRANCH  15  16
ATOM     16  C   UNL     1      -0.982  -1.015  -1.282  0.00  0.00    +0.016 C 
BRANCH  16  17
ATOM     17  C   UNL     1      -0.540  -1.901  -2.418  0.00  0.00    -0.049 A 
ATOM     18  C   UNL     1      -1.386  -2.129  -3.487  0.00  0.00    +0.003 A 
ATOM     19  C   UNL     1      -0.979  -2.938  -4.531  0.00  0.00    +0.000 A 
ATOM     20  C   UNL     1       0.271  -3.528  -4.502  0.00  0.00    +0.000 A 
ATOM     21  C   UNL     1       1.115  -3.304  -3.430  0.00  0.00    +0.000 A 
ATOM     22  C   UNL     1       0.710  -2.491  -2.389  0.00  0.00    +0.003 A 
ENDBRANCH  16  17
ENDBRANCH  15  16
ENDBRANCH   1  15
BRANCH   1  23
ATOM     23  C   UNL     1      -1.008   2.688  -0.816  0.00  0.00    -0.037 C 
BRANCH  23  24
ATOM     24  C   UNL     1      -1.823   3.439   0.206  0.00  0.00    +0.001 A 
ATOM     25  C   UNL     1      -1.207   4.269   1.083  0.00  0.00    +0.017 A 
ATOM     26  C   UNL     1      -2.026   4.984   2.063  0.00  0.00    -0.001 A 
ATOM     27  C   UNL     1      -1.448   5.854   2.994  0.00  0.00    +0.013 A 
ATOM     28  C   UNL     1      -2.241   6.506   3.895  0.00  0.00    -0.050 A 
ATOM     29  C   UNL     1      -3.616   6.314   3.896  0.00  0.00    +0.005 A 
ATOM     30  C   UNL     1      -4.207   5.462   2.988  0.00  0.00    +0.026 A 
ATOM     31  C   UNL     1      -3.420   4.786   2.061  0.00  0.00    +0.049 A 
ATOM     32  N   UNL     1      -3.985   3.929   1.141  0.00  0.00    -0.322 N 
ATOM     33  H   UNL     1      -4.946   3.794   1.141  0.00  0.00    +0.169 HD
ATOM     34  C   UNL     1      -3.225   3.281   0.242  0.00  0.00    +0.251 A 
ATOM     35  O   UNL     1      -3.759   2.534  -0.560  0.00  0.00    -0.268 OA
ATOM     36  C   UNL     1      -1.617   7.443   4.897  0.00  0.00    +0.044 C 
ENDBRANCH  23  24
ENDBRANCH   1  23
TORSDOF 9
