REMARK  Name = ZINC20850635
REMARK  11 active torsions:
REMARK  status: ('A' for Active; 'I' for Inactive)
REMARK    1  A    between atoms: C_1  and  C_2
REMARK    2  A    between atoms: C_5  and  C_36
REMARK    3  A    between atoms: C_6  and  C_8
REMARK    4  A    between atoms: C_8  and  S_9
REMARK    5  A    between atoms: S_9  and  C_10
REMARK    6  A    between atoms: C_15  and  C_27
REMARK    7  A    between atoms: C_21  and  C_25
REMARK    8  A    between atoms: C_21  and  C_26
REMARK    9  A    between atoms: C_30  and  N_33
REMARK   10  A    between atoms: N_33  and  C_34
REMARK   11  A    between atoms: N_33  and  C_35
REMARK                            x       y       z     vdW  Elec       q    Type
REMARK                         _______ _______ _______ _____ _____    ______ ____
ROOT
ATOM      1  C   UNL     1       1.180  -2.917   4.952  0.00  0.00    +0.211 A 
ATOM      2  N   UNL     1       0.430  -2.963   3.841  0.00  0.00    -0.187 NA
ATOM      3  C   UNL     1       0.831  -2.043   3.006  0.00  0.00    +0.219 A 
ATOM      4  N   UNL     1       1.868  -1.380   3.575  0.00  0.00    -0.220 N 
ATOM      5  N   UNL     1       2.072  -1.958   4.828  0.00  0.00    -0.141 NA
ATOM      6  C   UNL     1       2.574  -0.284   2.924  0.00  0.00    +0.175 C 
ATOM      7  C   UNL     1       1.784   0.202   1.728  0.00  0.00    +0.041 C 
ATOM      8  C   UNL     1       0.761  -0.508   1.207  0.00  0.00    +0.020 C 
ATOM      9  N   UNL     1       0.362  -1.707   1.747  0.00  0.00    -0.287 N 
ATOM     10  C   UNL     1       0.002  -0.004   0.002  0.00  0.00    +0.058 C 
ATOM     11  C   UNL     1      -0.019   1.526   0.010  0.00  0.00    -0.023 C 
ATOM     12  C   UNL     1       1.429   2.028  -0.001  0.00  0.00    +0.086 C 
ATOM     13  C   UNL     1       2.159   1.440   1.174  0.00  0.00    +0.164 C 
ATOM     14  O   UNL     1       3.095   2.047   1.657  0.00  0.00    -0.292 OA
ATOM     15  C   UNL     1      -0.751   2.038  -1.231  0.00  0.00    +0.011 C 
ATOM     16  C   UNL     1      -0.728   2.025   1.271  0.00  0.00    +0.011 C 
ATOM     17  H   UNL     1      -0.309  -2.393   1.209  0.00  0.00    +0.155 HD
ENDROOT
BRANCH   6  18
ATOM     18  C   UNL     1       3.927  -0.766   2.467  0.00  0.00    -0.018 A 
ATOM     19  C   UNL     1       4.019  -1.808   1.563  0.00  0.00    +0.008 A 
ATOM     20  C   UNL     1       5.258  -2.248   1.138  0.00  0.00    +0.023 A 
ATOM     21  C   UNL     1       6.411  -1.650   1.629  0.00  0.00    +0.029 A 
ATOM     22  C   UNL     1       6.315  -0.607   2.542  0.00  0.00    +0.023 A 
ATOM     23  C   UNL     1       5.074  -0.168   2.958  0.00  0.00    +0.008 A 
BRANCH  21  24
ATOM     24  N   UNL     1       7.665  -2.096   1.206  0.00  0.00    -0.336 N 
ATOM     25  C   UNL     1       8.881  -1.465   1.726  0.00  0.00    +0.129 C 
ATOM     26  C   UNL     1       7.765  -3.196   0.244  0.00  0.00    +0.129 C 
ENDBRANCH  21  24
ENDBRANCH   6  18
BRANCH   1  27
ATOM     27  S   UNL     1       0.999  -3.971   6.352  0.00  0.00    -0.080 S 
BRANCH  27  28
ATOM     28  C   UNL     1      -0.382  -5.059   5.907  0.00  0.00    +0.112 C 
BRANCH  28  34
ATOM     29  C   UNL     1       0.468  -9.461   8.130  0.00  0.00    +0.044 C 
ATOM     30  C   UNL     1      -0.238  -8.130   8.098  0.00  0.00    -0.050 A 
ATOM     31  C   UNL     1      -1.128  -7.795   9.102  0.00  0.00    +0.003 A 
ATOM     32  C   UNL     1      -1.776  -6.575   9.072  0.00  0.00    +0.004 A 
ATOM     33  C   UNL     1      -1.534  -5.689   8.038  0.00  0.00    -0.046 A 
ATOM     34  C   UNL     1      -0.645  -6.024   7.034  0.00  0.00    -0.034 A 
ATOM     35  C   UNL     1      -0.001  -7.247   7.061  0.00  0.00    +0.008 A 
ATOM     36  C   UNL     1      -2.241  -4.359   8.005  0.00  0.00    +0.044 C 
ENDBRANCH  28  34
ENDBRANCH  27  28
ENDBRANCH   1  27
TORSDOF 5
