REMARK  Name = ZINC12915856
REMARK  9 active torsions:
REMARK  status: ('A' for Active; 'I' for Inactive)
REMARK    1  A    between atoms: C_1  and  C_2
REMARK    2  A    between atoms: C_15  and  C_17
REMARK    3  A    between atoms: C_17  and  N_58
REMARK    4  A    between atoms: C_18  and  N_58
REMARK    5  A    between atoms: C_19  and  C_21
REMARK    6  A    between atoms: C_19  and  C_22
REMARK    7  A    between atoms: C_19  and  N_58
REMARK    8  A    between atoms: N_24  and  C_25
REMARK    9  A    between atoms: C_30  and  C_31
REMARK                            x       y       z     vdW  Elec       q    Type
REMARK                         _______ _______ _______ _____ _____    ______ ____
ROOT
ATOM      1  C   UNL     1      -4.171   2.913  -1.317  0.00  0.00    -0.094 C 
ATOM      2  N   UNL     1      -4.027   2.317   0.028  0.00  0.00    +0.391 N 
ATOM      3  H   UNL     1      -4.060   3.066   0.730  0.00  0.00    -0.080 HD
ENDROOT
BRANCH   2   4
ATOM      4  C   UNL     1      -5.133   1.371   0.283  0.00  0.00    +0.017 C 
ATOM      5  C   UNL     1      -4.920   0.074  -0.499  0.00  0.00    -0.004 C 
BRANCH   4   6
ATOM      6  C   UNL     1      -5.180   1.067   1.758  0.00  0.00    +0.203 C 
ATOM      7  O   UNL     1      -4.256   1.390   2.474  0.00  0.00    -0.277 OA
ATOM      8  N   UNL     1      -6.249   0.435   2.282  0.00  0.00    -0.286 N 
ATOM      9  H   UNL     1      -7.023   0.248   1.727  0.00  0.00    +0.155 HD
BRANCH   8  10
ATOM     10  C   UNL     1      -6.244   0.049   3.627  0.00  0.00    +0.045 A 
ATOM     11  C   UNL     1      -5.041  -0.079   4.309  0.00  0.00    +0.025 A 
ATOM     12  C   UNL     1      -5.038  -0.460   5.637  0.00  0.00    +0.022 A 
ATOM     13  C   UNL     1      -6.233  -0.715   6.287  0.00  0.00    +0.042 A 
ATOM     14  C   UNL     1      -7.433  -0.588   5.610  0.00  0.00    +0.034 A 
ATOM     15  C   UNL     1      -7.441  -0.202   4.284  0.00  0.00    +0.077 A 
ATOM     16 CL   UNL     1      -6.226  -1.194   7.956  0.00  0.00    -0.084 Cl
BRANCH  15  17
ATOM     17  C   UNL     1      -8.749  -0.059   3.548  0.00  0.00    +0.419 C 
ATOM     18  F   UNL     1      -9.806  -0.362   4.413  0.00  0.00    -0.166 F 
ATOM     19  F   UNL     1      -8.884   1.255   3.089  0.00  0.00    -0.166 F 
ATOM     20  F   UNL     1      -8.770  -0.938   2.459  0.00  0.00    -0.166 F 
ENDBRANCH  15  17
ENDBRANCH   8  10
ENDBRANCH   4   6
ENDBRANCH   2   4
BRANCH   2  21
ATOM     21  C   UNL     1      -2.729   1.617   0.134  0.00  0.00    +0.020 C 
BRANCH  21  35
ATOM     22  C   UNL     1       1.395   3.200  -1.246  0.00  0.00    +0.029 C 
ATOM     23  C   UNL     1       0.751   3.221   0.141  0.00  0.00    +0.087 C 
ATOM     24  C   UNL     1       1.804   2.879   1.196  0.00  0.00    +0.118 C 
ATOM     25  C   UNL     1       1.136   2.507   2.494  0.00  0.00    +0.219 C 
ATOM     26  O   UNL     1       1.128   3.296   3.415  0.00  0.00    -0.275 OA
ATOM     27  N   UNL     1       0.545   1.301   2.638  0.00  0.00    -0.284 N 
ATOM     28  C   UNL     1       0.461   0.417   1.556  0.00  0.00    +0.055 A 
ATOM     29  C   UNL     1       0.812  -0.915   1.698  0.00  0.00    +0.025 A 
ATOM     30  C   UNL     1       0.669  -1.782   0.630  0.00  0.00    +0.002 A 
ATOM     31  C   UNL     1       0.177  -1.323  -0.578  0.00  0.00    +0.002 A 
ATOM     32  C   UNL     1      -0.166   0.008  -0.731  0.00  0.00    +0.025 A 
ATOM     33  C   UNL     1      -0.017   0.885   0.331  0.00  0.00    +0.058 A 
ATOM     34  N   UNL     1      -0.337   2.242   0.188  0.00  0.00    -0.268 N 
ATOM     35  C   UNL     1      -1.621   2.638   0.090  0.00  0.00    +0.204 C 
ATOM     36  O   UNL     1      -1.885   3.815  -0.033  0.00  0.00    -0.277 OA
ATOM     37  H   UNL     1       0.176   1.046   3.498  0.00  0.00    +0.155 HD
ENDBRANCH  21  35
ENDBRANCH   2  21
TORSDOF 6
