REMARK  Name = ZINC04148807
REMARK  11 active torsions:
REMARK  status: ('A' for Active; 'I' for Inactive)
REMARK    1  A    between atoms: C_1  and  C_2
REMARK    2  A    between atoms: C_2  and  C_3
REMARK    3  A    between atoms: C_3  and  C_4
REMARK    4  A    between atoms: C_4  and  C_5
REMARK    5  A    between atoms: C_12  and  N_29
REMARK    6  A    between atoms: C_13  and  C_27
REMARK    7  A    between atoms: C_20  and  O_22
REMARK    8  A    between atoms: O_22  and  C_23
REMARK    9  A    between atoms: C_23  and  C_24
REMARK   10  A    between atoms: C_23  and  C_25
REMARK   11  A    between atoms: C_23  and  C_26
REMARK                            x       y       z     vdW  Elec       q    Type
REMARK                         _______ _______ _______ _____ _____    ______ ____
ROOT
ATOM      1  C   UNL     1      -2.780  -2.699   0.002  0.00  0.00    +0.044 A 
ATOM      2  C   UNL     1      -3.568  -3.033  -1.025  0.00  0.00    +0.048 A 
ATOM      3  C   UNL     1      -4.780  -3.530  -0.484  0.00  0.00    +0.245 A 
ATOM      4  N   UNL     1      -4.680  -3.550   0.812  0.00  0.00    -0.135 NA
ATOM      5  N   UNL     1      -3.421  -3.046   1.150  0.00  0.00    -0.278 N 
ATOM      6  H   UNL     1      -3.054  -2.949   2.042  0.00  0.00    +0.189 HD
ATOM      7  O   UNL     1      -5.838  -3.880  -1.268  0.00  0.00    -0.422 OA
ATOM      8  C   UNL     1      -5.853  -3.338  -2.504  0.00  0.00    +0.200 C 
ATOM      9  C   UNL     1      -4.745  -2.928  -3.151  0.00  0.00    +0.097 C 
ATOM     10  C   UNL     1      -3.361  -2.952  -2.528  0.00  0.00    +0.045 C 
ATOM     11  C   UNL     1      -2.696  -4.238  -2.999  0.00  0.00    +0.036 C 
ATOM     12  C   UNL     1      -1.207  -4.245  -2.648  0.00  0.00    +0.112 C 
ATOM     13  N   UNL     1      -0.613  -3.116  -3.378  0.00  0.00    -0.267 N 
ATOM     14  C   UNL     1      -1.136  -1.771  -3.171  0.00  0.00    +0.112 C 
ATOM     15  C   UNL     1      -2.612  -1.687  -2.858  0.00  0.00    +0.036 C 
ATOM     16  C   UNL     1       0.407  -3.333  -4.238  0.00  0.00    +0.403 C 
ATOM     17  O   UNL     1       0.831  -4.460  -4.405  0.00  0.00    -0.226 OA
ENDROOT
BRANCH   8  18
ATOM     18  N   UNL     1      -7.061  -3.190  -3.135  0.00  0.00    -0.328 N 
ATOM     19  H   UNL     1      -7.877  -3.472  -2.692  0.00  0.00    +0.145 HD
ATOM     20  H   UNL     1      -7.100  -2.804  -4.023  0.00  0.00    +0.145 HD
ENDBRANCH   8  18
BRANCH   9  21
ATOM     21  C   UNL     1      -4.899  -2.509  -4.513  0.00  0.00    +0.101 C 
ATOM     22  N   UNL     1      -5.021  -2.176  -5.592  0.00  0.00    -0.191 NA
ENDBRANCH   9  21
BRANCH   1  23
ATOM     23  C   UNL     1      -1.413  -2.063   0.004  0.00  0.00    +0.055 C 
BRANCH  23  24
ATOM     24  C   UNL     1      -0.872  -2.023   1.435  0.00  0.00    +0.006 C 
BRANCH  24  26
ATOM     25  C   UNL     1       1.102  -1.447   2.855  0.00  0.00    +0.004 C 
ATOM     26  C   UNL     1       0.561  -1.488   1.424  0.00  0.00    -0.003 C 
ENDBRANCH  24  26
ENDBRANCH  23  24
ENDBRANCH   1  23
BRANCH  16  27
ATOM     27  O   UNL     1       0.953  -2.302  -4.909  0.00  0.00    -0.445 OA
BRANCH  27  28
ATOM     28  C   UNL     1       2.028  -2.604  -5.801  0.00  0.00    +0.107 C 
ATOM     29  C   UNL     1       1.541  -3.580  -6.874  0.00  0.00    +0.055 C 
ATOM     30  C   UNL     1       2.516  -1.316  -6.467  0.00  0.00    +0.055 C 
ATOM     31  C   UNL     1       3.178  -3.240  -5.017  0.00  0.00    +0.055 C 
ENDBRANCH  27  28
ENDBRANCH  16  27
TORSDOF 7
