REMARK  Name = ZINC38670895
REMARK  6 active torsions:
REMARK  status: ('A' for Active; 'I' for Inactive)
REMARK    1  A    between atoms: C_1  and  N_2
REMARK    2  A    between atoms: C_10  and  C_12
REMARK    3  A    between atoms: C_12  and  C_14
REMARK    4  A    between atoms: C_12  and  N_29
REMARK    5  A    between atoms: C_14  and  N_15
REMARK    6  A    between atoms: C_16  and  C_18
REMARK                            x       y       z     vdW  Elec       q    Type
REMARK                         _______ _______ _______ _____ _____    ______ ____
ROOT
ATOM      1  C   UNL     1       4.992  -2.839  -0.469  0.00  0.00    -0.020 C 
ENDROOT
BRANCH   1  11
ATOM      2  C   UNL     1      -0.096   0.925   1.120  0.00  0.00    +0.129 C 
ATOM      3  N   UNL     1      -0.019  -0.501   0.795  0.00  0.00    -0.333 N 
ATOM      4  C   UNL     1      -1.231  -1.332   0.785  0.00  0.00    +0.105 C 
ATOM      5  C   UNL     1      -0.906  -2.644   1.512  0.00  0.00    +0.024 C 
ATOM      6  C   UNL     1       0.177  -3.386   0.729  0.00  0.00    +0.038 C 
ATOM      7  C   UNL     1       1.343  -2.475   0.449  0.00  0.00    -0.026 A 
ATOM      8  C   UNL     1       1.209  -1.094   0.482  0.00  0.00    +0.033 A 
ATOM      9  C   UNL     1       2.303  -0.281   0.209  0.00  0.00    +0.023 A 
ATOM     10  C   UNL     1       3.525  -0.846  -0.099  0.00  0.00    +0.004 A 
ATOM     11  C   UNL     1       3.659  -2.222  -0.135  0.00  0.00    -0.059 A 
ATOM     12  C   UNL     1       2.573  -3.035   0.147  0.00  0.00    +0.007 A 
ENDBRANCH   1  11
BRANCH   1  13
ATOM     13  N   UNL     1       6.063  -2.073   0.183  0.00  0.00    +0.385 N 
ATOM     14  C   UNL     1       7.356  -2.712  -0.091  0.00  0.00    -0.078 C 
ATOM     15  C   UNL     1       8.482  -1.873   0.516  0.00  0.00    -0.019 C 
ATOM     16  C   UNL     1       8.274  -1.769   2.030  0.00  0.00    -0.004 C 
ATOM     17  C   UNL     1       6.891  -1.170   2.305  0.00  0.00    -0.019 C 
ATOM     18  C   UNL     1       5.824  -2.034   1.630  0.00  0.00    -0.078 C 
ATOM     19  H   UNL     1       6.071  -1.132  -0.181  0.00  0.00    -0.081 HD
ENDBRANCH   1  13
BRANCH   1  20
ATOM     20  C   UNL     1       5.199  -2.817  -1.985  0.00  0.00    +0.094 C 
BRANCH  20  21
ATOM     21  N   UNL     1       4.185  -3.656  -2.628  0.00  0.00    -0.310 N 
ATOM     22  C   UNL     1       4.162  -3.775  -3.970  0.00  0.00    +0.279 C 
ATOM     23  O   UNL     1       4.982  -3.187  -4.647  0.00  0.00    -0.267 OA
ATOM     24  H   UNL     1       3.531  -4.126  -2.088  0.00  0.00    +0.149 HD
BRANCH  22  25
ATOM     25  C   UNL     1       3.136  -4.625  -4.621  0.00  0.00    +0.193 A 
ATOM     26  C   UNL     1       3.143  -4.729  -5.973  0.00  0.00    +0.103 A 
ATOM     27  C   UNL     1       2.109  -5.561  -6.612  0.00  0.00    +0.193 A 
ATOM     28  O   UNL     1       2.176  -5.886  -7.784  0.00  0.00    -0.287 OA
ATOM     29  C   UNL     1       0.987  -5.978  -5.747  0.00  0.00    +0.064 A 
ATOM     30  C   UNL     1      -0.171  -6.544  -6.277  0.00  0.00    +0.015 A 
ATOM     31  C   UNL     1      -1.188  -6.910  -5.440  0.00  0.00    +0.001 A 
ATOM     32  C   UNL     1      -1.072  -6.721  -4.070  0.00  0.00    +0.004 A 
ATOM     33  C   UNL     1       0.067  -6.166  -3.528  0.00  0.00    +0.047 A 
ATOM     34  C   UNL     1       1.116  -5.788  -4.360  0.00  0.00    +0.139 A 
ATOM     35  O   UNL     1       2.246  -5.261  -3.849  0.00  0.00    -0.450 OA
ENDBRANCH  22  25
ENDBRANCH  20  21
ENDBRANCH   1  20
TORSDOF 5
