REMARK  Name = ZINC35455546
REMARK  13 active torsions:
REMARK  status: ('A' for Active; 'I' for Inactive)
REMARK    1  A    between atoms: C_1  and  C_2
REMARK    2  A    between atoms: C_4  and  O_19
REMARK    3  A    between atoms: C_6  and  C_16
REMARK    4  A    between atoms: C_16  and  C_17
REMARK    5  A    between atoms: C_16  and  C_18
REMARK    6  A    between atoms: O_19  and  C_20
REMARK    7  A    between atoms: C_22  and  O_38
REMARK    8  A    between atoms: C_24  and  O_37
REMARK    9  A    between atoms: C_26  and  O_36
REMARK   10  A    between atoms: C_28  and  C_31
REMARK   11  A    between atoms: C_31  and  O_32
REMARK   12  A    between atoms: O_32  and  C_33
REMARK   13  A    between atoms: C_33  and  C_35
REMARK                            x       y       z     vdW  Elec       q    Type
REMARK                         _______ _______ _______ _____ _____    ______ ____
ROOT
ATOM      1  O   UNL     1      -1.097   0.306  -2.976  0.00  0.00    -0.341 OA
ENDROOT
BRANCH   1   5
ATOM      2  C   UNL     1       0.042   1.241   0.279  0.00  0.00    +0.039 C 
ATOM      3  C   UNL     1      -0.131  -0.246   0.105  0.00  0.00    -0.074 C 
ATOM      4  C   UNL     1      -0.083  -0.775  -1.092  0.00  0.00    +0.003 C 
ATOM      5  C   UNL     1       0.142   0.103  -2.295  0.00  0.00    +0.148 C 
ATOM      6  C   UNL     1       1.139  -0.571  -3.240  0.00  0.00    +0.025 C 
ATOM      7  C   UNL     1       2.554  -0.426  -2.678  0.00  0.00    +0.011 C 
ATOM      8  C   UNL     1       2.917  -1.679  -1.879  0.00  0.00    +0.038 C 
ATOM      9  C   UNL     1       2.321  -1.584  -0.498  0.00  0.00    -0.012 C 
ATOM     10  C   UNL     1       2.831  -0.730   0.392  0.00  0.00    +0.016 C 
ATOM     11  C   UNL     1       1.183  -2.427  -0.133  0.00  0.00    +0.159 C 
ATOM     12  O   UNL     1       0.721  -3.206  -0.941  0.00  0.00    -0.292 OA
ATOM     13  C   UNL     1       0.584  -2.329   1.246  0.00  0.00    +0.083 C 
ATOM     14  C   UNL     1      -0.363  -1.124   1.309  0.00  0.00    +0.038 C 
BRANCH   6  15
ATOM     15  C   UNL     1       0.792  -2.056  -3.371  0.00  0.00    -0.011 C 
ATOM     16  C   UNL     1      -0.679  -2.204  -3.765  0.00  0.00    +0.007 C 
ATOM     17  C   UNL     1       1.675  -2.693  -4.446  0.00  0.00    +0.007 C 
ENDBRANCH   6  15
ENDBRANCH   1   5
BRANCH   1  18
ATOM     18  C   UNL     1      -1.829   1.447  -2.523  0.00  0.00    +0.282 C 
ATOM     19  C   UNL     1      -3.233   1.428  -3.134  0.00  0.00    +0.201 C 
ATOM     20  C   UNL     1      -3.990   2.684  -2.692  0.00  0.00    +0.179 C 
ATOM     21  C   UNL     1      -3.191   3.922  -3.110  0.00  0.00    +0.178 C 
ATOM     22  C   UNL     1      -1.789   3.845  -2.500  0.00  0.00    +0.190 C 
ATOM     23  O   UNL     1      -1.152   2.639  -2.926  0.00  0.00    -0.339 OA
BRANCH  21  24
ATOM     24  O   UNL     1      -3.092   3.969  -4.534  0.00  0.00    -0.386 OA
ATOM     25  H   UNL     1      -3.945   4.014  -4.987  0.00  0.00    +0.210 HD
ENDBRANCH  21  24
BRANCH  20  26
ATOM     26  O   UNL     1      -5.276   2.711  -3.314  0.00  0.00    -0.386 OA
ATOM     27  H   UNL     1      -5.834   1.951  -3.098  0.00  0.00    +0.210 HD
ENDBRANCH  20  26
BRANCH  19  28
ATOM     28  O   UNL     1      -3.133   1.406  -4.559  0.00  0.00    -0.384 OA
ATOM     29  H   UNL     1      -2.661   0.638  -4.909  0.00  0.00    +0.210 HD
ENDBRANCH  19  28
BRANCH  22  30
ATOM     30  C   UNL     1      -0.965   5.048  -2.961  0.00  0.00    +0.266 C 
BRANCH  30  31
ATOM     31  O   UNL     1       0.303   5.039  -2.301  0.00  0.00    -0.462 OA
BRANCH  31  32
ATOM     32  C   UNL     1       1.152   6.035  -2.598  0.00  0.00    +0.304 C 
ATOM     33  O   UNL     1       0.829   6.888  -3.391  0.00  0.00    -0.251 OA
ATOM     34  C   UNL     1       2.507   6.091  -1.941  0.00  0.00    +0.136 C 
ENDBRANCH  31  32
ENDBRANCH  30  31
ENDBRANCH  22  30
ENDBRANCH   1  18
TORSDOF 9
