REMARK  Name = ZINC45697948
REMARK  11 active torsions:
REMARK  status: ('A' for Active; 'I' for Inactive)
REMARK    1  A    between atoms: C_1  and  C_2
REMARK    2  A    between atoms: C_3  and  C_24
REMARK    3  A    between atoms: C_5  and  S_7
REMARK    4  A    between atoms: S_7  and  C_8
REMARK    5  A    between atoms: C_8  and  C_10
REMARK    6  A    between atoms: C_8  and  C_11
REMARK    7  A    between atoms: N_13  and  C_14
REMARK    8  A    between atoms: C_14  and  C_15
REMARK    9  A    between atoms: C_15  and  C_17
REMARK   10  A    between atoms: C_15  and  C_18
REMARK   11  A    between atoms: C_24  and  C_25
REMARK                            x       y       z     vdW  Elec       q    Type
REMARK                         _______ _______ _______ _____ _____    ______ ____
ROOT
ATOM      1  C   UNL     1       0.051  -2.041   3.926  0.00  0.00    +0.136 C 
ATOM      2  C   UNL     1      -1.267  -1.266   3.975  0.00  0.00    +0.029 C 
ENDROOT
BRANCH   1   3
ATOM      3  C   UNL     1       0.192  -2.871   5.176  0.00  0.00    +0.226 C 
ATOM      4  O   UNL     1      -0.071  -4.055   5.151  0.00  0.00    -0.275 OA
ATOM      5  N   UNL     1       0.612  -2.297   6.322  0.00  0.00    -0.314 N 
ATOM      6  H   UNL     1       0.822  -1.351   6.341  0.00  0.00    +0.149 HD
BRANCH   5   7
ATOM      7  C   UNL     1       0.749  -3.104   7.537  0.00  0.00    +0.112 C 
BRANCH   7   8
ATOM      8  C   UNL     1       1.237  -2.218   8.684  0.00  0.00    +0.033 C 
ATOM      9  C   UNL     1       2.647  -1.710   8.374  0.00  0.00    +0.014 C 
BRANCH   8  10
ATOM     10  C   UNL     1       1.262  -3.018   9.961  0.00  0.00    -0.043 A 
ATOM     11  C   UNL     1       2.056  -4.145  10.056  0.00  0.00    +0.004 A 
ATOM     12  C   UNL     1       2.078  -4.879  11.227  0.00  0.00    +0.000 A 
ATOM     13  C   UNL     1       1.307  -4.485  12.304  0.00  0.00    +0.000 A 
ATOM     14  C   UNL     1       0.513  -3.357  12.210  0.00  0.00    +0.000 A 
ATOM     15  C   UNL     1       0.494  -2.621  11.040  0.00  0.00    +0.004 A 
ENDBRANCH   8  10
ENDBRANCH   7   8
ENDBRANCH   5   7
ENDBRANCH   1   3
BRANCH   1  16
ATOM     16  S   UNL     1       0.058  -3.129   2.474  0.00  0.00    -0.086 S 
BRANCH  16  21
ATOM     17  C   UNL     1      -0.018   1.503   0.010  0.00  0.00    +0.066 C 
ATOM     18  C   UNL     1       0.002  -0.004   0.002  0.00  0.00    +0.050 A 
ATOM     19  C   UNL     1       0.006  -0.705  -1.157  0.00  0.00    +0.022 A 
ATOM     20  S   UNL     1       0.032  -2.378  -0.535  0.00  0.00    -0.065 S 
ATOM     21  C   UNL     1       0.036  -2.016   1.108  0.00  0.00    +0.136 A 
ATOM     22  N   UNL     1       0.023  -0.700   1.125  0.00  0.00    -0.238 NA
BRANCH  19  23
ATOM     23  C   UNL     1      -0.009  -0.209  -2.580  0.00  0.00    +0.139 C 
BRANCH  23  24
ATOM     24  C   UNL     1       1.407  -0.023  -3.062  0.00  0.00    +0.215 C 
ATOM     25  O   UNL     1       2.336  -0.270  -2.323  0.00  0.00    -0.276 OA
ATOM     26  N   UNL     1       1.640   0.417  -4.314  0.00  0.00    -0.329 N 
ATOM     27  H   UNL     1       0.897   0.614  -4.906  0.00  0.00    +0.145 HD
ATOM     28  H   UNL     1       2.552   0.536  -4.625  0.00  0.00    +0.145 HD
ENDBRANCH  23  24
ENDBRANCH  19  23
ENDBRANCH  16  21
ENDBRANCH   1  16
TORSDOF 8
