REMARK  Name = ZINC49113500
REMARK  8 active torsions:
REMARK  status: ('A' for Active; 'I' for Inactive)
REMARK    1  A    between atoms: C_1  and  C_2
REMARK    2  A    between atoms: C_2  and  C_4
REMARK    3  A    between atoms: C_2  and  C_17
REMARK    4  A    between atoms: C_4  and  C_5
REMARK    5  A    between atoms: C_13  and  O_16
REMARK    6  A    between atoms: N_19  and  C_20
REMARK    7  A    between atoms: C_21  and  C_36
REMARK    8  A    between atoms: C_24  and  C_27
REMARK                            x       y       z     vdW  Elec       q    Type
REMARK                         _______ _______ _______ _____ _____    ______ ____
ROOT
ATOM      1  C   UNL     1       0.720  -0.432  -1.242  0.00  0.00    +0.220 C 
ATOM      2  O   UNL     1       0.120  -1.123  -2.037  0.00  0.00    -0.275 OA
ATOM      3  N   UNL     1       2.012  -0.116  -1.463  0.00  0.00    -0.288 N 
ATOM      4  H   UNL     1       2.472   0.493  -0.864  0.00  0.00    +0.155 HD
ENDROOT
BRANCH   3   5
ATOM      5  C   UNL     1       2.675  -0.655  -2.535  0.00  0.00    +0.021 C 
ATOM      6  C   UNL     1       3.766  -1.390  -2.300  0.00  0.00    +0.058 C 
ATOM      7  C   UNL     1       4.588  -2.023  -3.385  0.00  0.00    +0.044 C 
ATOM      8  C   UNL     1       3.789  -2.076  -4.688  0.00  0.00    +0.013 C 
ATOM      9  C   UNL     1       3.207  -0.685  -4.962  0.00  0.00    +0.025 C 
ATOM     10  C   UNL     1       2.133  -0.392  -3.911  0.00  0.00    +0.059 C 
BRANCH   9  11
ATOM     11  C   UNL     1       2.594  -0.655  -6.338  0.00  0.00    -0.038 A 
ATOM     12  C   UNL     1       1.554  -1.512  -6.649  0.00  0.00    +0.045 A 
ATOM     13  C   UNL     1       0.989  -1.486  -7.912  0.00  0.00    +0.162 A 
ATOM     14  C   UNL     1       1.466  -0.601  -8.866  0.00  0.00    +0.193 A 
ATOM     15  C   UNL     1       2.508   0.258  -8.553  0.00  0.00    +0.162 A 
ATOM     16  C   UNL     1       3.067   0.233  -7.286  0.00  0.00    +0.045 A 
ATOM     17  F   UNL     1       2.975   1.121  -9.480  0.00  0.00    -0.202 F 
ATOM     18  F   UNL     1       0.916  -0.575 -10.100  0.00  0.00    -0.199 F 
ATOM     19  F   UNL     1      -0.026  -2.324  -8.216  0.00  0.00    -0.202 F 
ENDBRANCH   9  11
BRANCH   6  20
ATOM     20  C   UNL     1       4.166  -1.581  -0.961  0.00  0.00    +0.384 C 
ATOM     21  O   UNL     1       3.461  -1.172  -0.046  0.00  0.00    -0.241 OA
ATOM     22  O   UNL     1       5.219  -2.157  -0.712  0.00  0.00    -0.241 OA
ENDBRANCH   6  20
ENDBRANCH   3   5
BRANCH   1  24
ATOM     23  C   UNL     1       0.034   1.603  -0.002  0.00  0.00    +0.017 C 
ATOM     24  C   UNL     1       0.022   0.074  -0.005  0.00  0.00    +0.078 C 
BRANCH  24  25
ATOM     25  C   UNL     1      -1.424  -0.425   0.004  0.00  0.00    +0.069 C 
BRANCH  25  26
ATOM     26  C   UNL     1      -2.086  -0.024   1.297  0.00  0.00    +0.064 A 
ATOM     27  C   UNL     1      -3.277   0.701   1.417  0.00  0.00    +0.045 A 
ATOM     28  C   UNL     1      -3.538   0.858   2.735  0.00  0.00    +0.116 A 
ATOM     29  N   UNL     1      -2.541   0.250   3.428  0.00  0.00    -0.222 N 
ATOM     30  N   UNL     1      -1.647  -0.298   2.499  0.00  0.00    -0.170 NA
ATOM     31  C   UNL     1      -2.428   0.180   4.821  0.00  0.00    +0.154 A 
ATOM     32  C   UNL     1      -1.343  -0.474   5.390  0.00  0.00    +0.052 A 
ATOM     33  C   UNL     1      -1.241  -0.537   6.769  0.00  0.00    +0.050 A 
ATOM     34  C   UNL     1      -2.237   0.061   7.535  0.00  0.00    +0.135 A 
ATOM     35  C   UNL     1      -3.291   0.697   6.897  0.00  0.00    +0.158 A 
ATOM     36  N   UNL     1      -3.353   0.743   5.581  0.00  0.00    -0.233 NA
BRANCH  34  37
ATOM     37  O   UNL     1      -2.177   0.023   8.893  0.00  0.00    -0.505 OA
ATOM     38  H   UNL     1      -1.704   0.768   9.287  0.00  0.00    +0.292 HD
ENDBRANCH  34  37
ENDBRANCH  25  26
ENDBRANCH  24  25
ENDBRANCH   1  24
TORSDOF 7
