REMARK  Name = ZINC13064652
REMARK  14 active torsions:
REMARK  status: ('A' for Active; 'I' for Inactive)
REMARK    1  A    between atoms: C_1  and  C_2
REMARK    2  A    between atoms: C_2  and  C_3
REMARK    3  A    between atoms: C_3  and  C_5
REMARK    4  A    between atoms: C_3  and  N_73
REMARK    5  A    between atoms: N_9  and  C_10
REMARK    6  A    between atoms: C_10  and  C_11
REMARK    7  A    between atoms: C_17  and  C_18
REMARK    8  A    between atoms: C_17  and  N_73
REMARK    9  A    between atoms: C_23  and  O_24
REMARK   10  A    between atoms: O_24  and  C_25
REMARK   11  A    between atoms: C_26  and  C_27
REMARK   12  A    between atoms: C_26  and  N_73
REMARK   13  A    between atoms: C_31  and  C_40
REMARK   14  A    between atoms: C_32  and  C_39
REMARK                            x       y       z     vdW  Elec       q    Type
REMARK                         _______ _______ _______ _____ _____    ______ ____
ROOT
ATOM      1  N   UNL     1      -5.671   3.832  -2.240  0.00  0.00    +0.392 N 
ATOM      2  H   UNL     1      -5.601   2.917  -2.700  0.00  0.00    -0.080 HD
ENDROOT
BRANCH   1   3
ATOM      3  C   UNL     1      -7.083   4.270  -2.256  0.00  0.00    +0.003 C 
BRANCH   3   4
ATOM      4  C   UNL     1      -7.965   3.054  -2.131  0.00  0.00    +0.138 A 
ATOM      5  N   UNL     1      -7.763   2.018  -1.355  0.00  0.00    -0.115 NA
ATOM      6  N   UNL     1      -8.736   1.192  -1.532  0.00  0.00    -0.023 NA
ATOM      7  N   UNL     1      -9.553   1.675  -2.401  0.00  0.00    -0.044 NA
ATOM      8  N   UNL     1      -9.116   2.825  -2.790  0.00  0.00    -0.226 N 
BRANCH   8   9
ATOM      9  C   UNL     1      -9.750   3.712  -3.768  0.00  0.00    +0.182 C 
BRANCH   9  10
ATOM     10  C   UNL     1      -9.242   3.382  -5.149  0.00  0.00    -0.026 A 
ATOM     11  C   UNL     1      -8.123   4.024  -5.645  0.00  0.00    +0.005 A 
ATOM     12  C   UNL     1      -7.655   3.717  -6.909  0.00  0.00    +0.000 A 
ATOM     13  C   UNL     1      -8.312   2.777  -7.681  0.00  0.00    +0.000 A 
ATOM     14  C   UNL     1      -9.434   2.139  -7.186  0.00  0.00    +0.000 A 
ATOM     15  C   UNL     1      -9.899   2.442  -5.920  0.00  0.00    +0.005 A 
ENDBRANCH   9  10
ENDBRANCH   8   9
ENDBRANCH   3   4
BRANCH   3  17
ATOM     16  C   UNL     1      -6.491   6.474  -1.239  0.00  0.00    +0.002 C 
ATOM     17  C   UNL     1      -7.360   5.223  -1.092  0.00  0.00    -0.011 C 
ENDBRANCH   3  17
ENDBRANCH   1   3
BRANCH   1  18
ATOM     18  C   UNL     1      -4.832   4.803  -2.972  0.00  0.00    -0.038 C 
BRANCH  18  19
ATOM     19  C   UNL     1      -3.502   4.163  -3.274  0.00  0.00    -0.022 A 
ATOM     20  C   UNL     1      -2.375   4.545  -2.570  0.00  0.00    +0.005 A 
ATOM     21  C   UNL     1      -1.156   3.954  -2.843  0.00  0.00    +0.000 A 
ATOM     22  C   UNL     1      -1.057   2.988  -3.828  0.00  0.00    +0.004 A 
ATOM     23  C   UNL     1      -2.179   2.607  -4.537  0.00  0.00    +0.046 A 
ATOM     24  C   UNL     1      -3.406   3.194  -4.261  0.00  0.00    +0.121 A 
BRANCH  24  25
ATOM     25  O   UNL     1      -4.511   2.821  -4.958  0.00  0.00    -0.495 OA
ATOM     26  C   UNL     1      -4.338   1.817  -5.961  0.00  0.00    +0.277 C 
ENDBRANCH  24  25
ENDBRANCH  18  19
ENDBRANCH   1  18
BRANCH   1  27
ATOM     27  C   UNL     1      -5.198   3.706  -0.845  0.00  0.00    -0.036 C 
BRANCH  27  28
ATOM     28  C   UNL     1      -5.639   2.370  -0.305  0.00  0.00    +0.001 A 
ATOM     29  C   UNL     1      -5.220   1.228  -0.905  0.00  0.00    +0.017 A 
ATOM     30  C   UNL     1      -5.669  -0.054  -0.358  0.00  0.00    -0.001 A 
ATOM     31  C   UNL     1      -5.282  -1.265  -0.943  0.00  0.00    +0.013 A 
ATOM     32  C   UNL     1      -5.719  -2.444  -0.409  0.00  0.00    -0.047 A 
ATOM     33  C   UNL     1      -6.544  -2.452   0.708  0.00  0.00    -0.046 A 
ATOM     34  C   UNL     1      -6.937  -1.271   1.300  0.00  0.00    +0.030 A 
ATOM     35  C   UNL     1      -6.509  -0.058   0.771  0.00  0.00    +0.049 A 
ATOM     36  N   UNL     1      -6.892   1.139   1.339  0.00  0.00    -0.322 N 
ATOM     37  H   UNL     1      -7.468   1.134   2.120  0.00  0.00    +0.169 HD
ATOM     38  C   UNL     1      -6.477   2.311   0.828  0.00  0.00    +0.251 A 
ATOM     39  O   UNL     1      -6.836   3.349   1.356  0.00  0.00    -0.268 OA
ATOM     40  C   UNL     1      -7.014  -3.765   1.278  0.00  0.00    +0.044 C 
ATOM     41  C   UNL     1      -5.302  -3.748  -1.039  0.00  0.00    +0.044 C 
ENDBRANCH  27  28
ENDBRANCH   1  27
TORSDOF 10
