REMARK  Name = ZINC59383103
REMARK  8 active torsions:
REMARK  status: ('A' for Active; 'I' for Inactive)
REMARK    1  A    between atoms: C_1  and  C_2
REMARK    2  A    between atoms: C_2  and  C_34
REMARK    3  A    between atoms: C_23  and  C_30
REMARK    4  A    between atoms: C_24  and  C_26
REMARK    5  A    between atoms: C_26  and  O_28
REMARK    6  A    between atoms: O_28  and  C_29
REMARK    7  A    between atoms: C_30  and  O_32
REMARK    8  A    between atoms: O_32  and  C_33
REMARK                            x       y       z     vdW  Elec       q    Type
REMARK                         _______ _______ _______ _____ _____    ______ ____
ROOT
ATOM      1  C   UNL     1      -0.011   1.505   0.016  0.00  0.00    +0.037 C 
ATOM      2  C   UNL     1       0.014  -0.020   0.030  0.00  0.00    +0.065 C 
ATOM      3  C   UNL     1      -1.402  -0.592   0.135  0.00  0.00    +0.053 C 
ATOM      4  N   UNL     1      -1.780  -1.330  -0.778  0.00  0.00    -0.253 NA
ATOM      5  C   UNL     1      -2.621  -2.226  -1.269  0.00  0.00    +0.077 A 
ATOM      6  C   UNL     1      -2.750  -2.379  -2.656  0.00  0.00    +0.029 A 
ATOM      7  C   UNL     1      -3.539  -3.380  -3.173  0.00  0.00    +0.002 A 
ATOM      8  C   UNL     1      -4.200  -4.245  -2.318  0.00  0.00    +0.001 A 
ATOM      9  C   UNL     1      -4.114  -4.069  -0.954  0.00  0.00    +0.017 A 
ATOM     10  C   UNL     1      -3.372  -3.026  -0.417  0.00  0.00    +0.035 A 
ATOM     11  S   UNL     1      -3.401  -2.783   1.319  0.00  0.00    -0.093 S 
ATOM     12  C   UNL     1      -3.431  -1.014   1.611  0.00  0.00    +0.133 C 
ATOM     13  C   UNL     1      -2.184  -0.236   1.351  0.00  0.00    +0.104 C 
ATOM     14  C   UNL     1      -1.280  -0.102   2.548  0.00  0.00    -0.015 A 
ATOM     15  C   UNL     1      -1.777   0.368   3.751  0.00  0.00    +0.006 A 
ATOM     16  C   UNL     1      -0.984   0.403   4.882  0.00  0.00    +0.000 A 
ATOM     17  C   UNL     1       0.347   0.038   4.819  0.00  0.00    +0.002 A 
ATOM     18  C   UNL     1       0.889  -0.316   3.600  0.00  0.00    +0.023 A 
ATOM     19  C   UNL     1       0.087  -0.338   2.464  0.00  0.00    +0.032 A 
ATOM     20  N   UNL     1       0.715  -0.515   1.224  0.00  0.00    -0.333 N 
ATOM     21  S   UNL     1      -4.142  -0.678   3.270  0.00  0.00    -0.087 S 
ATOM     22  C   UNL     1      -5.204   0.708   2.992  0.00  0.00    +0.114 C 
ATOM     23  C   UNL     1      -5.517   0.903   1.691  0.00  0.00    +0.114 C 
ATOM     24  S   UNL     1      -4.793  -0.282   0.596  0.00  0.00    -0.087 S 
ATOM     25  C   UNL     1       0.703  -0.548  -1.230  0.00  0.00    +0.037 C 
ATOM     26  H   UNL     1       1.577  -0.942   1.153  0.00  0.00    +0.147 HD
ENDROOT
BRANCH  23  27
ATOM     27  C   UNL     1      -6.379   2.001   1.228  0.00  0.00    +0.347 C 
ATOM     28  O   UNL     1      -5.883   3.041   0.841  0.00  0.00    -0.244 OA
BRANCH  27  29
ATOM     29  O   UNL     1      -7.719   1.854   1.233  0.00  0.00    -0.464 OA
ATOM     30  C   UNL     1      -8.495   2.961   0.770  0.00  0.00    +0.280 C 
ENDBRANCH  27  29
ENDBRANCH  23  27
BRANCH  22  31
ATOM     31  C   UNL     1      -5.703   1.569   4.074  0.00  0.00    +0.347 C 
ATOM     32  O   UNL     1      -6.353   2.561   3.811  0.00  0.00    -0.244 OA
BRANCH  31  33
ATOM     33  O   UNL     1      -5.441   1.256   5.360  0.00  0.00    -0.464 OA
ATOM     34  C   UNL     1      -5.957   2.136   6.360  0.00  0.00    +0.280 C 
ENDBRANCH  31  33
ENDBRANCH  22  31
TORSDOF 4
