REMARK  Name = ZINC40985970
REMARK  9 active torsions:
REMARK  status: ('A' for Active; 'I' for Inactive)
REMARK    1  A    between atoms: C_1  and  C_2
REMARK    2  A    between atoms: C_5  and  C_8
REMARK    3  A    between atoms: C_8  and  C_10
REMARK    4  A    between atoms: C_8  and  N_30
REMARK    5  A    between atoms: C_10  and  N_11
REMARK    6  A    between atoms: C_12  and  C_14
REMARK    7  A    between atoms: C_17  and  S_21
REMARK    8  A    between atoms: S_21  and  C_22
REMARK    9  A    between atoms: C_22  and  C_23
REMARK                            x       y       z     vdW  Elec       q    Type
REMARK                         _______ _______ _______ _____ _____    ______ ____
ROOT
ATOM      1  N   UNL     1      -2.199  -4.408  -1.001  0.00  0.00    -0.312 N 
ATOM      2  C   UNL     1      -3.504  -4.739  -1.057  0.00  0.00    +0.248 C 
ATOM      3  O   UNL     1      -3.988  -5.453  -0.199  0.00  0.00    -0.270 OA
ATOM      4  H   UNL     1      -1.814  -3.839  -1.685  0.00  0.00    +0.149 HD
ENDROOT
BRANCH   2   5
ATOM      5  C   UNL     1      -4.346  -4.236  -2.158  0.00  0.00    +0.092 A 
ATOM      6  C   UNL     1      -3.807  -3.418  -3.159  0.00  0.00    +0.129 A 
ATOM      7  N   UNL     1      -4.593  -2.988  -4.128  0.00  0.00    -0.229 NA
ATOM      8  C   UNL     1      -5.878  -3.322  -4.163  0.00  0.00    +0.190 A 
ATOM      9  N   UNL     1      -6.427  -4.095  -3.235  0.00  0.00    -0.209 NA
ATOM     10  C   UNL     1      -5.707  -4.570  -2.234  0.00  0.00    +0.146 A 
ATOM     11 CL   UNL     1      -6.435  -5.585  -1.029  0.00  0.00    -0.061 Cl
BRANCH   8  12
ATOM     12  S   UNL     1      -6.882  -2.720  -5.479  0.00  0.00    -0.081 S 
BRANCH  12  13
ATOM     13  C   UNL     1      -8.523  -3.409  -5.130  0.00  0.00    +0.112 C 
BRANCH  13  14
ATOM     14  C   UNL     1      -9.492  -2.965  -6.195  0.00  0.00    -0.037 A 
ATOM     15  C   UNL     1     -10.201  -1.789  -6.037  0.00  0.00    +0.006 A 
ATOM     16  C   UNL     1     -11.090  -1.381  -7.014  0.00  0.00    +0.020 A 
ATOM     17  C   UNL     1     -11.269  -2.150  -8.150  0.00  0.00    +0.041 A 
ATOM     18  C   UNL     1     -10.559  -3.327  -8.307  0.00  0.00    +0.020 A 
ATOM     19  C   UNL     1      -9.667  -3.731  -7.332  0.00  0.00    +0.006 A 
ATOM     20 CL   UNL     1     -12.386  -1.639  -9.377  0.00  0.00    -0.084 Cl
ENDBRANCH  13  14
ENDBRANCH  12  13
ENDBRANCH   8  12
ENDBRANCH   2   5
BRANCH   1  21
ATOM     21  C   UNL     1      -1.363  -4.908   0.093  0.00  0.00    +0.094 C 
BRANCH  21  22
ATOM     22  C   UNL     1       0.030  -4.284  -0.004  0.00  0.00    -0.020 C 
BRANCH  22  23
ATOM     23  N   UNL     1       0.887  -4.830   1.057  0.00  0.00    +0.385 N 
ATOM     24  C   UNL     1       2.195  -4.148   1.008  0.00  0.00    -0.078 C 
ATOM     25  C   UNL     1       2.824  -4.231   2.376  0.00  0.00    -0.019 C 
ATOM     26  C   UNL     1       3.804  -5.415   2.474  0.00  0.00    -0.002 C 
ATOM     27  C   UNL     1       3.256  -6.672   1.768  0.00  0.00    -0.002 C 
ATOM     28  C   UNL     1       1.786  -6.880   2.024  0.00  0.00    -0.019 C 
ATOM     29  C   UNL     1       0.978  -6.213   0.891  0.00  0.00    -0.078 C 
ATOM     30  H   UNL     1       0.457  -4.639   1.950  0.00  0.00    -0.081 HD
ENDBRANCH  22  23
BRANCH  22  35
ATOM     31  C   UNL     1      -0.383   1.447   0.613  0.00  0.00    +0.044 C 
ATOM     32  C   UNL     1      -0.275  -0.047   0.452  0.00  0.00    -0.050 A 
ATOM     33  C   UNL     1      -0.152  -0.600  -0.809  0.00  0.00    +0.003 A 
ATOM     34  C   UNL     1      -0.053  -1.970  -0.957  0.00  0.00    +0.002 A 
ATOM     35  C   UNL     1      -0.076  -2.789   0.157  0.00  0.00    -0.059 A 
ATOM     36  C   UNL     1      -0.199  -2.236   1.418  0.00  0.00    +0.002 A 
ATOM     37  C   UNL     1      -0.294  -0.865   1.566  0.00  0.00    +0.003 A 
ENDBRANCH  22  35
ENDBRANCH  21  22
ENDBRANCH   1  21
TORSDOF 8
