REMARK  Name = ZINC37641219
REMARK  6 active torsions:
REMARK  status: ('A' for Active; 'I' for Inactive)
REMARK    1  A    between atoms: C_1  and  C_2
REMARK    2  A    between atoms: C_2  and  N_3
REMARK    3  A    between atoms: C_10  and  C_13
REMARK    4  A    between atoms: C_11  and  C_12
REMARK    5  A    between atoms: N_16  and  C_19
REMARK    6  A    between atoms: C_19  and  C_20
REMARK                            x       y       z     vdW  Elec       q    Type
REMARK                         _______ _______ _______ _____ _____    ______ ____
ROOT
ATOM      1  N   UNL     1       0.711  -0.489   1.189  0.00  0.00    -0.287 N 
ATOM      2  C   UNL     1       2.062  -0.692   1.138  0.00  0.00    +0.097 A 
ATOM      3  C   UNL     1       2.772  -1.151   2.243  0.00  0.00    +0.078 A 
ATOM      4  C   UNL     1       4.228  -1.328   2.055  0.00  0.00    +0.003 A 
ATOM      5  C   UNL     1       4.714  -1.022   0.823  0.00  0.00    +0.004 A 
ATOM      6  S   UNL     1       3.303  -0.502  -0.114  0.00  0.00    -0.074 S 
ATOM      7  C   UNL     1       6.194  -1.260   0.820  0.00  0.00    +0.073 C 
ATOM      8  C   UNL     1       6.511  -1.747   2.216  0.00  0.00    -0.064 C 
ATOM      9  C   UNL     1       5.377  -1.775   2.892  0.00  0.00    -0.042 C 
ATOM     10  C   UNL     1       5.260  -2.205   4.332  0.00  0.00    +0.044 C 
ATOM     11  C   UNL     1       7.871  -2.130   2.740  0.00  0.00    +0.039 C 
ATOM     12  C   UNL     1       1.972  -1.401   3.460  0.00  0.00    +0.266 A 
ATOM     13  O   UNL     1       2.507  -1.805   4.477  0.00  0.00    -0.267 OA
ATOM     14  N   UNL     1       0.646  -1.177   3.430  0.00  0.00    -0.256 N 
ATOM     15  C   UNL     1       0.028  -0.728   2.326  0.00  0.00    +0.333 A 
ATOM     16  O   UNL     1      -1.173  -0.537   2.352  0.00  0.00    -0.246 OA
ENDROOT
BRANCH   1  18
ATOM     17  C   UNL     1      -0.019   1.526   0.010  0.00  0.00    +0.027 C 
ATOM     18  C   UNL     1       0.002  -0.004   0.002  0.00  0.00    +0.124 C 
ENDBRANCH   1  18
BRANCH  14  19
ATOM     19  C   UNL     1      -0.145  -1.426   4.638  0.00  0.00    +0.165 C 
BRANCH  19  20
ATOM     20  C   UNL     1      -0.199  -0.171   5.470  0.00  0.00    -0.027 A 
ATOM     21  C   UNL     1       0.770   0.067   6.427  0.00  0.00    +0.007 A 
ATOM     22  C   UNL     1       0.721   1.218   7.190  0.00  0.00    +0.020 A 
ATOM     23  C   UNL     1      -0.298   2.133   6.997  0.00  0.00    +0.041 A 
ATOM     24  C   UNL     1      -1.268   1.895   6.039  0.00  0.00    +0.020 A 
ATOM     25  C   UNL     1      -1.215   0.746   5.273  0.00  0.00    +0.007 A 
ATOM     26 CL   UNL     1      -0.361   3.579   7.956  0.00  0.00    -0.084 Cl
ENDBRANCH  19  20
ENDBRANCH  14  19
TORSDOF 3
