REMARK  Name = ZINC14417547
REMARK  7 active torsions:
REMARK  status: ('A' for Active; 'I' for Inactive)
REMARK    1  A    between atoms: C_1  and  C_2
REMARK    2  A    between atoms: C_2  and  C_4
REMARK    3  A    between atoms: C_2  and  N_11
REMARK    4  A    between atoms: C_12  and  C_14
REMARK    5  A    between atoms: C_14  and  C_15
REMARK    6  A    between atoms: C_15  and  C_17
REMARK    7  A    between atoms: C_15  and  N_22
REMARK                            x       y       z     vdW  Elec       q    Type
REMARK                         _______ _______ _______ _____ _____    ______ ____
ROOT
ATOM      1  C   UNL     1       2.448   1.226   0.708  0.00  0.00    +0.123 C 
ENDROOT
BRANCH   1   3
ATOM      2  N   UNL     1       0.018   1.072   0.273  0.00  0.00    -0.309 N 
ATOM      3  C   UNL     1       1.102   1.853   0.451  0.00  0.00    +0.216 C 
ATOM      4  O   UNL     1       0.994   3.060   0.403  0.00  0.00    -0.276 OA
ATOM      5  H   UNL     1       0.104   0.106   0.311  0.00  0.00    +0.149 HD
BRANCH   2   7
ATOM      6  C   UNL     1      -1.456   1.919  -1.485  0.00  0.00    +0.033 C 
ATOM      7  C   UNL     1      -1.290   1.681   0.017  0.00  0.00    +0.101 C 
BRANCH   7   8
ATOM      8  C   UNL     1      -2.377   0.758   0.503  0.00  0.00    -0.014 A 
ATOM      9  C   UNL     1      -2.154  -0.605   0.558  0.00  0.00    +0.006 A 
ATOM     10  C   UNL     1      -3.151  -1.451   1.008  0.00  0.00    +0.000 A 
ATOM     11  C   UNL     1      -4.374  -0.935   1.395  0.00  0.00    +0.001 A 
ATOM     12  C   UNL     1      -4.600   0.427   1.335  0.00  0.00    +0.015 A 
ATOM     13  C   UNL     1      -3.601   1.275   0.889  0.00  0.00    +0.023 A 
ATOM     14 BR   UNL     1      -3.910   3.139   0.806  0.00  0.00    -0.050 Br
ENDBRANCH   7   8
ENDBRANCH   2   7
ENDBRANCH   1   3
BRANCH   1  15
ATOM     15  C   UNL     1       3.500   2.325   0.872  0.00  0.00    +0.120 C 
BRANCH  15  16
ATOM     16  N   UNL     1       3.202   3.110   2.072  0.00  0.00    -0.292 N 
ATOM     17  C   UNL     1       3.634   4.383   2.170  0.00  0.00    +0.298 C 
ATOM     18  O   UNL     1       4.271   4.880   1.261  0.00  0.00    -0.253 OA
ATOM     19  N   UNL     1       3.360   5.106   3.274  0.00  0.00    -0.313 N 
ATOM     20  H   UNL     1       2.694   2.714   2.798  0.00  0.00    +0.151 HD
ATOM     21  H   UNL     1       2.852   4.709   3.999  0.00  0.00    +0.146 HD
ATOM     22  H   UNL     1       3.671   6.022   3.344  0.00  0.00    +0.146 HD
ENDBRANCH  15  16
BRANCH  15  23
ATOM     23  C   UNL     1       4.864   1.699   1.007  0.00  0.00    +0.010 A 
ATOM     24  C   UNL     1       5.829   1.545   0.067  0.00  0.00    +0.013 A 
ATOM     25  C   UNL     1       7.019   0.938   0.422  0.00  0.00    +0.008 A 
ATOM     26  C   UNL     1       7.181   0.504   1.696  0.00  0.00    +0.045 A 
ATOM     27  S   UNL     1       5.625   0.961   2.443  0.00  0.00    -0.100 S 
ENDBRANCH  15  23
ENDBRANCH   1  15
TORSDOF 6
