REMARK  Name = ZINC67480068
REMARK  10 active torsions:
REMARK  status: ('A' for Active; 'I' for Inactive)
REMARK    1  A    between atoms: C_1  and  C_2
REMARK    2  A    between atoms: C_2  and  S_3
REMARK    3  A    between atoms: S_3  and  N_6
REMARK    4  A    between atoms: N_6  and  C_7
REMARK    5  A    between atoms: C_7  and  C_8
REMARK    6  A    between atoms: C_8  and  N_9
REMARK    7  A    between atoms: N_12  and  C_13
REMARK    8  A    between atoms: C_13  and  C_14
REMARK    9  A    between atoms: N_19  and  C_20
REMARK   10  A    between atoms: C_20  and  C_21
REMARK                            x       y       z     vdW  Elec       q    Type
REMARK                         _______ _______ _______ _____ _____    ______ ____
ROOT
ATOM      1  N   UNL     1      -1.513  -5.138  -1.748  0.00  0.00    -0.298 N 
ATOM      2  C   UNL     1      -1.543  -6.468  -1.966  0.00  0.00    +0.300 C 
ATOM      3  O   UNL     1      -0.505  -7.083  -2.119  0.00  0.00    -0.253 OA
ATOM      4  N   UNL     1      -2.724  -7.116  -2.015  0.00  0.00    -0.301 N 
ATOM      5  H   UNL     1      -2.341  -4.648  -1.626  0.00  0.00    +0.150 HD
ATOM      6  H   UNL     1      -3.552  -6.626  -1.893  0.00  0.00    +0.150 HD
ENDROOT
BRANCH   1   7
ATOM      7  C   UNL     1      -0.230  -4.434  -1.695  0.00  0.00    +0.122 C 
BRANCH   7   8
ATOM      8  C   UNL     1      -0.475  -2.946  -1.437  0.00  0.00    +0.124 C 
BRANCH   8   9
ATOM      9  N   UNL     1       0.808  -2.241  -1.384  0.00  0.00    -0.193 NA
ATOM     10  H   UNL     1       1.633  -2.742  -1.287  0.00  0.00    +0.148 HD
BRANCH   9  11
ATOM     11  S   UNL     1       0.851  -0.589  -1.490  0.00  0.00    +0.029 S 
ATOM     12  O   UNL     1       0.082  -0.280  -2.644  0.00  0.00    -0.158 OA
ATOM     13  O   UNL     1       2.232  -0.257  -1.430  0.00  0.00    -0.158 OA
BRANCH  11  15
ATOM     14  C   UNL     1      -0.019   1.526   0.010  0.00  0.00    +0.029 C 
ATOM     15  C   UNL     1       0.002  -0.004   0.002  0.00  0.00    +0.181 C 
ENDBRANCH  11  15
ENDBRANCH   9  11
ENDBRANCH   8   9
ENDBRANCH   7   8
ENDBRANCH   1   7
BRANCH   4  16
ATOM     16  C   UNL     1      -2.757  -8.561  -2.252  0.00  0.00    +0.090 C 
BRANCH  16  17
ATOM     17  C   UNL     1      -4.209  -9.044  -2.260  0.00  0.00    -0.051 C 
ATOM     18  C   UNL     1      -4.266 -10.529  -2.675  0.00  0.00    -0.016 C 
ATOM     19  C   UNL     1      -5.540 -10.596  -3.558  0.00  0.00    -0.020 C 
ATOM     20  C   UNL     1      -5.496  -9.223  -4.274  0.00  0.00    -0.078 C 
ATOM     21  N   UNL     1      -4.986  -8.279  -3.252  0.00  0.00    +0.383 N 
ATOM     22  H   UNL     1      -4.393  -7.591  -3.691  0.00  0.00    -0.081 HD
BRANCH  21  23
ATOM     23  C   UNL     1      -6.112  -7.609  -2.588  0.00  0.00    -0.075 C 
BRANCH  23  24
ATOM     24  C   UNL     1      -6.841  -6.718  -3.596  0.00  0.00    -0.028 C 
ATOM     25  C   UNL     1      -5.910  -5.592  -4.050  0.00  0.00    +0.002 C 
ATOM     26  C   UNL     1      -6.639  -4.702  -5.058  0.00  0.00    +0.000 C 
ATOM     27  C   UNL     1      -7.883  -4.101  -4.401  0.00  0.00    +0.000 C 
ATOM     28  C   UNL     1      -8.815  -5.227  -3.947  0.00  0.00    +0.000 C 
ATOM     29  C   UNL     1      -8.085  -6.117  -2.939  0.00  0.00    +0.002 C 
ENDBRANCH  23  24
ENDBRANCH  21  23
ENDBRANCH  16  17
ENDBRANCH   4  16
TORSDOF 9
