REMARK  Name = ZINC08870357
REMARK  10 active torsions:
REMARK  status: ('A' for Active; 'I' for Inactive)
REMARK    1  A    between atoms: C_1  and  C_2
REMARK    2  A    between atoms: C_4  and  C_31
REMARK    3  A    between atoms: C_5  and  S_9
REMARK    4  A    between atoms: C_6  and  C_8
REMARK    5  A    between atoms: S_9  and  N_12
REMARK    6  A    between atoms: N_12  and  C_13
REMARK    7  A    between atoms: C_15  and  S_21
REMARK    8  A    between atoms: C_16  and  O_20
REMARK    9  A    between atoms: C_18  and  C_19
REMARK   10  A    between atoms: S_21  and  C_22
REMARK                            x       y       z     vdW  Elec       q    Type
REMARK                         _______ _______ _______ _____ _____    ______ ____
ROOT
ATOM      1  C   UNL     1       5.042  -1.304  -2.310  0.00  0.00    +0.052 A 
ATOM      2  C   UNL     1       5.450  -0.009  -2.018  0.00  0.00    +0.043 A 
ATOM      3  C   UNL     1       5.414   0.966  -3.004  0.00  0.00    +0.058 A 
ATOM      4  C   UNL     1       4.967   0.643  -4.284  0.00  0.00    +0.131 A 
ATOM      5  C   UNL     1       4.560  -0.649  -4.570  0.00  0.00    +0.051 A 
ATOM      6  C   UNL     1       4.602  -1.622  -3.588  0.00  0.00    -0.025 A 
ATOM      7  C   UNL     1       4.165  -3.029  -3.904  0.00  0.00    +0.046 C 
ENDROOT
BRANCH   1   8
ATOM      8  N   UNL     1       5.078  -2.289  -1.317  0.00  0.00    -0.216 N 
ATOM      9  H   UNL     1       4.279  -2.491  -0.805  0.00  0.00    +0.174 HD
BRANCH   8  10
ATOM     10  S   UNL     1       6.485  -3.109  -1.015  0.00  0.00    +0.073 S 
ATOM     11  O   UNL     1       6.971  -3.557  -2.273  0.00  0.00    -0.150 OA
ATOM     12  O   UNL     1       6.213  -4.000   0.058  0.00  0.00    -0.150 OA
BRANCH  10  17
ATOM     13  C   UNL     1      10.489   0.904   1.050  0.00  0.00    +0.044 C 
ATOM     14  C   UNL     1       9.486  -0.094   0.533  0.00  0.00    -0.050 A 
ATOM     15  C   UNL     1       8.642  -0.745   1.414  0.00  0.00    +0.008 A 
ATOM     16  C   UNL     1       7.726  -1.666   0.941  0.00  0.00    -0.023 A 
ATOM     17  C   UNL     1       7.653  -1.935  -0.412  0.00  0.00    +0.114 A 
ATOM     18  C   UNL     1       8.495  -1.284  -1.294  0.00  0.00    -0.023 A 
ATOM     19  C   UNL     1       9.412  -0.363  -0.821  0.00  0.00    +0.008 A 
ATOM     20  C   UNL     1       8.416  -1.578  -2.769  0.00  0.00    +0.046 C 
ATOM     21  C   UNL     1       6.807  -2.376   1.902  0.00  0.00    +0.046 C 
ENDBRANCH  10  17
ENDBRANCH   8  10
ENDBRANCH   1   8
BRANCH   4  22
ATOM     22  O   UNL     1       4.930   1.598  -5.253  0.00  0.00    -0.506 OA
ATOM     23  H   UNL     1       5.745   1.666  -5.769  0.00  0.00    +0.292 HD
ENDBRANCH   4  22
BRANCH   3  24
ATOM     24  S   UNL     1       5.932   2.610  -2.638  0.00  0.00    -0.059 S 
BRANCH  24  25
ATOM     25  C   UNL     1       4.367   3.415  -2.565  0.00  0.00    +0.140 A 
ATOM     26  N   UNL     1       3.165   2.891  -2.655  0.00  0.00    -0.232 NA
ATOM     27  C   UNL     1       2.041   3.636  -2.577  0.00  0.00    +0.079 A 
ATOM     28  C   UNL     1       0.698   3.200  -2.653  0.00  0.00    +0.029 A 
ATOM     29  C   UNL     1      -0.335   4.096  -2.561  0.00  0.00    +0.002 A 
ATOM     30  C   UNL     1      -0.104   5.454  -2.392  0.00  0.00    +0.001 A 
ATOM     31  C   UNL     1       1.197   5.915  -2.314  0.00  0.00    +0.017 A 
ATOM     32  C   UNL     1       2.238   5.025  -2.405  0.00  0.00    +0.040 A 
ATOM     33  S   UNL     1       4.009   5.154  -2.359  0.00  0.00    -0.061 S 
ENDBRANCH  24  25
ENDBRANCH   3  24
TORSDOF 6
