REMARK  Name = ZINC49488082
REMARK  10 active torsions:
REMARK  status: ('A' for Active; 'I' for Inactive)
REMARK    1  A    between atoms: C_1  and  N_2
REMARK    2  A    between atoms: N_2  and  C_3
REMARK    3  A    between atoms: N_2  and  C_4
REMARK    4  A    between atoms: C_4  and  C_6
REMARK    5  A    between atoms: C_4  and  C_31
REMARK    6  A    between atoms: C_6  and  N_7
REMARK    7  A    between atoms: C_8  and  C_10
REMARK    8  A    between atoms: N_12  and  C_13
REMARK    9  A    between atoms: N_19  and  S_23
REMARK   10  A    between atoms: S_23  and  C_26
REMARK                            x       y       z     vdW  Elec       q    Type
REMARK                         _______ _______ _______ _____ _____    ______ ____
ROOT
ATOM      1  C   UNL     1      -2.645   4.095  -1.249  0.00  0.00    +0.303 C 
ATOM      2  O   UNL     1      -1.963   4.708  -0.453  0.00  0.00    -0.265 OA
ATOM      3  N   UNL     1      -3.013   4.676  -2.408  0.00  0.00    -0.278 N 
ATOM      4  H   UNL     1      -3.621   4.216  -3.009  0.00  0.00    +0.155 HD
ENDROOT
BRANCH   3   5
ATOM      5  C   UNL     1      -2.521   5.939  -2.744  0.00  0.00    +0.036 A 
ATOM      6  C   UNL     1      -1.231   6.306  -2.375  0.00  0.00    +0.024 A 
ATOM      7  C   UNL     1      -0.747   7.555  -2.706  0.00  0.00    +0.007 A 
ATOM      8  C   UNL     1      -1.537   8.451  -3.407  0.00  0.00    -0.025 A 
ATOM      9  C   UNL     1      -2.823   8.088  -3.779  0.00  0.00    +0.056 A 
ATOM     10  C   UNL     1      -3.314   6.830  -3.451  0.00  0.00    +0.048 A 
ATOM     11  N   UNL     1      -3.639   8.971  -4.495  0.00  0.00    -0.202 N 
ATOM     12  C   UNL     1      -3.246  10.383  -4.590  0.00  0.00    +0.132 C 
ATOM     13  C   UNL     1      -1.745  10.432  -4.907  0.00  0.00    +0.025 C 
ATOM     14  C   UNL     1      -0.975   9.807  -3.744  0.00  0.00    +0.038 C 
BRANCH  11  15
ATOM     15  S   UNL     1      -5.024   8.432  -5.225  0.00  0.00    +0.081 S 
ATOM     16  O   UNL     1      -5.406   9.432  -6.160  0.00  0.00    -0.149 OA
ATOM     17  O   UNL     1      -4.785   7.084  -5.606  0.00  0.00    -0.149 OA
BRANCH  15  18
ATOM     18  C   UNL     1      -6.281   8.392  -3.990  0.00  0.00    +0.146 A 
ATOM     19  C   UNL     1      -7.156   9.363  -3.630  0.00  0.00    +0.036 A 
ATOM     20  C   UNL     1      -8.066   9.105  -2.623  0.00  0.00    +0.010 A 
ATOM     21  C   UNL     1      -8.057   7.888  -2.024  0.00  0.00    +0.047 A 
ATOM     22  S   UNL     1      -6.738   7.059  -2.894  0.00  0.00    -0.077 S 
ENDBRANCH  15  18
ENDBRANCH  11  15
ENDBRANCH   3   5
BRANCH   1  24
ATOM     23  N   UNL     1      -2.707   2.117   0.216  0.00  0.00    -0.309 N 
ATOM     24  C   UNL     1      -3.075   2.698  -0.943  0.00  0.00    +0.299 C 
ATOM     25  O   UNL     1      -3.757   2.086  -1.739  0.00  0.00    -0.265 OA
ATOM     26  H   UNL     1      -2.162   2.607   0.852  0.00  0.00    +0.149 HD
BRANCH  23  27
ATOM     27  C   UNL     1      -3.129   0.747   0.515  0.00  0.00    +0.094 C 
BRANCH  27  28
ATOM     28  C   UNL     1      -2.481   0.288   1.823  0.00  0.00    -0.021 C 
BRANCH  28  29
ATOM     29  C   UNL     1      -2.951   1.167   2.953  0.00  0.00    -0.059 A 
ATOM     30  C   UNL     1      -4.186   0.946   3.533  0.00  0.00    +0.002 A 
ATOM     31  C   UNL     1      -4.617   1.752   4.570  0.00  0.00    +0.000 A 
ATOM     32  C   UNL     1      -3.814   2.781   5.026  0.00  0.00    +0.000 A 
ATOM     33  C   UNL     1      -2.579   3.002   4.446  0.00  0.00    +0.000 A 
ATOM     34  C   UNL     1      -2.146   2.192   3.412  0.00  0.00    +0.002 A 
ENDBRANCH  28  29
BRANCH  28  36
ATOM     35  C   UNL     1      -2.322  -1.975   1.043  0.00  0.00    -0.096 C 
ATOM     36  N   UNL     1      -2.862  -1.105   2.095  0.00  0.00    +0.382 N 
ATOM     37  C   UNL     1      -2.318  -1.515   3.397  0.00  0.00    -0.096 C 
ATOM     38  H   UNL     1      -3.868  -1.181   2.112  0.00  0.00    -0.082 HD
ENDBRANCH  28  36
ENDBRANCH  27  28
ENDBRANCH  23  27
ENDBRANCH   1  24
TORSDOF 8
