REMARK  Name = ZINC00496275
REMARK  4 active torsions:
REMARK  status: ('A' for Active; 'I' for Inactive)
REMARK    1  A    between atoms: C_3  and  N_22
REMARK    2  A    between atoms: C_6  and  C_7
REMARK    3  A    between atoms: C_7  and  C_9
REMARK    4  A    between atoms: C_10  and  N_21
REMARK                            x       y       z     vdW  Elec       q    Type
REMARK                         _______ _______ _______ _____ _____    ______ ____
ROOT
ATOM      1  C   UNL     1      -0.854  -2.282  -0.027  0.00  0.00    +0.083 A 
ATOM      2  C   UNL     1      -1.125  -0.928  -0.051  0.00  0.00    +0.052 A 
ATOM      3  C   UNL     1      -0.004  -0.002  -0.076  0.00  0.00    +0.029 A 
ATOM      4  C   UNL     1      -0.026   1.414  -0.103  0.00  0.00    +0.017 A 
ATOM      5  C   UNL     1       1.165   2.107  -0.124  0.00  0.00    -0.025 A 
ATOM      6  C   UNL     1       2.371   1.420  -0.117  0.00  0.00    +0.046 A 
ATOM      7  N   UNL     1       2.384   0.099  -0.092  0.00  0.00    -0.244 NA
ATOM      8  C   UNL     1       1.274  -0.605  -0.072  0.00  0.00    +0.111 A 
ATOM      9  S   UNL     1       0.927  -2.346  -0.037  0.00  0.00    -0.064 S 
ATOM     10  C   UNL     1       3.519   2.407  -0.141  0.00  0.00    +0.056 C 
ATOM     11  C   UNL     1       2.901   3.758   0.278  0.00  0.00    +0.011 C 
ATOM     12  C   UNL     1       1.428   3.598  -0.153  0.00  0.00    +0.037 C 
ENDROOT
BRANCH   2  13
ATOM     13  N   UNL     1      -2.431  -0.464  -0.050  0.00  0.00    -0.356 N 
ATOM     14  H   UNL     1      -2.607   0.490  -0.067  0.00  0.00    +0.142 HD
ATOM     15  H   UNL     1      -3.169  -1.093  -0.033  0.00  0.00    +0.142 HD
ENDBRANCH   2  13
BRANCH   1  16
ATOM     16  C   UNL     1      -1.770  -3.360  -0.001  0.00  0.00    +0.202 C 
ATOM     17  O   UNL     1      -2.962  -3.143   0.124  0.00  0.00    -0.286 OA
BRANCH  16  23
ATOM     18  C   UNL     1      -2.035  -5.808   0.383  0.00  0.00    +0.014 A 
ATOM     19  C   UNL     1      -1.575  -7.103   0.257  0.00  0.00    +0.033 A 
ATOM     20  C   UNL     1      -0.362  -7.353  -0.361  0.00  0.00    +0.126 A 
ATOM     21  C   UNL     1       0.394  -6.308  -0.862  0.00  0.00    +0.033 A 
ATOM     22  C   UNL     1      -0.057  -5.009  -0.748  0.00  0.00    +0.014 A 
ATOM     23  C   UNL     1      -1.279  -4.750  -0.126  0.00  0.00    +0.023 A 
BRANCH  20  24
ATOM     24  N   UNL     1       0.128  -8.744  -0.486  0.00  0.00    +0.056 N 
ATOM     25  O   UNL     1       1.195  -8.967  -1.030  0.00  0.00    -0.126 OA
ATOM     26  O   UNL     1      -0.536  -9.665  -0.046  0.00  0.00    -0.126 OA
ENDBRANCH  20  24
ENDBRANCH  16  23
ENDBRANCH   1  16
TORSDOF 4
