REMARK  Name = ZINC64167156
REMARK  12 active torsions:
REMARK  status: ('A' for Active; 'I' for Inactive)
REMARK    1  A    between atoms: C_1  and  C_2
REMARK    2  A    between atoms: C_10  and  C_12
REMARK    3  A    between atoms: N_14  and  C_15
REMARK    4  A    between atoms: C_18  and  C_33
REMARK    5  A    between atoms: N_20  and  C_22
REMARK    6  A    between atoms: C_22  and  C_23
REMARK    7  A    between atoms: C_26  and  O_31
REMARK    8  A    between atoms: C_28  and  O_29
REMARK    9  A    between atoms: O_29  and  C_30
REMARK   10  A    between atoms: O_31  and  C_32
REMARK   11  A    between atoms: C_33  and  O_35
REMARK   12  A    between atoms: O_35  and  C_36
REMARK                            x       y       z     vdW  Elec       q    Type
REMARK                         _______ _______ _______ _____ _____    ______ ____
ROOT
ATOM      1  C   UNL     1       2.337   0.526   3.357  0.00  0.00    +0.089 C 
ATOM      2  C   UNL     1       2.087   1.258   4.702  0.00  0.00    +0.054 C 
ATOM      3  C   UNL     1       2.178   2.743   4.272  0.00  0.00    +0.168 C 
ATOM      4  N   UNL     1       3.249   2.776   3.253  0.00  0.00    -0.284 NA
ATOM      5  C   UNL     1       3.370   1.430   2.652  0.00  0.00    +0.107 C 
ENDROOT
BRANCH   1   8
ATOM      6  C   UNL     1       0.964  -0.505   1.628  0.00  0.00    +0.240 C 
ATOM      7  O   UNL     1       1.864  -1.292   1.424  0.00  0.00    -0.273 OA
ATOM      8  N   UNL     1       1.101   0.444   2.574  0.00  0.00    -0.309 N 
ATOM      9  H   UNL     1       0.381   1.074   2.737  0.00  0.00    +0.149 HD
BRANCH   6  19
ATOM     10  C   UNL     1      -0.212   1.939  -0.123  0.00  0.00    +0.042 C 
ATOM     11  C   UNL     1      -0.294   0.443  -0.282  0.00  0.00    -0.033 C 
ATOM     12  C   UNL     1      -0.364  -0.249  -1.442  0.00  0.00    +0.001 A 
ATOM     13  C   UNL     1      -0.386   0.168  -2.849  0.00  0.00    +0.030 A 
ATOM     14  C   UNL     1      -0.464  -0.778  -3.813  0.00  0.00    +0.042 A 
ATOM     15  C   UNL     1      -0.526  -2.145  -3.502  0.00  0.00    +0.022 A 
ATOM     16  C   UNL     1      -0.511  -2.604  -2.233  0.00  0.00    +0.027 A 
ATOM     17  C   UNL     1      -0.430  -1.697  -1.141  0.00  0.00    +0.043 A 
ATOM     18  N   UNL     1      -0.401  -1.893   0.155  0.00  0.00    -0.370 N 
ATOM     19  C   UNL     1      -0.307  -0.590   0.823  0.00  0.00    +0.193 C 
ATOM     20 CL   UNL     1      -0.490  -0.288  -5.479  0.00  0.00    -0.084 Cl
ATOM     21  H   UNL     1      -0.433  -2.755   0.599  0.00  0.00    +0.161 HD
ENDBRANCH   6  19
ENDBRANCH   1   8
BRANCH   3  22
ATOM     22  C   UNL     1       2.546   3.608   5.450  0.00  0.00    +0.324 C 
ATOM     23  O   UNL     1       3.570   4.248   5.434  0.00  0.00    -0.249 OA
BRANCH  22  24
ATOM     24  O   UNL     1       1.734   3.668   6.518  0.00  0.00    -0.467 OA
ATOM     25  C   UNL     1       2.145   4.508   7.599  0.00  0.00    +0.280 C 
ENDBRANCH  22  24
ENDBRANCH   3  22
BRANCH   4  26
ATOM     26  C   UNL     1       2.967   3.788   2.226  0.00  0.00    +0.124 C 
BRANCH  26  27
ATOM     27  C   UNL     1       4.218   4.058   1.431  0.00  0.00    +0.008 A 
ATOM     28  C   UNL     1       4.363   3.519   0.167  0.00  0.00    +0.012 A 
ATOM     29  C   UNL     1       5.509   3.765  -0.564  0.00  0.00    +0.046 A 
ATOM     30  C   UNL     1       6.518   4.555  -0.031  0.00  0.00    +0.124 A 
ATOM     31  C   UNL     1       6.375   5.098   1.236  0.00  0.00    +0.091 A 
ATOM     32  C   UNL     1       5.221   4.854   1.966  0.00  0.00    +0.128 A 
BRANCH  32  33
ATOM     33  O   UNL     1       5.075   5.389   3.207  0.00  0.00    -0.495 OA
ATOM     34  C   UNL     1       6.148   6.198   3.695  0.00  0.00    +0.277 C 
ENDBRANCH  32  33
BRANCH  30  35
ATOM     35  O   UNL     1       7.645   4.797  -0.751  0.00  0.00    -0.495 OA
ATOM     36  C   UNL     1       7.725   4.206  -2.049  0.00  0.00    +0.277 C 
ENDBRANCH  30  35
ENDBRANCH  26  27
ENDBRANCH   4  26
TORSDOF 8
