REMARK  Name = ZINC43609416
REMARK  12 active torsions:
REMARK  status: ('A' for Active; 'I' for Inactive)
REMARK    1  A    between atoms: C_1  and  C_2
REMARK    2  A    between atoms: C_3  and  C_18
REMARK    3  A    between atoms: C_5  and  C_7
REMARK    4  A    between atoms: C_12  and  N_13
REMARK    5  A    between atoms: N_13  and  S_14
REMARK    6  A    between atoms: S_14  and  C_17
REMARK    7  A    between atoms: C_18  and  N_19
REMARK    8  A    between atoms: N_19  and  C_20
REMARK    9  A    between atoms: N_19  and  C_21
REMARK   10  A    between atoms: C_21  and  C_22
REMARK   11  A    between atoms: C_30  and  C_31
REMARK   12  A    between atoms: C_30  and  C_32
REMARK                            x       y       z     vdW  Elec       q    Type
REMARK                         _______ _______ _______ _____ _____    ______ ____
ROOT
ATOM      1  C   UNL     1       0.257   1.766   0.190  0.00  0.00    +0.088 C 
ATOM      2  C   UNL     1       0.161   0.273   0.013  0.00  0.00    +0.124 A 
ATOM      3  C   UNL     1      -0.969  -0.441  -0.138  0.00  0.00    +0.066 A 
ATOM      4  N   UNL     1      -0.626  -1.732  -0.266  0.00  0.00    -0.216 NA
ATOM      5  C   UNL     1       0.681  -1.828  -0.198  0.00  0.00    +0.229 A 
ATOM      6  O   UNL     1       1.192  -0.595  -0.030  0.00  0.00    -0.440 OA
ENDROOT
BRANCH   5   7
ATOM      7  C   UNL     1       1.461  -3.078  -0.294  0.00  0.00    +0.059 A 
ATOM      8  C   UNL     1       0.810  -4.298  -0.480  0.00  0.00    +0.015 A 
ATOM      9  C   UNL     1       1.543  -5.463  -0.569  0.00  0.00    +0.001 A 
ATOM     10  C   UNL     1       2.924  -5.428  -0.476  0.00  0.00    +0.002 A 
ATOM     11  C   UNL     1       3.582  -4.227  -0.292  0.00  0.00    +0.025 A 
ATOM     12  C   UNL     1       2.860  -3.045  -0.206  0.00  0.00    +0.060 A 
BRANCH  12  13
ATOM     13  N   UNL     1       3.522  -1.833  -0.026  0.00  0.00    -0.220 N 
ATOM     14  H   UNL     1       3.121  -1.137   0.519  0.00  0.00    +0.173 HD
BRANCH  13  15
ATOM     15  S   UNL     1       4.992  -1.578  -0.743  0.00  0.00    +0.040 S 
ATOM     16  O   UNL     1       5.321  -0.232  -0.429  0.00  0.00    -0.155 OA
ATOM     17  O   UNL     1       5.808  -2.648  -0.287  0.00  0.00    -0.155 OA
ATOM     18  C   UNL     1       4.679  -1.746  -2.522  0.00  0.00    +0.218 C 
ENDBRANCH  13  15
ENDBRANCH  12  13
ENDBRANCH   5   7
BRANCH   3  19
ATOM     19  C   UNL     1      -2.371   0.111  -0.160  0.00  0.00    -0.019 C 
BRANCH  19  20
ATOM     20  N   UNL     1      -2.744   0.449  -1.540  0.00  0.00    +0.384 N 
ATOM     21  C   UNL     1      -2.797  -0.777  -2.347  0.00  0.00    -0.095 C 
ATOM     22  H   UNL     1      -2.058   1.078  -1.929  0.00  0.00    -0.081 HD
BRANCH  20  23
ATOM     23  C   UNL     1      -4.062   1.097  -1.547  0.00  0.00    -0.047 C 
BRANCH  23  24
ATOM     24  C   UNL     1      -4.390   1.554  -2.945  0.00  0.00    -0.086 C 
ATOM     25  C   UNL     1      -5.112   0.812  -3.753  0.00  0.00    -0.029 C 
ATOM     26  C   UNL     1      -5.425   1.310  -5.143  0.00  0.00    +0.031 C 
ATOM     27  C   UNL     1      -4.723   2.654  -5.382  0.00  0.00    -0.000 C 
ATOM     28  C   UNL     1      -3.263   2.658  -4.899  0.00  0.00    +0.012 C 
ATOM     29  C   UNL     1      -3.903   2.892  -3.472  0.00  0.00    +0.019 C 
ATOM     30  C   UNL     1      -5.014   3.636  -4.229  0.00  0.00    -0.025 C 
ATOM     31  C   UNL     1      -6.402   3.468  -3.607  0.00  0.00    +0.012 C 
ATOM     32  C   UNL     1      -4.674   5.092  -4.555  0.00  0.00    +0.012 C 
ENDBRANCH  23  24
ENDBRANCH  20  23
ENDBRANCH  19  20
ENDBRANCH   3  19
TORSDOF 7
