REMARK  Name = ZINC24092528
REMARK  5 active torsions:
REMARK  status: ('A' for Active; 'I' for Inactive)
REMARK    1  A    between atoms: C_1  and  C_2
REMARK    2  A    between atoms: N_11  and  C_15
REMARK    3  A    between atoms: C_15  and  C_16
REMARK    4  A    between atoms: N_18  and  C_19
REMARK    5  A    between atoms: C_19  and  C_20
REMARK                            x       y       z     vdW  Elec       q    Type
REMARK                         _______ _______ _______ _____ _____    ______ ____
ROOT
ATOM      1  C   UNL     1      -1.531   4.158  -2.155  0.00  0.00    +0.231 C 
ATOM      2  O   UNL     1      -1.992   3.547  -3.095  0.00  0.00    -0.274 OA
ATOM      3  N   UNL     1      -0.899   3.495  -1.165  0.00  0.00    -0.314 N 
ATOM      4  H   UNL     1      -0.481   4.050  -0.312  0.00  0.00    +0.149 HD
ENDROOT
BRANCH   1   5
ATOM      5  C   UNL     1      -1.663   5.658  -2.092  0.00  0.00    +0.213 C 
BRANCH   5  15
ATOM      6  C   UNL     1      -4.164   4.442  -5.577  0.00  0.00    +0.010 C 
ATOM      7  C   UNL     1      -4.877   5.793  -5.501  0.00  0.00    +0.018 C 
ATOM      8  C   UNL     1      -5.129   6.317  -6.917  0.00  0.00    +0.006 C 
ATOM      9  C   UNL     1      -5.824   7.678  -6.841  0.00  0.00    +0.000 C 
ATOM     10  C   UNL     1      -4.928   8.668  -6.094  0.00  0.00    +0.003 C 
ATOM     11  C   UNL     1      -4.675   8.154  -4.674  0.00  0.00    +0.035 C 
ATOM     12  C   UNL     1      -4.007   6.785  -4.737  0.00  0.00    +0.115 C 
ATOM     13  C   UNL     1      -3.723   6.273  -3.343  0.00  0.00    +0.247 C 
ATOM     14  O   UNL     1      -4.530   6.036  -2.470  0.00  0.00    -0.273 OA
ATOM     15  N   UNL     1      -2.383   6.134  -3.276  0.00  0.00    -0.215 N 
ATOM     16  C   UNL     1      -1.792   6.491  -4.423  0.00  0.00    +0.310 C 
ATOM     17  O   UNL     1      -0.591   6.458  -4.603  0.00  0.00    -0.252 OA
ATOM     18  N   UNL     1      -2.679   6.888  -5.356  0.00  0.00    -0.285 N 
ATOM     19  H   UNL     1      -2.582   7.239  -6.394  0.00  0.00    +0.151 HD
ENDBRANCH   5  15
ENDBRANCH   1   5
BRANCH   3  20
ATOM     20  C   UNL     1      -0.771   2.037  -1.226  0.00  0.00    +0.108 C 
BRANCH  20  21
ATOM     21  C   UNL     1      -0.019   1.540   0.011  0.00  0.00    +0.019 C 
ATOM     22  C   UNL     1       1.395   2.115   0.000  0.00  0.00    +0.018 C 
ATOM     23  C   UNL     1       2.458   0.994  -0.017  0.00  0.00    +0.050 C 
ATOM     24  C   UNL     1       2.142   0.122   1.189  0.00  0.00    -0.036 A 
ATOM     25  C   UNL     1       3.016  -0.153   2.202  0.00  0.00    +0.004 A 
ATOM     26  C   UNL     1       2.595  -0.966   3.246  0.00  0.00    +0.000 A 
ATOM     27  C   UNL     1       1.314  -1.486   3.256  0.00  0.00    +0.000 A 
ATOM     28  C   UNL     1       0.431  -1.202   2.222  0.00  0.00    +0.004 A 
ATOM     29  C   UNL     1       0.852  -0.402   1.199  0.00  0.00    -0.036 A 
ATOM     30  C   UNL     1       0.002  -0.004   0.002  0.00  0.00    +0.054 C 
ATOM     31  C   UNL     1       0.828  -0.389  -1.215  0.00  0.00    -0.036 A 
ATOM     32  C   UNL     1       2.119   0.136  -1.225  0.00  0.00    -0.036 A 
ATOM     33  C   UNL     1       2.972  -0.128  -2.259  0.00  0.00    +0.004 A 
ATOM     34  C   UNL     1       2.530  -0.930  -3.303  0.00  0.00    +0.000 A 
ATOM     35  C   UNL     1       1.250  -1.451  -3.293  0.00  0.00    +0.000 A 
ATOM     36  C   UNL     1       0.387  -1.179  -2.239  0.00  0.00    +0.004 A 
ENDBRANCH  20  21
ENDBRANCH   3  20
TORSDOF 4
