REMARK  Name = ZINC12475815
REMARK  10 active torsions:
REMARK  status: ('A' for Active; 'I' for Inactive)
REMARK    1  A    between atoms: C_1  and  C_2
REMARK    2  A    between atoms: C_2  and  O_3
REMARK    3  A    between atoms: O_3  and  C_4
REMARK    4  A    between atoms: C_8  and  N_10
REMARK    5  A    between atoms: N_10  and  C_11
REMARK    6  A    between atoms: C_11  and  C_13
REMARK    7  A    between atoms: C_11  and  C_18
REMARK    8  A    between atoms: N_20  and  C_21
REMARK    9  A    between atoms: C_27  and  C_29
REMARK   10  A    between atoms: C_29  and  C_30
REMARK                            x       y       z     vdW  Elec       q    Type
REMARK                         _______ _______ _______ _____ _____    ______ ____
ROOT
ATOM      1  N   UNL     1      -0.094   5.292  -0.423  0.00  0.00    -0.252 N 
ATOM      2  C   UNL     1      -1.235   5.907  -0.053  0.00  0.00    +0.225 C 
ATOM      3  O   UNL     1      -1.216   7.075   0.274  0.00  0.00    -0.275 OA
ENDROOT
BRANCH   1   8
ATOM      4  C   UNL     1      -1.157   1.781  -0.714  0.00  0.00    +0.122 A 
ATOM      5  C   UNL     1      -0.148   1.269  -1.518  0.00  0.00    +0.046 A 
ATOM      6  C   UNL     1       0.870   2.092  -1.960  0.00  0.00    +0.005 A 
ATOM      7  C   UNL     1       0.890   3.426  -1.599  0.00  0.00    +0.024 A 
ATOM      8  C   UNL     1      -0.115   3.942  -0.790  0.00  0.00    +0.041 A 
ATOM      9  C   UNL     1      -1.138   3.116  -0.345  0.00  0.00    +0.069 A 
BRANCH   4  10
ATOM     10  O   UNL     1      -2.161   0.971  -0.285  0.00  0.00    -0.492 OA
BRANCH  10  12
ATOM     11  C   UNL     1      -3.317  -1.145  -0.123  0.00  0.00    +0.048 C 
ATOM     12  C   UNL     1      -2.114  -0.396  -0.700  0.00  0.00    +0.225 C 
ENDBRANCH  10  12
ENDBRANCH   4  10
ENDBRANCH   1   8
BRANCH   1  13
ATOM     13  C   UNL     1       1.167   6.037  -0.441  0.00  0.00    +0.233 C 
BRANCH  13  14
ATOM     14  C   UNL     1       2.147   5.389   0.502  0.00  0.00    +0.135 A 
ATOM     15  C   UNL     1       2.997   6.035   1.321  0.00  0.00    +0.047 A 
ATOM     16  C   UNL     1       3.724   5.046   2.021  0.00  0.00    +0.041 A 
ATOM     17  C   UNL     1       3.275   3.853   1.589  0.00  0.00    +0.195 A 
ATOM     18  O   UNL     1       2.316   4.067   0.674  0.00  0.00    -0.465 OA
ENDBRANCH  13  14
BRANCH  13  19
ATOM     19  C   UNL     1       1.735   6.030  -1.837  0.00  0.00    +0.242 C 
ATOM     20  O   UNL     1       1.144   5.459  -2.729  0.00  0.00    -0.273 OA
ATOM     21  N   UNL     1       2.899   6.659  -2.095  0.00  0.00    -0.311 N 
ATOM     22  H   UNL     1       3.371   7.115  -1.381  0.00  0.00    +0.149 HD
BRANCH  21  23
ATOM     23  C   UNL     1       3.450   6.652  -3.452  0.00  0.00    +0.073 C 
ATOM     24  C   UNL     1       4.263   5.373  -3.666  0.00  0.00    +0.022 C 
ATOM     25  C   UNL     1       4.839   5.366  -5.083  0.00  0.00    +0.002 C 
ATOM     26  C   UNL     1       5.746   6.584  -5.271  0.00  0.00    +0.000 C 
ATOM     27  C   UNL     1       4.934   7.863  -5.057  0.00  0.00    +0.002 C 
ATOM     28  C   UNL     1       4.358   7.870  -3.639  0.00  0.00    +0.022 C 
ENDBRANCH  21  23
ENDBRANCH  13  19
ENDBRANCH   1  13
BRANCH   2  29
ATOM     29  C   UNL     1      -2.534   5.144  -0.046  0.00  0.00    +0.133 C 
BRANCH  29  30
ATOM     30  C   UNL     1      -3.678   6.098  -0.276  0.00  0.00    -0.014 A 
ATOM     31  C   UNL     1      -4.434   6.681   0.668  0.00  0.00    +0.087 A 
ATOM     32  N   UNL     1      -5.374   7.485   0.083  0.00  0.00    -0.360 N 
ATOM     33  H   UNL     1      -6.033   8.011   0.561  0.00  0.00    +0.165 HD
ATOM     34  C   UNL     1      -5.249   7.430  -1.288  0.00  0.00    +0.047 A 
ATOM     35  C   UNL     1      -4.181   6.559  -1.573  0.00  0.00    +0.003 A 
ATOM     36  C   UNL     1      -3.820   6.309  -2.898  0.00  0.00    +0.010 A 
ATOM     37  C   UNL     1      -4.507   6.913  -3.913  0.00  0.00    +0.001 A 
ATOM     38  C   UNL     1      -5.561   7.773  -3.637  0.00  0.00    +0.002 A 
ATOM     39  C   UNL     1      -5.934   8.034  -2.337  0.00  0.00    +0.026 A 
ENDBRANCH  29  30
ENDBRANCH   2  29
TORSDOF 9
