REMARK  Name = ZINC16994236
REMARK  8 active torsions:
REMARK  status: ('A' for Active; 'I' for Inactive)
REMARK    1  A    between atoms: C_1  and  C_2
REMARK    2  A    between atoms: C_5  and  C_8
REMARK    3  A    between atoms: N_10  and  C_11
REMARK    4  A    between atoms: C_11  and  N_13
REMARK    5  A    between atoms: C_16  and  C_23
REMARK    6  A    between atoms: C_17  and  C_19
REMARK    7  A    between atoms: C_19  and  O_21
REMARK    8  A    between atoms: O_21  and  C_22
REMARK                            x       y       z     vdW  Elec       q    Type
REMARK                         _______ _______ _______ _____ _____    ______ ____
ROOT
ATOM      1  C   UNL     1       0.087  -6.278   1.135  0.00  0.00    +0.163 C 
ATOM      2  S   UNL     1       0.094  -7.126  -0.353  0.00  0.00    -0.016 S 
ENDROOT
BRANCH   1   3
ATOM      3  N   UNL     1       0.106  -6.953   2.288  0.00  0.00    -0.169 NA
ATOM      4  C   UNL     1       0.024  -8.279   2.284  0.00  0.00    +0.163 A 
ATOM      5  N   UNL     1      -0.076  -9.125   3.351  0.00  0.00    -0.339 N 
ATOM      6  C   UNL     1      -0.150 -10.450   3.133  0.00  0.00    +0.035 A 
ATOM      7  C   UNL     1      -0.120 -10.866   1.839  0.00  0.00    +0.118 A 
ATOM      8  S   UNL     1       0.009  -9.318   0.962  0.00  0.00    -0.046 S 
ATOM      9  C   UNL     1      -0.261 -11.431   4.272  0.00  0.00    +0.065 C 
ATOM     10  H   UNL     1      -0.093  -8.775   4.255  0.00  0.00    +0.167 HD
BRANCH   7  11
ATOM     11  C   UNL     1      -0.183 -12.228   1.304  0.00  0.00    +0.347 C 
ATOM     12  O   UNL     1      -0.275 -13.175   2.062  0.00  0.00    -0.244 OA
BRANCH  11  13
ATOM     13  O   UNL     1      -0.138 -12.433  -0.029  0.00  0.00    -0.464 OA
ATOM     14  C   UNL     1      -0.204 -13.787  -0.480  0.00  0.00    +0.280 C 
ENDBRANCH  11  13
ENDBRANCH   7  11
ENDBRANCH   1   3
BRANCH   1  17
ATOM     15  C   UNL     1       0.043  -4.250  -0.020  0.00  0.00    +0.250 C 
ATOM     16  O   UNL     1       0.048  -4.852  -1.076  0.00  0.00    -0.270 OA
ATOM     17  N   UNL     1       0.062  -4.931   1.143  0.00  0.00    -0.262 N 
ATOM     18  H   UNL     1       0.059  -4.451   1.986  0.00  0.00    +0.157 HD
BRANCH  15  23
ATOM     19  C   UNL     1      -0.064   1.503   0.013  0.00  0.00    +0.044 C 
ATOM     20  C   UNL     1      -0.035  -0.004   0.004  0.00  0.00    -0.050 A 
ATOM     21  C   UNL     1      -0.030  -0.686  -1.200  0.00  0.00    +0.004 A 
ATOM     22  C   UNL     1      -0.004  -2.065  -1.215  0.00  0.00    +0.013 A 
ATOM     23  C   UNL     1       0.016  -2.773  -0.012  0.00  0.00    +0.037 A 
ATOM     24  C   UNL     1       0.010  -2.079   1.200  0.00  0.00    +0.013 A 
ATOM     25  C   UNL     1      -0.010  -0.699   1.200  0.00  0.00    +0.004 A 
ENDBRANCH  15  23
ENDBRANCH   1  17
TORSDOF 5
