REMARK  Name = ZINC19852739
REMARK  6 active torsions:
REMARK  status: ('A' for Active; 'I' for Inactive)
REMARK    1  A    between atoms: C_7  and  C_11
REMARK    2  A    between atoms: C_11  and  C_12
REMARK    3  A    between atoms: C_12  and  C_14
REMARK    4  A    between atoms: C_12  and  N_28
REMARK    5  A    between atoms: C_14  and  N_15
REMARK    6  A    between atoms: N_18  and  C_21
REMARK                            x       y       z     vdW  Elec       q    Type
REMARK                         _______ _______ _______ _____ _____    ______ ____
ROOT
ATOM      1  C   UNL     1       4.177   0.636   1.398  0.00  0.00    -0.056 C 
ENDROOT
BRANCH   1   2
ATOM      2  N   UNL     1       3.871   2.010   1.819  0.00  0.00    +0.381 N 
ATOM      3  H   UNL     1       4.263   2.178   2.833  0.00  0.00    -0.090 HD
ATOM      4  H   UNL     1       2.781   2.160   1.818  0.00  0.00    -0.090 HD
ATOM      5  H   UNL     1       4.340   2.720   1.122  0.00  0.00    -0.090 HD
ENDBRANCH   1   2
BRANCH   1   6
ATOM      6  C   UNL     1       3.632   0.402  -0.013  0.00  0.00    +0.022 C 
BRANCH   6  13
ATOM      7  C   UNL     1       0.616   3.980  -0.297  0.00  0.00    +0.001 A 
ATOM      8  C   UNL     1      -0.710   3.576  -0.231  0.00  0.00    +0.002 A 
ATOM      9  C   UNL     1      -1.033   2.244  -0.091  0.00  0.00    +0.026 A 
ATOM     10  C   UNL     1      -0.021   1.292  -0.024  0.00  0.00    +0.047 A 
ATOM     11  C   UNL     1       1.321   1.706  -0.092  0.00  0.00    +0.003 A 
ATOM     12  C   UNL     1       1.626   3.062  -0.229  0.00  0.00    +0.010 A 
ATOM     13  C   UNL     1       2.127   0.487   0.010  0.00  0.00    -0.024 A 
ATOM     14  C   UNL     1       1.271  -0.540   0.127  0.00  0.00    +0.087 A 
ATOM     15  N   UNL     1      -0.017  -0.079   0.108  0.00  0.00    -0.360 N 
ATOM     16  H   UNL     1      -0.968  -0.627   0.180  0.00  0.00    +0.165 HD
ENDBRANCH   6  13
ENDBRANCH   1   6
BRANCH   1  17
ATOM     17  C   UNL     1       5.692   0.427   1.400  0.00  0.00    +0.068 C 
BRANCH  17  18
ATOM     18  N   UNL     1       6.230   0.753   2.728  0.00  0.00    -0.301 NA
ATOM     19  C   UNL     1       7.674   1.016   2.662  0.00  0.00    +0.103 C 
ATOM     20  C   UNL     1       8.179   1.428   4.046  0.00  0.00    +0.120 C 
ATOM     21  N   UNL     1       7.885   0.359   5.010  0.00  0.00    -0.325 N 
ATOM     22  C   UNL     1       6.440   0.096   5.077  0.00  0.00    +0.120 C 
ATOM     23  C   UNL     1       5.935  -0.316   3.692  0.00  0.00    +0.103 C 
BRANCH  21  24
ATOM     24  C   UNL     1       8.396   0.669   6.274  0.00  0.00    +0.065 A 
ATOM     25  C   UNL     1       8.289  -0.247   7.312  0.00  0.00    +0.026 A 
ATOM     26  C   UNL     1       8.798   0.061   8.559  0.00  0.00    +0.002 A 
ATOM     27  C   UNL     1       9.407   1.283   8.777  0.00  0.00    +0.003 A 
ATOM     28  C   UNL     1       9.512   2.201   7.748  0.00  0.00    +0.040 A 
ATOM     29  C   UNL     1       9.008   1.898   6.496  0.00  0.00    +0.144 A 
ATOM     30  F   UNL     1       9.110   2.794   5.491  0.00  0.00    -0.204 F 
ENDBRANCH  21  24
ENDBRANCH  17  18
ENDBRANCH   1  17
TORSDOF 6
