REMARK  Name = ZINC04810111
REMARK  5 active torsions:
REMARK  status: ('A' for Active; 'I' for Inactive)
REMARK    1  A    between atoms: C_1  and  C_2
REMARK    2  A    between atoms: C_3  and  N_21
REMARK    3  A    between atoms: C_4  and  C_7
REMARK    4  A    between atoms: C_8  and  C_9
REMARK    5  A    between atoms: C_12  and  C_14
REMARK                            x       y       z     vdW  Elec       q    Type
REMARK                         _______ _______ _______ _____ _____    ______ ____
ROOT
ATOM      1  C   UNL     1       1.019  -1.869  -0.518  0.00  0.00    +0.129 A 
ATOM      2  C   UNL     1      -0.440  -1.716  -0.524  0.00  0.00    +0.050 A 
ATOM      3  C   UNL     1      -0.684  -0.389  -0.697  0.00  0.00    +0.050 A 
ATOM      4  C   UNL     1       0.563   0.264  -0.797  0.00  0.00    +0.136 A 
ATOM      5  O   UNL     1       1.552  -0.639  -0.692  0.00  0.00    -0.455 OA
ENDROOT
BRANCH   4   6
ATOM      6  C   UNL     1       0.749   1.701  -0.990  0.00  0.00    +0.017 A 
ATOM      7  C   UNL     1      -0.362   2.537  -1.206  0.00  0.00    +0.012 A 
ATOM      8  C   UNL     1      -0.178   3.879  -1.379  0.00  0.00    +0.016 A 
ATOM      9  C   UNL     1       1.101   4.418  -1.355  0.00  0.00    +0.018 A 
ATOM     10  C   UNL     1       2.205   3.601  -1.149  0.00  0.00    +0.016 A 
ATOM     11  C   UNL     1       2.041   2.257  -0.967  0.00  0.00    +0.012 A 
ATOM     12 BR   UNL     1       1.342   6.276  -1.606  0.00  0.00    -0.050 Br
ENDBRANCH   4   6
BRANCH   1  14
ATOM     13  C   UNL     1       2.888  -3.085   0.405  0.00  0.00    +0.055 C 
ATOM     14  C   UNL     1       1.721  -3.054  -0.368  0.00  0.00    +0.050 C 
BRANCH  13  18
ATOM     15  C   UNL     1       5.285   0.223   3.321  0.00  0.00    +0.071 C 
ATOM     16  C   UNL     1       4.295  -0.495   2.441  0.00  0.00    +0.111 A 
ATOM     17  C   UNL     1       4.447  -1.778   1.880  0.00  0.00    +0.195 A 
ATOM     18  C   UNL     1       3.257  -1.963   1.161  0.00  0.00    +0.191 A 
ATOM     19  O   UNL     1       2.545  -0.830   1.344  0.00  0.00    -0.353 OA
ATOM     20  N   UNL     1       3.134  -0.049   2.052  0.00  0.00    -0.081 NA
BRANCH  17  21
ATOM     21  N   UNL     1       5.590  -2.709   2.017  0.00  0.00    +0.062 N 
ATOM     22  O   UNL     1       6.584  -2.662   1.155  0.00  0.00    -0.126 OA
ATOM     23  O   UNL     1       5.612  -3.584   3.001  0.00  0.00    -0.126 OA
ENDBRANCH  17  21
ENDBRANCH  13  18
ENDBRANCH   1  14
TORSDOF 4
