REMARK  Name = ZINC14465391
REMARK  6 active torsions:
REMARK  status: ('A' for Active; 'I' for Inactive)
REMARK    1  A    between atoms: C_4  and  O_7
REMARK    2  A    between atoms: O_7  and  C_8
REMARK    3  A    between atoms: C_8  and  C_9
REMARK    4  A    between atoms: C_9  and  O_10
REMARK    5  A    between atoms: O_10  and  C_11
REMARK    6  A    between atoms: C_24  and  C_27
REMARK                            x       y       z     vdW  Elec       q    Type
REMARK                         _______ _______ _______ _____ _____    ______ ____
ROOT
ATOM      1  C   UNL     1       1.323   7.329   1.413  0.00  0.00    +0.121 A 
ATOM      2  C   UNL     1       1.654   8.236   0.417  0.00  0.00    +0.047 A 
ATOM      3  C   UNL     1       1.382   9.577   0.597  0.00  0.00    +0.027 A 
ATOM      4  C   UNL     1       0.780  10.014   1.771  0.00  0.00    +0.032 A 
ATOM      5  C   UNL     1       0.449   9.116   2.768  0.00  0.00    -0.016 A 
ATOM      6  C   UNL     1       0.719   7.766   2.579  0.00  0.00    +0.051 A 
ATOM      7  C   UNL     1      -0.199   9.531   4.061  0.00  0.00    +0.049 C 
ATOM      8  C   UNL     1       0.732   9.114   5.193  0.00  0.00    -0.023 C 
ATOM      9  C   UNL     1       1.483  10.121   5.561  0.00  0.00    -0.030 C 
ATOM     10  C   UNL     1       1.162  11.354   4.735  0.00  0.00    +0.033 C 
ATOM     11  C   UNL     1      -0.267  11.061   4.220  0.00  0.00    +0.029 C 
ATOM     12  C   UNL     1      -0.525  11.763   2.900  0.00  0.00    +0.105 C 
ATOM     13  N   UNL     1       0.509  11.381   1.931  0.00  0.00    -0.336 N 
ATOM     14  H   UNL     1       0.990  12.051   1.420  0.00  0.00    +0.147 HD
ENDROOT
BRANCH  12  15
ATOM     15  C   UNL     1      -1.879  11.360   2.373  0.00  0.00    -0.027 A 
ATOM     16  C   UNL     1      -2.033  10.153   1.716  0.00  0.00    +0.007 A 
ATOM     17  C   UNL     1      -3.275   9.781   1.238  0.00  0.00    +0.020 A 
ATOM     18  C   UNL     1      -4.362  10.620   1.407  0.00  0.00    +0.041 A 
ATOM     19  C   UNL     1      -4.205  11.830   2.059  0.00  0.00    +0.020 A 
ATOM     20  C   UNL     1      -2.964  12.199   2.542  0.00  0.00    +0.007 A 
ATOM     21 CL   UNL     1      -5.921  10.156   0.801  0.00  0.00    -0.084 Cl
ENDBRANCH  12  15
BRANCH   1  22
ATOM     22  O   UNL     1       1.588   6.006   1.242  0.00  0.00    -0.489 OA
BRANCH  22  23
ATOM     23  C   UNL     1       2.208   5.623   0.012  0.00  0.00    +0.270 C 
BRANCH  23  24
ATOM     24  C   UNL     1       2.426   4.108   0.001  0.00  0.00    +0.270 C 
BRANCH  24  25
ATOM     25  O   UNL     1       1.160   3.445   0.010  0.00  0.00    -0.489 OA
BRANCH  25  29
ATOM     26  C   UNL     1       1.208  -0.680  -0.013  0.00  0.00    +0.000 A 
ATOM     27  C   UNL     1       0.002  -0.004   0.002  0.00  0.00    +0.004 A 
ATOM     28  C   UNL     1      -0.017   1.377   0.010  0.00  0.00    +0.045 A 
ATOM     29  C   UNL     1       1.176   2.086   0.002  0.00  0.00    +0.121 A 
ATOM     30  C   UNL     1       2.385   1.405  -0.013  0.00  0.00    +0.045 A 
ATOM     31  C   UNL     1       2.398   0.024  -0.021  0.00  0.00    +0.004 A 
ENDBRANCH  25  29
ENDBRANCH  24  25
ENDBRANCH  23  24
ENDBRANCH  22  23
ENDBRANCH   1  22
TORSDOF 6
