REMARK  Name = ZINC35362564
REMARK  7 active torsions:
REMARK  status: ('A' for Active; 'I' for Inactive)
REMARK    1  A    between atoms: C_1  and  C_2
REMARK    2  A    between atoms: C_2  and  C_3
REMARK    3  A    between atoms: C_3  and  C_5
REMARK    4  A    between atoms: C_3  and  N_6
REMARK    5  A    between atoms: N_6  and  C_7
REMARK    6  A    between atoms: C_15  and  C_17
REMARK    7  A    between atoms: C_17  and  N_18
REMARK                            x       y       z     vdW  Elec       q    Type
REMARK                         _______ _______ _______ _____ _____    ______ ____
ROOT
ATOM      1  N   UNL     1       3.517  -1.574  -1.843  0.00  0.00    -0.215 N 
ATOM      2  C   UNL     1       3.780  -0.835  -2.941  0.00  0.00    +0.251 C 
ATOM      3  O   UNL     1       3.186   0.150  -3.323  0.00  0.00    -0.272 OA
ATOM      4  C   UNL     1       4.971  -1.495  -3.592  0.00  0.00    +0.139 C 
ATOM      5  C   UNL     1       6.147  -0.534  -3.679  0.00  0.00    +0.040 C 
ATOM      6  C   UNL     1       7.282  -1.160  -4.497  0.00  0.00    +0.008 C 
ATOM      7  C   UNL     1       6.840  -1.259  -5.964  0.00  0.00    +0.043 C 
ATOM      8  C   UNL     1       5.473  -1.859  -6.010  0.00  0.00    -0.005 A 
ATOM      9  C   UNL     1       4.593  -1.992  -4.977  0.00  0.00    -0.005 A 
ATOM     10  C   UNL     1       3.371  -2.593  -5.276  0.00  0.00    +0.014 A 
ATOM     11  C   UNL     1       3.108  -3.008  -6.536  0.00  0.00    +0.046 A 
ATOM     12  S   UNL     1       4.611  -2.559  -7.391  0.00  0.00    -0.101 S 
ATOM     13  N   UNL     1       5.278  -2.631  -2.718  0.00  0.00    -0.281 N 
ATOM     14  C   UNL     1       4.376  -2.594  -1.717  0.00  0.00    +0.310 C 
ATOM     15  O   UNL     1       4.344  -3.397  -0.805  0.00  0.00    -0.252 OA
ATOM     16  H   UNL     1       5.991  -3.279  -2.834  0.00  0.00    +0.152 HD
ENDROOT
BRANCH   1  17
ATOM     17  C   UNL     1       2.430  -1.293  -0.902  0.00  0.00    +0.213 C 
BRANCH  17  19
ATOM     18  N   UNL     1       2.126  -0.047   1.214  0.00  0.00    -0.293 N 
ATOM     19  C   UNL     1       2.928  -0.369   0.180  0.00  0.00    +0.234 C 
ATOM     20  O   UNL     1       4.052   0.084   0.120  0.00  0.00    -0.274 OA
BRANCH  18  21
ATOM     21  C   UNL     1       2.647   0.757   2.322  0.00  0.00    +0.099 C 
ATOM     22  C   UNL     1       3.160   2.105   1.789  0.00  0.00    +0.046 C 
ATOM     23  C   UNL     1       3.993   2.821   2.879  0.00  0.00    +0.168 C 
ATOM     24  S   UNL     1       4.657   1.419   3.866  0.00  0.00    -0.029 S 
ATOM     25  O   UNL     1       4.145   1.502   5.189  0.00  0.00    -0.174 OA
ATOM     26  O   UNL     1       6.060   1.334   3.663  0.00  0.00    -0.174 OA
ATOM     27  C   UNL     1       3.838   0.017   2.994  0.00  0.00    +0.188 C 
ENDBRANCH  18  21
BRANCH  18  28
ATOM     28  C   UNL     1       0.734  -0.502   1.230  0.00  0.00    +0.073 C 
ATOM     29  C   UNL     1      -0.199   0.711   1.224  0.00  0.00    +0.028 C 
BRANCH  28  31
ATOM     30  C   UNL     1       1.315  -2.615   2.429  0.00  0.00    +0.005 C 
ATOM     31  C   UNL     1       0.482  -1.333   2.490  0.00  0.00    +0.019 C 
ENDBRANCH  28  31
ENDBRANCH  18  28
ENDBRANCH  17  19
ENDBRANCH   1  17
TORSDOF 5
