REMARK  Name = ZINC23858031
REMARK  8 active torsions:
REMARK  status: ('A' for Active; 'I' for Inactive)
REMARK    1  A    between atoms: C_1  and  N_2
REMARK    2  A    between atoms: C_9  and  C_11
REMARK    3  A    between atoms: C_11  and  C_13
REMARK    4  A    between atoms: C_11  and  N_30
REMARK    5  A    between atoms: C_13  and  N_14
REMARK    6  A    between atoms: C_15  and  C_17
REMARK    7  A    between atoms: N_19  and  C_20
REMARK    8  A    between atoms: C_24  and  N_26
REMARK                            x       y       z     vdW  Elec       q    Type
REMARK                         _______ _______ _______ _____ _____    ______ ____
ROOT
ATOM      1  C   UNL     1       1.519   1.969  -0.085  0.00  0.00    +0.094 C 
ENDROOT
BRANCH   1   2
ATOM      2  N   UNL     1       2.175   1.715   1.200  0.00  0.00    -0.309 N 
ATOM      3  C   UNL     1       3.224   2.470   1.582  0.00  0.00    +0.299 C 
ATOM      4  O   UNL     1       3.626   3.359   0.860  0.00  0.00    -0.265 OA
ATOM      5  H   UNL     1       1.811   0.909   1.854  0.00  0.00    +0.149 HD
BRANCH   3   6
ATOM      6  C   UNL     1       3.893   2.212   2.892  0.00  0.00    +0.303 C 
ATOM      7  O   UNL     1       3.491   1.322   3.613  0.00  0.00    -0.265 OA
ATOM      8  N   UNL     1       4.942   2.966   3.273  0.00  0.00    -0.278 N 
ATOM      9  H   UNL     1       5.251   3.828   2.663  0.00  0.00    +0.155 HD
BRANCH   8  10
ATOM     10  C   UNL     1       5.639   2.654   4.444  0.00  0.00    +0.036 A 
ATOM     11  C   UNL     1       6.299   3.653   5.149  0.00  0.00    +0.026 A 
ATOM     12  C   UNL     1       6.982   3.343   6.308  0.00  0.00    +0.042 A 
ATOM     13  C   UNL     1       7.019   2.035   6.762  0.00  0.00    +0.154 A 
ATOM     14  C   UNL     1       6.367   1.037   6.059  0.00  0.00    +0.163 A 
ATOM     15  C   UNL     1       5.677   1.343   4.902  0.00  0.00    +0.059 A 
ATOM     16  F   UNL     1       7.693   1.733   7.894  0.00  0.00    -0.203 F 
BRANCH  14  17
ATOM     17  N   UNL     1       6.407  -0.360   6.548  0.00  0.00    +0.059 N 
ATOM     18  O   UNL     1       5.833  -1.238   5.930  0.00  0.00    -0.126 OA
ATOM     19  O   UNL     1       7.015  -0.631   7.568  0.00  0.00    -0.126 OA
ENDBRANCH  14  17
ENDBRANCH   8  10
ENDBRANCH   3   6
ENDBRANCH   1   2
BRANCH   1  20
ATOM     20  C   UNL     1       0.392   0.955  -0.291  0.00  0.00    -0.020 C 
BRANCH  20  29
ATOM     21  C   UNL     1      -1.687   2.834  -6.116  0.00  0.00    +0.129 C 
ATOM     22  N   UNL     1      -2.046   1.622  -5.367  0.00  0.00    -0.332 N 
ATOM     23  C   UNL     1      -1.581   0.407  -6.069  0.00  0.00    +0.109 C 
ATOM     24  C   UNL     1      -1.296  -0.569  -4.904  0.00  0.00    +0.056 C 
ATOM     25  C   UNL     1      -1.009   0.365  -3.745  0.00  0.00    -0.025 A 
ATOM     26  C   UNL     1      -1.467   1.630  -4.092  0.00  0.00    +0.033 A 
ATOM     27  C   UNL     1      -1.308   2.679  -3.188  0.00  0.00    +0.023 A 
ATOM     28  C   UNL     1      -0.713   2.456  -1.963  0.00  0.00    +0.004 A 
ATOM     29  C   UNL     1      -0.260   1.193  -1.629  0.00  0.00    -0.059 A 
ATOM     30  C   UNL     1      -0.411   0.147  -2.522  0.00  0.00    +0.007 A 
ENDBRANCH  20  29
BRANCH  20  31
ATOM     31  N   UNL     1      -0.607   1.109   0.775  0.00  0.00    +0.385 N 
ATOM     32  C   UNL     1      -1.895   0.525   0.378  0.00  0.00    -0.078 C 
ATOM     33  C   UNL     1      -2.864   0.574   1.560  0.00  0.00    -0.019 C 
ATOM     34  C   UNL     1      -3.056   2.028   1.998  0.00  0.00    -0.004 C 
ATOM     35  C   UNL     1      -1.694   2.628   2.360  0.00  0.00    -0.019 C 
ATOM     36  C   UNL     1      -0.758   2.520   1.154  0.00  0.00    -0.078 C 
ATOM     37  H   UNL     1      -0.248   0.561   1.658  0.00  0.00    -0.081 HD
ENDBRANCH  20  31
ENDBRANCH   1  20
TORSDOF 7
