REMARK  Name = ZINC35455853
REMARK  6 active torsions:
REMARK  status: ('A' for Active; 'I' for Inactive)
REMARK    1  A    between atoms: C_1  and  C_2
REMARK    2  A    between atoms: C_7  and  C_8
REMARK    3  A    between atoms: C_8  and  N_9
REMARK    4  A    between atoms: C_13  and  C_14
REMARK    5  A    between atoms: C_15  and  C_26
REMARK    6  A    between atoms: N_17  and  C_20
REMARK                            x       y       z     vdW  Elec       q    Type
REMARK                         _______ _______ _______ _____ _____    ______ ____
ROOT
ATOM      1  C   UNL     1      -5.708   1.538   3.898  0.00  0.00    +0.071 A 
ATOM      2  C   UNL     1      -6.476   2.419   4.788  0.00  0.00    +0.104 A 
ATOM      3  N   UNL     1      -7.526   1.742   5.190  0.00  0.00    -0.162 NA
ATOM      4  N   UNL     1      -7.502   0.465   4.623  0.00  0.00    -0.196 N 
ATOM      5  C   UNL     1      -6.411   0.338   3.838  0.00  0.00    +0.281 A 
ATOM      6  O   UNL     1      -6.062  -0.759   3.125  0.00  0.00    -0.265 OA
ENDROOT
BRANCH   1  11
ATOM      7  N   UNL     1      -1.388   0.091   3.019  0.00  0.00    -0.216 N 
ATOM      8  C   UNL     1      -2.126   1.167   2.682  0.00  0.00    +0.269 C 
ATOM      9  O   UNL     1      -1.767   2.102   1.989  0.00  0.00    -0.268 OA
ATOM     10  C   UNL     1      -3.400   1.006   3.287  0.00  0.00    +0.099 C 
ATOM     11  C   UNL     1      -4.458   1.859   3.210  0.00  0.00    +0.044 C 
ATOM     12  N   UNL     1      -3.345  -0.213   3.982  0.00  0.00    -0.265 N 
ATOM     13  C   UNL     1      -2.119  -0.733   3.788  0.00  0.00    +0.313 C 
ATOM     14  O   UNL     1      -1.728  -1.791   4.246  0.00  0.00    -0.252 OA
ATOM     15  H   UNL     1      -4.061  -0.610   4.502  0.00  0.00    +0.157 HD
BRANCH   7  16
ATOM     16  C   UNL     1      -0.004  -0.147   2.604  0.00  0.00    +0.153 C 
BRANCH  16  23
ATOM     17  C   UNL     1       2.506  -0.984   1.444  0.00  0.00    +0.044 C 
ATOM     18  C   UNL     1       1.208  -1.326   0.759  0.00  0.00    -0.046 A 
ATOM     19  C   UNL     1       1.218  -2.046  -0.421  0.00  0.00    +0.003 A 
ATOM     20  C   UNL     1       0.028  -2.360  -1.049  0.00  0.00    +0.000 A 
ATOM     21  C   UNL     1      -1.173  -1.956  -0.496  0.00  0.00    +0.000 A 
ATOM     22  C   UNL     1      -1.183  -1.237   0.684  0.00  0.00    +0.005 A 
ATOM     23  C   UNL     1       0.008  -0.926   1.314  0.00  0.00    -0.027 A 
ENDBRANCH  16  23
ENDBRANCH   7  16
ENDBRANCH   1  11
BRANCH   4  24
ATOM     24  C   UNL     1      -8.466  -0.529   4.832  0.00  0.00    +0.069 A 
ATOM     25  C   UNL     1      -8.800  -1.401   3.804  0.00  0.00    +0.028 A 
ATOM     26  C   UNL     1      -9.751  -2.381   4.013  0.00  0.00    +0.002 A 
ATOM     27  C   UNL     1     -10.370  -2.494   5.244  0.00  0.00    +0.000 A 
ATOM     28  C   UNL     1     -10.040  -1.627   6.270  0.00  0.00    +0.002 A 
ATOM     29  C   UNL     1      -9.086  -0.648   6.069  0.00  0.00    +0.028 A 
ENDBRANCH   4  24
BRANCH   2  30
ATOM     30  C   UNL     1      -6.130   3.811   5.160  0.00  0.00    +0.003 A 
ATOM     31  C   UNL     1      -4.795   4.184   5.313  0.00  0.00    +0.010 A 
ATOM     32  C   UNL     1      -4.479   5.481   5.660  0.00  0.00    +0.001 A 
ATOM     33  C   UNL     1      -5.484   6.412   5.856  0.00  0.00    +0.000 A 
ATOM     34  C   UNL     1      -6.810   6.048   5.706  0.00  0.00    +0.001 A 
ATOM     35  C   UNL     1      -7.138   4.755   5.354  0.00  0.00    +0.010 A 
ENDBRANCH   2  30
TORSDOF 5
