REMARK  Name = ZINC06804202
REMARK  7 active torsions:
REMARK  status: ('A' for Active; 'I' for Inactive)
REMARK    1  A    between atoms: C_1  and  C_2
REMARK    2  A    between atoms: C_6  and  N_8
REMARK    3  A    between atoms: N_8  and  C_9
REMARK    4  A    between atoms: N_8  and  C_10
REMARK    5  A    between atoms: C_16  and  N_18
REMARK    6  A    between atoms: N_18  and  S_19
REMARK    7  A    between atoms: S_19  and  C_22
REMARK                            x       y       z     vdW  Elec       q    Type
REMARK                         _______ _______ _______ _____ _____    ______ ____
ROOT
ATOM      1  C   UNL     1      -1.796   1.950   1.122  0.00  0.00    +0.092 C 
ATOM      2  C   UNL     1      -2.368   0.540   0.958  0.00  0.00    +0.024 C 
ATOM      3  C   UNL     1      -3.896   0.606   0.964  0.00  0.00    +0.002 C 
ATOM      4  C   UNL     1      -4.374   1.487  -0.192  0.00  0.00    +0.002 C 
ATOM      5  C   UNL     1      -3.802   2.897  -0.028  0.00  0.00    +0.022 C 
ATOM      6  C   UNL     1      -2.274   2.832  -0.034  0.00  0.00    +0.097 C 
ENDROOT
BRANCH   1   7
ATOM      7  N   UNL     1      -0.333   1.887   1.116  0.00  0.00    -0.328 N 
ATOM      8  C   UNL     1       0.367   1.207   0.023  0.00  0.00    +0.129 C 
BRANCH   7  14
ATOM      9  C   UNL     1       4.005   3.150   3.051  0.00  0.00    +0.044 C 
ATOM     10  C   UNL     1       2.500   3.103   3.117  0.00  0.00    -0.049 A 
ATOM     11  C   UNL     1       1.839   3.643   4.204  0.00  0.00    +0.003 A 
ATOM     12  C   UNL     1       0.458   3.602   4.269  0.00  0.00    +0.002 A 
ATOM     13  C   UNL     1      -0.265   3.025   3.243  0.00  0.00    +0.023 A 
ATOM     14  C   UNL     1       0.396   2.476   2.152  0.00  0.00    +0.030 A 
ATOM     15  C   UNL     1       1.783   2.520   2.091  0.00  0.00    +0.026 A 
ENDBRANCH   7  14
ENDBRANCH   1   7
BRANCH   6  16
ATOM     16  N   UNL     1      -1.814   2.263  -1.304  0.00  0.00    -0.185 NA
ATOM     17  H   UNL     1      -1.851   1.305  -1.448  0.00  0.00    +0.148 HD
BRANCH  16  18
ATOM     18  S   UNL     1      -1.232   3.257  -2.493  0.00  0.00    +0.059 S 
ATOM     19  O   UNL     1      -0.847   2.417  -3.573  0.00  0.00    -0.153 OA
ATOM     20  O   UNL     1      -2.177   4.307  -2.644  0.00  0.00    -0.153 OA
BRANCH  18  21
ATOM     21  C   UNL     1       0.246   3.995  -1.879  0.00  0.00    +0.105 A 
ATOM     22  C   UNL     1       0.186   5.196  -1.196  0.00  0.00    +0.030 A 
ATOM     23  C   UNL     1       1.344   5.772  -0.709  0.00  0.00    +0.022 A 
ATOM     24  C   UNL     1       2.564   5.153  -0.914  0.00  0.00    +0.041 A 
ATOM     25  C   UNL     1       2.624   3.954  -1.602  0.00  0.00    +0.022 A 
ATOM     26  C   UNL     1       1.464   3.376  -2.084  0.00  0.00    +0.030 A 
ATOM     27 CL   UNL     1       4.020   5.880  -0.309  0.00  0.00    -0.084 Cl
ENDBRANCH  18  21
ENDBRANCH  16  18
ENDBRANCH   6  16
TORSDOF 5
