REMARK  Name = ZINC19219724
REMARK  6 active torsions:
REMARK  status: ('A' for Active; 'I' for Inactive)
REMARK    1  A    between atoms: C_1  and  C_2
REMARK    2  A    between atoms: C_11  and  C_12
REMARK    3  A    between atoms: C_12  and  C_14
REMARK    4  A    between atoms: C_12  and  O_36
REMARK    5  A    between atoms: C_14  and  N_15
REMARK    6  A    between atoms: C_22  and  O_35
REMARK                            x       y       z     vdW  Elec       q    Type
REMARK                         _______ _______ _______ _____ _____    ______ ____
ROOT
ATOM      1  N   UNL     1       0.141   7.934  -2.120  0.00  0.00    +0.382 N 
ATOM      2  C   UNL     1      -0.182   8.183  -0.709  0.00  0.00    -0.075 C 
ATOM      3  C   UNL     1       0.927   7.609   0.177  0.00  0.00    +0.029 C 
ATOM      4  C   UNL     1       1.057   6.108  -0.083  0.00  0.00    +0.110 C 
ATOM      5  C   UNL     1       1.339   5.870  -1.567  0.00  0.00    +0.029 C 
ATOM      6  C   UNL     1       0.218   6.495  -2.401  0.00  0.00    -0.075 C 
ATOM      7  C   UNL     1       2.209   5.541   0.755  0.00  0.00    +0.084 C 
ATOM      8  C   UNL     1       2.373   4.061   0.404  0.00  0.00    +0.152 C 
ATOM      9  C   UNL     1       1.028   3.376   0.429  0.00  0.00    +0.023 A 
ATOM     10  C   UNL     1       1.001   1.981   0.513  0.00  0.00    +0.010 A 
ATOM     11  C   UNL     1      -0.171   1.293   0.534  0.00  0.00    +0.009 A 
ATOM     12  C   UNL     1      -1.389   1.991   0.462  0.00  0.00    -0.014 A 
ATOM     13  C   UNL     1      -2.621   1.317   0.481  0.00  0.00    +0.008 A 
ATOM     14  C   UNL     1      -3.779   2.030   0.413  0.00  0.00    +0.001 A 
ATOM     15  C   UNL     1      -3.760   3.421   0.330  0.00  0.00    +0.001 A 
ATOM     16  C   UNL     1      -2.584   4.106   0.313  0.00  0.00    +0.012 A 
ATOM     17  C   UNL     1      -1.370   3.404   0.382  0.00  0.00    +0.024 A 
ATOM     18  C   UNL     1      -0.133   4.088   0.368  0.00  0.00    +0.135 A 
ATOM     19  O   UNL     1      -0.146   5.443   0.296  0.00  0.00    -0.485 OA
ATOM     20  H   UNL     1       1.132   8.367  -2.318  0.00  0.00    -0.082 HD
ENDROOT
BRANCH   8  21
ATOM     21  O   UNL     1       3.240   3.440   1.355  0.00  0.00    -0.387 OA
ATOM     22  H   UNL     1       3.478   2.370   1.266  0.00  0.00    +0.210 HD
ENDBRANCH   8  21
BRANCH   1  23
ATOM     23  C   UNL     1      -0.828   8.593  -3.006  0.00  0.00    -0.042 C 
BRANCH  23  24
ATOM     24  C   UNL     1      -2.136   7.798  -3.012  0.00  0.00    +0.130 C 
BRANCH  24  35
ATOM     25  C   UNL     1      -3.980   7.865  -9.640  0.00  0.00    +0.044 C 
ATOM     26  C   UNL     1      -3.680   7.948  -8.166  0.00  0.00    -0.048 A 
ATOM     27  C   UNL     1      -2.659   7.176  -7.628  0.00  0.00    +0.004 A 
ATOM     28  C   UNL     1      -2.372   7.236  -6.294  0.00  0.00    +0.010 A 
ATOM     29  C   UNL     1      -3.107   8.086  -5.465  0.00  0.00    +0.005 A 
ATOM     30  C   UNL     1      -4.147   8.865  -6.003  0.00  0.00    +0.047 A 
ATOM     31  C   UNL     1      -4.422   8.788  -7.365  0.00  0.00    +0.029 A 
ATOM     32  N   UNL     1      -4.692   9.588  -4.966  0.00  0.00    -0.360 N 
ATOM     33  H   UNL     1      -5.527  10.279  -5.156  0.00  0.00    +0.165 HD
ATOM     34  C   UNL     1      -4.042   9.290  -3.799  0.00  0.00    +0.089 A 
ATOM     35  C   UNL     1      -3.077   8.386  -4.031  0.00  0.00    +0.004 A 
ENDBRANCH  24  35
BRANCH  24  36
ATOM     36  O   UNL     1      -2.737   7.860  -1.717  0.00  0.00    -0.389 OA
ATOM     37  H   UNL     1      -2.196   7.475  -0.840  0.00  0.00    +0.210 HD
ENDBRANCH  24  36
ENDBRANCH  23  24
ENDBRANCH   1  23
TORSDOF 5
