REMARK  Name = ZINC04817811
REMARK  9 active torsions:
REMARK  status: ('A' for Active; 'I' for Inactive)
REMARK    1  A    between atoms: C_1  and  C_2
REMARK    2  A    between atoms: C_9  and  C_26
REMARK    3  A    between atoms: C_9  and  O_27
REMARK    4  A    between atoms: C_10  and  C_23
REMARK    5  A    between atoms: C_12  and  C_14
REMARK    6  A    between atoms: C_17  and  N_20
REMARK    7  A    between atoms: N_20  and  C_21
REMARK    8  A    between atoms: N_20  and  C_22
REMARK    9  A    between atoms: C_23  and  C_25
REMARK                            x       y       z     vdW  Elec       q    Type
REMARK                         _______ _______ _______ _____ _____    ______ ____
ROOT
ATOM      1  C   UNL     1      -0.018   1.503   0.010  0.00  0.00    +0.065 C 
ATOM      2  C   UNL     1       0.002  -0.004   0.002  0.00  0.00    +0.037 A 
ATOM      3  C   UNL     1       0.008  -0.793  -1.088  0.00  0.00    +0.004 A 
ATOM      4  C   UNL     1       0.027  -2.130  -0.658  0.00  0.00    +0.070 A 
ATOM      5  N   UNL     1       0.035  -2.139   0.643  0.00  0.00    -0.178 NA
ATOM      6  N   UNL     1       0.024  -0.808   1.089  0.00  0.00    -0.281 N 
ATOM      7  H   UNL     1       0.029  -0.516   2.014  0.00  0.00    +0.189 HD
ATOM      8  C   UNL     1       0.032  -3.308  -1.601  0.00  0.00    +0.092 C 
ATOM      9  C   UNL     1      -0.401  -2.815  -2.987  0.00  0.00    +0.079 C 
ATOM     10  C   UNL     1       0.427  -1.590  -3.382  0.00  0.00    +0.098 C 
ATOM     11  C   UNL     1      -0.001  -0.382  -2.540  0.00  0.00    +0.065 C 
ATOM     12  C   UNL     1      -0.186  -3.928  -4.014  0.00  0.00    +0.042 C 
ENDROOT
BRANCH  11  13
ATOM     13  C   UNL     1       0.965   0.755  -2.753  0.00  0.00    -0.039 A 
ATOM     14  C   UNL     1       2.308   0.581  -2.471  0.00  0.00    +0.006 A 
ATOM     15  C   UNL     1       3.196   1.620  -2.666  0.00  0.00    +0.023 A 
ATOM     16  C   UNL     1       2.739   2.842  -3.144  0.00  0.00    +0.029 A 
ATOM     17  C   UNL     1       1.390   3.013  -3.426  0.00  0.00    +0.023 A 
ATOM     18  C   UNL     1       0.508   1.968  -3.235  0.00  0.00    +0.006 A 
BRANCH  16  19
ATOM     19  N   UNL     1       3.635   3.895  -3.341  0.00  0.00    -0.336 N 
ATOM     20  C   UNL     1       5.057   3.713  -3.043  0.00  0.00    +0.129 C 
ATOM     21  C   UNL     1       3.151   5.183  -3.846  0.00  0.00    +0.129 C 
ENDBRANCH  16  19
ENDBRANCH  11  13
BRANCH  10  22
ATOM     22  C   UNL     1       0.207  -1.286  -4.842  0.00  0.00    +0.137 C 
ATOM     23  O   UNL     1      -0.623  -0.473  -5.171  0.00  0.00    -0.297 OA
ATOM     24  C   UNL     1       1.022  -1.997  -5.891  0.00  0.00    +0.086 C 
ENDBRANCH  10  22
BRANCH   9  25
ATOM     25  O   UNL     1      -1.786  -2.462  -2.954  0.00  0.00    -0.388 OA
ATOM     26  H   UNL     1      -2.372  -3.192  -2.715  0.00  0.00    +0.210 HD
ENDBRANCH   9  25
TORSDOF 4
