REMARK  Name = ZINC32109700
REMARK  4 active torsions:
REMARK  status: ('A' for Active; 'I' for Inactive)
REMARK    1  A    between atoms: C_1  and  C_2
REMARK    2  A    between atoms: C_4  and  N_22
REMARK    3  A    between atoms: C_7  and  C_8
REMARK    4  A    between atoms: N_12  and  C_16
REMARK                            x       y       z     vdW  Elec       q    Type
REMARK                         _______ _______ _______ _____ _____    ______ ____
ROOT
ATOM      1  C   UNL     1      -1.258  -0.757   0.010  0.00  0.00    +0.036 C 
ATOM      2  C   UNL     1      -2.328  -0.283   0.696  0.00  0.00    +0.099 C 
ATOM      3  C   UNL     1      -3.625  -0.946   0.898  0.00  0.00    +0.273 C 
ATOM      4  O   UNL     1      -3.960  -2.039   0.480  0.00  0.00    -0.268 OA
ATOM      5  N   UNL     1      -4.368  -0.100   1.639  0.00  0.00    -0.189 N 
ATOM      6  C   UNL     1      -3.662   1.009   1.911  0.00  0.00    +0.318 C 
ATOM      7  O   UNL     1      -4.078   1.947   2.563  0.00  0.00    -0.251 OA
ATOM      8  N   UNL     1      -2.433   0.942   1.371  0.00  0.00    -0.264 N 
ATOM      9  H   UNL     1      -1.581   1.639   1.381  0.00  0.00    +0.157 HD
ENDROOT
BRANCH   1  16
ATOM     10  C   UNL     1       1.343  -1.952  -0.415  0.00  0.00    +0.044 C 
ATOM     11  C   UNL     1       1.169  -0.456  -0.437  0.00  0.00    -0.042 A 
ATOM     12  C   UNL     1       2.253   0.362  -0.660  0.00  0.00    +0.027 A 
ATOM     13  C   UNL     1       2.089   1.745  -0.679  0.00  0.00    +0.030 A 
ATOM     14  C   UNL     1       0.831   2.304  -0.473  0.00  0.00    +0.024 A 
ATOM     15  C   UNL     1      -0.251   1.500  -0.250  0.00  0.00    +0.010 A 
ATOM     16  C   UNL     1      -0.096   0.108  -0.229  0.00  0.00    -0.020 A 
BRANCH  13  17
ATOM     17  N   UNL     1       3.187   2.571  -0.905  0.00  0.00    -0.330 N 
ATOM     18  C   UNL     1       4.256   2.302   0.065  0.00  0.00    +0.105 C 
ATOM     19  C   UNL     1       5.496   3.121  -0.301  0.00  0.00    +0.019 C 
ATOM     20  C   UNL     1       5.139   4.609  -0.296  0.00  0.00    +0.003 C 
ATOM     21  C   UNL     1       3.991   4.854  -1.279  0.00  0.00    +0.019 C 
ATOM     22  C   UNL     1       2.794   3.986  -0.884  0.00  0.00    +0.105 C 
ENDBRANCH  13  17
ENDBRANCH   1  16
BRANCH   5  23
ATOM     23  C   UNL     1      -5.682  -0.342   2.062  0.00  0.00    +0.046 A 
ATOM     24  C   UNL     1      -6.318  -1.526   1.716  0.00  0.00    +0.024 A 
ATOM     25  C   UNL     1      -7.611  -1.764   2.139  0.00  0.00    +0.002 A 
ATOM     26  C   UNL     1      -8.277  -0.819   2.898  0.00  0.00    +0.000 A 
ATOM     27  C   UNL     1      -7.648   0.364   3.240  0.00  0.00    +0.002 A 
ATOM     28  C   UNL     1      -6.353   0.606   2.825  0.00  0.00    +0.024 A 
ENDBRANCH   5  23
TORSDOF 3
