REMARK  Name = ZINC41631855
REMARK  6 active torsions:
REMARK  status: ('A' for Active; 'I' for Inactive)
REMARK    1  A    between atoms: C_1  and  C_2
REMARK    2  A    between atoms: N_7  and  C_9
REMARK    3  A    between atoms: C_9  and  C_10
REMARK    4  A    between atoms: C_10  and  C_11
REMARK    5  A    between atoms: C_11  and  C_13
REMARK    6  A    between atoms: C_11  and  O_24
REMARK                            x       y       z     vdW  Elec       q    Type
REMARK                         _______ _______ _______ _____ _____    ______ ____
ROOT
ATOM      1  C   UNL     1       2.475  -4.485   3.513  0.00  0.00    +0.143 C 
ENDROOT
BRANCH   1   2
ATOM      2  C   UNL     1       2.504  -5.991   3.505  0.00  0.00    -0.016 A 
ATOM      3  C   UNL     1       3.457  -6.659   2.758  0.00  0.00    +0.010 A 
ATOM      4  C   UNL     1       3.489  -8.041   2.746  0.00  0.00    +0.050 A 
ATOM      5  C   UNL     1       2.563  -8.756   3.486  0.00  0.00    +0.162 A 
ATOM      6  C   UNL     1       1.606  -8.087   4.235  0.00  0.00    +0.162 A 
ATOM      7  C   UNL     1       1.579  -6.702   4.249  0.00  0.00    +0.055 A 
ATOM      8  O   UNL     1       0.698  -8.800   4.962  0.00  0.00    -0.488 OA
ATOM      9  C   UNL     1      -0.262  -9.543   4.206  0.00  0.00    +0.232 C 
ATOM     10  C   UNL     1       0.304 -10.893   3.795  0.00  0.00    +0.082 C 
ATOM     11  C   UNL     1       1.481 -10.762   2.841  0.00  0.00    +0.232 C 
ATOM     12  O   UNL     1       2.584 -10.121   3.484  0.00  0.00    -0.488 OA
ENDBRANCH   1   2
BRANCH   1  13
ATOM     13  O   UNL     1       3.811  -3.983   3.432  0.00  0.00    -0.387 OA
ATOM     14  H   UNL     1       4.285  -4.255   2.634  0.00  0.00    +0.210 HD
ENDBRANCH   1  13
BRANCH   1  15
ATOM     15  C   UNL     1       1.668  -3.983   2.314  0.00  0.00    +0.017 C 
BRANCH  15  16
ATOM     16  C   UNL     1       1.534  -2.461   2.390  0.00  0.00    -0.076 C 
BRANCH  16  22
ATOM     17  C   UNL     1      -0.019   1.526   0.010  0.00  0.00    +0.005 C 
ATOM     18  C   UNL     1       0.002  -0.004   0.002  0.00  0.00    -0.031 C 
ATOM     19  C   UNL     1      -1.434  -0.535   0.015  0.00  0.00    -0.001 C 
ATOM     20  C   UNL     1      -1.402  -2.064   0.086  0.00  0.00    -0.018 C 
ATOM     21  C   UNL     1      -0.613  -2.496   1.324  0.00  0.00    -0.079 C 
ATOM     22  N   UNL     1       0.758  -1.980   1.239  0.00  0.00    +0.380 N 
ATOM     23  C   UNL     1       0.740  -0.512   1.242  0.00  0.00    -0.076 C 
ATOM     24  H   UNL     1       1.188  -2.307   0.386  0.00  0.00    -0.082 HD
ENDBRANCH  16  22
ENDBRANCH  15  16
ENDBRANCH   1  15
TORSDOF 5
