REMARK  Name = ZINC22852193
REMARK  5 active torsions:
REMARK  status: ('A' for Active; 'I' for Inactive)
REMARK    1  A    between atoms: N_9  and  C_11
REMARK    2  A    between atoms: C_11  and  C_13
REMARK    3  A    between atoms: C_11  and  C_20
REMARK    4  A    between atoms: C_21  and  O_33
REMARK    5  A    between atoms: C_26  and  C_28
REMARK                            x       y       z     vdW  Elec       q    Type
REMARK                         _______ _______ _______ _____ _____    ______ ____
ROOT
ATOM      1  C   UNL     1       2.580  -1.490  -0.030  0.00  0.00    +0.130 C 
ENDROOT
BRANCH   1  10
ATOM      2  C   UNL     1       1.379  -5.034  -5.256  0.00  0.00    +0.000 A 
ATOM      3  C   UNL     1       1.294  -3.696  -5.596  0.00  0.00    +0.000 A 
ATOM      4  C   UNL     1       1.573  -2.728  -4.652  0.00  0.00    +0.005 A 
ATOM      5  C   UNL     1       1.939  -3.090  -3.363  0.00  0.00    -0.030 A 
ATOM      6  C   UNL     1       2.020  -4.423  -3.025  0.00  0.00    -0.042 A 
ATOM      7  C   UNL     1       1.741  -5.395  -3.974  0.00  0.00    +0.004 A 
ATOM      8  C   UNL     1       2.402  -4.865  -1.635  0.00  0.00    +0.051 C 
ATOM      9  C   UNL     1       3.059  -3.707  -0.882  0.00  0.00    +0.090 C 
ATOM     10  N   UNL     1       2.195  -2.522  -1.002  0.00  0.00    -0.286 NA
ATOM     11  C   UNL     1       2.238  -1.998  -2.370  0.00  0.00    +0.120 C 
ENDBRANCH   1  10
BRANCH   1  12
ATOM     12  C   UNL     1       1.693  -0.284  -0.200  0.00  0.00    +0.076 A 
ATOM     13  C   UNL     1       2.030   1.010  -0.259  0.00  0.00    +0.228 A 
ATOM     14  N   UNL     1       1.069   1.978  -0.418  0.00  0.00    -0.173 N 
ATOM     15  C   UNL     1      -0.229   1.558  -0.512  0.00  0.00    +0.200 A 
ATOM     16  S   UNL     1      -0.083  -0.207  -0.374  0.00  0.00    -0.047 S 
ATOM     17  N   UNL     1      -1.016   2.588  -0.655  0.00  0.00    -0.197 NA
ATOM     18  C   UNL     1      -0.281   3.708  -0.668  0.00  0.00    +0.218 A 
ATOM     19  N   UNL     1       0.988   3.391  -0.525  0.00  0.00    -0.138 NA
BRANCH  18  20
ATOM     20  C   UNL     1      -0.810   5.080  -0.815  0.00  0.00    +0.173 A 
ATOM     21  C   UNL     1      -2.119   5.418  -0.963  0.00  0.00    +0.053 A 
ATOM     22  C   UNL     1      -2.166   6.823  -1.065  0.00  0.00    +0.042 A 
ATOM     23  C   UNL     1      -0.897   7.268  -0.975  0.00  0.00    +0.196 A 
ATOM     24  O   UNL     1      -0.082   6.213  -0.818  0.00  0.00    -0.460 OA
ENDBRANCH  18  20
BRANCH  13  25
ATOM     25  O   UNL     1       3.338   1.370  -0.159  0.00  0.00    -0.492 OA
ATOM     26  H   UNL     1       3.622   2.432  -0.207  0.00  0.00    +0.294 HD
ENDBRANCH  13  25
ENDBRANCH   1  12
BRANCH   1  27
ATOM     27  C   UNL     1       2.427  -2.033   1.367  0.00  0.00    -0.022 A 
ATOM     28  C   UNL     1       3.428  -1.833   2.300  0.00  0.00    +0.006 A 
ATOM     29  C   UNL     1       3.289  -2.330   3.582  0.00  0.00    +0.003 A 
ATOM     30  C   UNL     1       2.149  -3.029   3.933  0.00  0.00    +0.038 A 
ATOM     31  C   UNL     1       1.146  -3.230   3.000  0.00  0.00    +0.124 A 
ATOM     32  C   UNL     1       1.284  -2.727   1.717  0.00  0.00    +0.044 A 
ATOM     33  F   UNL     1       0.032  -3.913   3.342  0.00  0.00    -0.205 F 
ENDBRANCH   1  27
TORSDOF 5
