REMARK  Name = ZINC06735436
REMARK  4 active torsions:
REMARK  status: ('A' for Active; 'I' for Inactive)
REMARK    1  A    between atoms: C_1  and  O_2
REMARK    2  A    between atoms: O_2  and  C_3
REMARK    3  A    between atoms: C_4  and  C_11
REMARK    4  A    between atoms: N_12  and  O_13
REMARK                            x       y       z     vdW  Elec       q    Type
REMARK                         _______ _______ _______ _____ _____    ______ ____
ROOT
ATOM      1  C   UNL     1      -1.199  -0.637   0.010  0.00  0.00    +0.143 A 
ATOM      2  C   UNL     1      -1.813  -0.966   1.226  0.00  0.00    +0.040 A 
ATOM      3  C   UNL     1      -3.048  -1.617   1.222  0.00  0.00    +0.028 A 
ATOM      4  C   UNL     1      -3.657  -1.932   0.025  0.00  0.00    +0.020 A 
ATOM      5  C   UNL     1      -3.047  -1.604  -1.175  0.00  0.00    +0.034 A 
ATOM      6  C   UNL     1      -1.827  -0.955  -1.185  0.00  0.00    +0.061 A 
ATOM      7 BR   UNL     1      -1.008  -0.507  -2.829  0.00  0.00    -0.046 Br
ATOM      8 BR   UNL     1      -5.329  -2.813   0.021  0.00  0.00    -0.050 Br
ENDROOT
BRANCH   1  10
ATOM      9  C   UNL     1      -0.017   1.425   0.010  0.00  0.00    +0.277 C 
ATOM     10  O   UNL     1       0.002  -0.004   0.002  0.00  0.00    -0.493 OA
ENDBRANCH   1  10
BRANCH   2  11
ATOM     11  C   UNL     1      -1.157  -0.628   2.503  0.00  0.00    +0.164 C 
ATOM     12  N   UNL     1      -0.012  -0.025   2.502  0.00  0.00    -0.095 NA
BRANCH  12  13
ATOM     13  O   UNL     1       0.618   0.300   3.728  0.00  0.00    -0.409 OA
ATOM     14  H   UNL     1       1.469   0.749   3.626  0.00  0.00    +0.328 HD
ENDBRANCH  12  13
ENDBRANCH   2  11
TORSDOF 3
