REMARK  Name = ZINC58872411
REMARK  6 active torsions:
REMARK  status: ('A' for Active; 'I' for Inactive)
REMARK    1  A    between atoms: C_3  and  O_16
REMARK    2  A    between atoms: C_6  and  C_7
REMARK    3  A    between atoms: N_8  and  C_9
REMARK    4  A    between atoms: O_16  and  C_17
REMARK    5  A    between atoms: C_17  and  C_18
REMARK    6  A    between atoms: N_20  and  C_21
REMARK                            x       y       z     vdW  Elec       q    Type
REMARK                         _______ _______ _______ _____ _____    ______ ____
ROOT
ATOM      1  C   UNL     1      -0.598   1.181  -1.631  0.00  0.00    +0.013 A 
ATOM      2  C   UNL     1       0.348   1.822  -2.400  0.00  0.00    +0.046 A 
ATOM      3  C   UNL     1       1.586   1.230  -2.620  0.00  0.00    +0.121 A 
ATOM      4  C   UNL     1       1.876  -0.012  -2.066  0.00  0.00    +0.046 A 
ATOM      5  C   UNL     1       0.937  -0.661  -1.296  0.00  0.00    +0.013 A 
ATOM      6  C   UNL     1      -0.311  -0.069  -1.072  0.00  0.00    -0.007 A 
ENDROOT
BRANCH   6   7
ATOM      7  C   UNL     1      -1.317  -0.759  -0.250  0.00  0.00    +0.119 C 
ATOM      8  N   UNL     1      -2.396  -0.129   0.124  0.00  0.00    -0.255 NA
BRANCH   8   9
ATOM      9  C   UNL     1      -2.421   1.239   0.131  0.00  0.00    +0.064 A 
ATOM     10  C   UNL     1      -1.435   1.955   0.814  0.00  0.00    +0.029 A 
ATOM     11  C   UNL     1      -1.467   3.334   0.817  0.00  0.00    +0.022 A 
ATOM     12  C   UNL     1      -2.473   4.008   0.147  0.00  0.00    +0.041 A 
ATOM     13  C   UNL     1      -3.454   3.304  -0.531  0.00  0.00    +0.022 A 
ATOM     14  C   UNL     1      -3.431   1.925  -0.548  0.00  0.00    +0.029 A 
ATOM     15 CL   UNL     1      -2.506   5.744   0.157  0.00  0.00    -0.084 Cl
ENDBRANCH   8   9
ENDBRANCH   6   7
BRANCH   3  16
ATOM     16  O   UNL     1       2.515   1.866  -3.378  0.00  0.00    -0.483 OA
BRANCH  16  17
ATOM     17  C   UNL     1       3.766   1.202  -3.564  0.00  0.00    +0.324 C 
BRANCH  17  18
ATOM     18  C   UNL     1       4.663   2.052  -4.426  0.00  0.00    +0.251 C 
ATOM     19  O   UNL     1       4.270   3.122  -4.840  0.00  0.00    -0.272 OA
ATOM     20  N   UNL     1       5.903   1.624  -4.737  0.00  0.00    -0.310 N 
ATOM     21  H   UNL     1       6.218   0.768  -4.405  0.00  0.00    +0.149 HD
BRANCH  20  22
ATOM     22  C   UNL     1       6.775   2.451  -5.574  0.00  0.00    +0.073 C 
ATOM     23  C   UNL     1       7.506   3.471  -4.699  0.00  0.00    +0.022 C 
ATOM     24  C   UNL     1       8.417   4.335  -5.574  0.00  0.00    +0.002 C 
ATOM     25  C   UNL     1       9.440   3.443  -6.280  0.00  0.00    +0.000 C 
ATOM     26  C   UNL     1       8.709   2.423  -7.156  0.00  0.00    +0.002 C 
ATOM     27  C   UNL     1       7.798   1.559  -6.281  0.00  0.00    +0.022 C 
ENDBRANCH  20  22
ENDBRANCH  17  18
ENDBRANCH  16  17
ENDBRANCH   3  16
TORSDOF 6
