REMARK  Name = ZINC09452474
REMARK  8 active torsions:
REMARK  status: ('A' for Active; 'I' for Inactive)
REMARK    1  A    between atoms: C_1  and  C_2
REMARK    2  A    between atoms: C_2  and  C_3
REMARK    3  A    between atoms: C_3  and  N_4
REMARK    4  A    between atoms: C_13  and  C_15
REMARK    5  A    between atoms: C_15  and  O_17
REMARK    6  A    between atoms: O_17  and  C_18
REMARK    7  A    between atoms: C_18  and  C_19
REMARK    8  A    between atoms: N_24  and  C_25
REMARK                            x       y       z     vdW  Elec       q    Type
REMARK                         _______ _______ _______ _____ _____    ______ ____
ROOT
ATOM      1  C   UNL     1       0.002  -0.004   0.002  0.00  0.00    +0.328 C 
ENDROOT
BRANCH   1   2
ATOM      2  C   UNL     1      -1.412  -0.526   0.013  0.00  0.00    +0.258 C 
ATOM      3  O   UNL     1      -2.344   0.249   0.026  0.00  0.00    -0.272 OA
ATOM      4  N   UNL     1      -1.640  -1.854   0.008  0.00  0.00    -0.237 N 
ATOM      5  C   UNL     1      -2.904  -2.321   0.017  0.00  0.00    +0.306 C 
ATOM      6  O   UNL     1      -3.839  -1.543   0.030  0.00  0.00    -0.252 OA
ATOM      7  N   UNL     1      -3.133  -3.649   0.012  0.00  0.00    -0.294 N 
ATOM      8  H   UNL     1      -0.894  -2.474  -0.003  0.00  0.00    +0.159 HD
ATOM      9  H   UNL     1      -2.387  -4.269   0.002  0.00  0.00    +0.151 HD
BRANCH   7  10
ATOM     10  C   UNL     1      -4.507  -4.156   0.023  0.00  0.00    +0.037 C 
ATOM     11  C   UNL     1      -5.223  -3.662   1.282  0.00  0.00    +0.029 C 
ATOM     12  C   UNL     1      -6.659  -4.192   1.292  0.00  0.00    -0.008 C 
ATOM     13  C   UNL     1      -6.638  -5.722   1.284  0.00  0.00    +0.007 C 
ATOM     14  C   UNL     1      -5.922  -6.215   0.025  0.00  0.00    -0.008 C 
ATOM     15  C   UNL     1      -4.486  -5.686   0.014  0.00  0.00    +0.029 C 
ATOM     16  C   UNL     1      -6.662  -5.708  -1.214  0.00  0.00    +0.007 C 
ATOM     17  C   UNL     1      -6.683  -4.179  -1.206  0.00  0.00    -0.008 C 
ATOM     18  C   UNL     1      -7.399  -3.685   0.053  0.00  0.00    +0.007 C 
ATOM     19  C   UNL     1      -5.247  -3.649  -1.217  0.00  0.00    +0.029 C 
ENDBRANCH   7  10
ENDBRANCH   1   2
BRANCH   1  20
ATOM     20  O   UNL     1      -0.018   1.448   0.010  0.00  0.00    -0.451 OA
BRANCH  20  21
ATOM     21  C   UNL     1       1.175   2.076   0.002  0.00  0.00    +0.360 C 
ATOM     22  O   UNL     1       2.203   1.428  -0.011  0.00  0.00    -0.243 OA
BRANCH  21  32
ATOM     23  N   UNL     1       0.091   5.535   0.031  0.00  0.00    -0.228 N 
ATOM     24  C   UNL     1       1.194   6.312   0.025  0.00  0.00    +0.275 A 
ATOM     25  O   UNL     1       1.101   7.526   0.032  0.00  0.00    -0.266 OA
ATOM     26  C   UNL     1       2.510   5.659   0.009  0.00  0.00    +0.050 A 
ATOM     27  C   UNL     1       3.707   6.369   0.002  0.00  0.00    +0.014 A 
ATOM     28  C   UNL     1       4.901   5.681  -0.013  0.00  0.00    +0.001 A 
ATOM     29  C   UNL     1       4.920   4.292  -0.021  0.00  0.00    +0.001 A 
ATOM     30  C   UNL     1       3.745   3.570  -0.014  0.00  0.00    +0.011 A 
ATOM     31  C   UNL     1       2.530   4.245   0.007  0.00  0.00    +0.021 A 
ATOM     32  C   UNL     1       1.232   3.550   0.009  0.00  0.00    +0.176 A 
ATOM     33  N   UNL     1       0.127   4.257   0.024  0.00  0.00    -0.161 NA
BRANCH  23  34
ATOM     34  C   UNL     1      -1.219   6.192   0.047  0.00  0.00    +0.147 C 
BRANCH  34  36
ATOM     35  C   UNL     1      -3.056   7.113  -1.373  0.00  0.00    +0.005 C 
ATOM     36  C   UNL     1      -1.688   6.428  -1.390  0.00  0.00    +0.020 C 
ENDBRANCH  34  36
ENDBRANCH  23  34
ENDBRANCH  21  32
ENDBRANCH  20  21
ENDBRANCH   1  20
TORSDOF 7
