REMARK  Name = ZINC64938992
REMARK  8 active torsions:
REMARK  status: ('A' for Active; 'I' for Inactive)
REMARK    1  A    between atoms: C_1  and  C_2
REMARK    2  A    between atoms: C_2  and  C_3
REMARK    3  A    between atoms: C_2  and  C_4
REMARK    4  A    between atoms: C_4  and  C_5
REMARK    5  A    between atoms: C_5  and  N_6
REMARK    6  A    between atoms: N_9  and  N_10
REMARK    7  A    between atoms: N_10  and  S_11
REMARK    8  A    between atoms: S_11  and  C_14
REMARK                            x       y       z     vdW  Elec       q    Type
REMARK                         _______ _______ _______ _____ _____    ______ ____
ROOT
ATOM      1  S   UNL     1      -7.429  -1.115  -0.425  0.00  0.00    +0.074 S 
ATOM      2  O   UNL     1      -7.722  -2.122   0.535  0.00  0.00    -0.152 OA
ATOM      3  O   UNL     1      -7.234   0.245  -0.066  0.00  0.00    -0.152 OA
ENDROOT
BRANCH   1   4
ATOM      4  C   UNL     1      -8.742  -1.143  -1.599  0.00  0.00    +0.115 A 
ATOM      5  C   UNL     1      -9.793  -2.008  -1.455  0.00  0.00    +0.031 A 
ATOM      6  C   UNL     1     -10.858  -2.074  -2.352  0.00  0.00    +0.026 A 
ATOM      7  C   UNL     1     -10.888  -1.238  -3.453  0.00  0.00    +0.042 A 
ATOM      8  C   UNL     1      -9.814  -0.364  -3.586  0.00  0.00    +0.017 A 
ATOM      9  C   UNL     1      -8.738  -0.272  -2.702  0.00  0.00    +0.011 A 
ATOM     10  C   UNL     1      -7.745   0.678  -2.995  0.00  0.00    +0.010 A 
ATOM     11  C   UNL     1      -7.883   1.457  -4.112  0.00  0.00    +0.001 A 
ATOM     12  C   UNL     1      -8.967   1.357  -4.983  0.00  0.00    +0.014 A 
ATOM     13  C   UNL     1      -9.961   0.427  -4.736  0.00  0.00    +0.047 A 
ATOM     14  C   UNL     1     -11.229  -0.024  -5.323  0.00  0.00    +0.249 C 
ATOM     15  O   UNL     1     -11.737   0.404  -6.342  0.00  0.00    -0.270 OA
ATOM     16  N   UNL     1     -11.733  -1.006  -4.530  0.00  0.00    -0.281 N 
ATOM     17  H   UNL     1     -12.566  -1.476  -4.692  0.00  0.00    +0.155 HD
ENDBRANCH   1   4
BRANCH   1  18
ATOM     18  N   UNL     1      -6.056  -1.599  -1.214  0.00  0.00    -0.107 NA
ATOM     19  H   UNL     1      -5.577  -2.387  -0.915  0.00  0.00    +0.172 HD
BRANCH  18  23
ATOM     20  N   UNL     1      -3.510  -0.638  -1.275  0.00  0.00    -0.298 N 
ATOM     21  C   UNL     1      -4.323  -0.403  -2.324  0.00  0.00    +0.315 C 
ATOM     22  O   UNL     1      -3.915   0.230  -3.279  0.00  0.00    -0.251 OA
ATOM     23  N   UNL     1      -5.587  -0.870  -2.315  0.00  0.00    -0.216 N 
ATOM     24  H   UNL     1      -3.834  -1.143  -0.513  0.00  0.00    +0.150 HD
ATOM     25  H   UNL     1      -6.172  -0.700  -3.070  0.00  0.00    +0.172 HD
BRANCH  20  26
ATOM     26  C   UNL     1      -2.135  -0.131  -1.286  0.00  0.00    +0.106 C 
BRANCH  26  27
ATOM     27  C   UNL     1      -1.433  -0.534   0.013  0.00  0.00    +0.022 C 
BRANCH  27  29
ATOM     28  C   UNL     1      -0.019   1.526   0.010  0.00  0.00    +0.007 C 
ATOM     29  C   UNL     1       0.002  -0.004   0.002  0.00  0.00    -0.016 C 
ATOM     30  C   UNL     1       0.742  -0.511   1.242  0.00  0.00    +0.007 C 
ENDBRANCH  27  29
ENDBRANCH  26  27
ENDBRANCH  20  26
ENDBRANCH  18  23
ENDBRANCH   1  18
TORSDOF 6
