REMARK  Name = ZINC13871502
REMARK  13 active torsions:
REMARK  status: ('A' for Active; 'I' for Inactive)
REMARK    1  A    between atoms: C_1  and  C_2
REMARK    2  A    between atoms: C_2  and  C_3
REMARK    3  A    between atoms: C_6  and  O_9
REMARK    4  A    between atoms: O_9  and  C_10
REMARK    5  A    between atoms: C_10  and  C_12
REMARK    6  A    between atoms: C_10  and  C_13
REMARK    7  A    between atoms: C_16  and  S_20
REMARK    8  A    between atoms: N_17  and  C_18
REMARK    9  A    between atoms: C_18  and  C_19
REMARK   10  A    between atoms: S_20  and  C_21
REMARK   11  A    between atoms: C_21  and  C_22
REMARK   12  A    between atoms: N_24  and  C_25
REMARK   13  A    between atoms: C_26  and  C_34
REMARK                            x       y       z     vdW  Elec       q    Type
REMARK                         _______ _______ _______ _____ _____    ______ ____
ROOT
ATOM      1  C   UNL     1       4.648  -1.568  -5.915  0.00  0.00    +0.175 A 
ATOM      2  N   UNL     1       4.221  -1.980  -7.075  0.00  0.00    -0.130 NA
ATOM      3  N   UNL     1       4.948  -1.488  -8.013  0.00  0.00    -0.122 NA
ATOM      4  C   UNL     1       5.887  -0.729  -7.497  0.00  0.00    +0.192 A 
ATOM      5  N   UNL     1       5.721  -0.752  -6.143  0.00  0.00    -0.303 N 
ENDROOT
BRANCH   1   6
ATOM      6  C   UNL     1       4.062  -1.920  -4.571  0.00  0.00    +0.238 C 
ATOM      7  C   UNL     1       4.460  -3.350  -4.201  0.00  0.00    +0.060 C 
BRANCH   6   8
ATOM      8  O   UNL     1       2.638  -1.822  -4.632  0.00  0.00    -0.481 OA
BRANCH   8  12
ATOM      9  C   UNL     1       0.658  -1.117  -1.082  0.00  0.00    -0.047 A 
ATOM     10  C   UNL     1       2.023  -1.335  -1.079  0.00  0.00    +0.007 A 
ATOM     11  C   UNL     1       2.689  -1.571  -2.266  0.00  0.00    +0.046 A 
ATOM     12  C   UNL     1       1.986  -1.590  -3.462  0.00  0.00    +0.122 A 
ATOM     13  C   UNL     1       0.616  -1.372  -3.462  0.00  0.00    +0.046 A 
ATOM     14  C   UNL     1      -0.046  -1.141  -2.272  0.00  0.00    +0.007 A 
BRANCH   9  16
ATOM     15  C   UNL     1      -0.530  -2.188   0.812  0.00  0.00    +0.009 C 
ATOM     16  C   UNL     1      -0.066  -0.859   0.215  0.00  0.00    +0.032 C 
ENDBRANCH   9  16
ENDBRANCH   8  12
ENDBRANCH   6   8
ENDBRANCH   1   6
BRANCH   5  17
ATOM     17  C   UNL     1       6.528  -0.051  -5.140  0.00  0.00    +0.122 C 
ATOM     18  C   UNL     1       7.691  -0.945  -4.706  0.00  0.00    +0.027 C 
ENDBRANCH   5  17
BRANCH   4  19
ATOM     19  S   UNL     1       7.124   0.158  -8.386  0.00  0.00    -0.077 S 
BRANCH  19  20
ATOM     20  C   UNL     1       6.779  -0.232 -10.124  0.00  0.00    +0.173 C 
BRANCH  20  21
ATOM     21  C   UNL     1       7.778   0.473 -11.005  0.00  0.00    +0.228 C 
ATOM     22  O   UNL     1       8.638   1.170 -10.509  0.00  0.00    -0.275 OA
ATOM     23  N   UNL     1       7.716   0.330 -12.344  0.00  0.00    -0.278 N 
ATOM     24  H   UNL     1       7.028  -0.228 -12.740  0.00  0.00    +0.155 HD
BRANCH  23  25
ATOM     25  C   UNL     1       8.636   0.979 -13.155  0.00  0.00    +0.090 A 
ATOM     26  C   UNL     1       8.721   0.952 -14.537  0.00  0.00    +0.084 A 
ATOM     27  C   UNL     1       9.785   1.725 -15.153  0.00  0.00    -0.018 A 
ATOM     28  C   UNL     1      10.570   2.383 -14.272  0.00  0.00    -0.004 A 
ATOM     29  S   UNL     1       9.898   1.983 -12.686  0.00  0.00    -0.077 S 
ATOM     30  C   UNL     1      11.744   3.257 -14.591  0.00  0.00    +0.043 C 
ATOM     31  C   UNL     1      12.157   2.995 -16.047  0.00  0.00    +0.005 C 
ATOM     32  C   UNL     1      10.908   3.036 -16.932  0.00  0.00    +0.005 C 
ATOM     33  C   UNL     1      10.030   1.815 -16.652  0.00  0.00    +0.037 C 
BRANCH  26  34
ATOM     34  C   UNL     1       7.798   0.194 -15.326  0.00  0.00    +0.102 C 
ATOM     35  N   UNL     1       7.066  -0.408 -15.952  0.00  0.00    -0.191 NA
ENDBRANCH  26  34
ENDBRANCH  23  25
ENDBRANCH  20  21
ENDBRANCH  19  20
ENDBRANCH   4  19
TORSDOF 10
