REMARK  Name = ZINC36582310
REMARK  20 active torsions:
REMARK  status: ('A' for Active; 'I' for Inactive)
REMARK    1  A    between atoms: C_1  and  C_2
REMARK    2  A    between atoms: C_2  and  C_3
REMARK    3  A    between atoms: C_3  and  C_4
REMARK    4  A    between atoms: C_4  and  C_5
REMARK    5  A    between atoms: C_5  and  C_6
REMARK    6  A    between atoms: C_7  and  C_8
REMARK    7  A    between atoms: N_10  and  C_11
REMARK    8  A    between atoms: N_10  and  C_36
REMARK    9  A    between atoms: C_11  and  C_13
REMARK   10  A    between atoms: C_11  and  C_22
REMARK   11  A    between atoms: C_16  and  N_19
REMARK   12  A    between atoms: N_19  and  C_20
REMARK   13  A    between atoms: N_19  and  C_21
REMARK   14  A    between atoms: N_24  and  C_25
REMARK   15  A    between atoms: C_25  and  S_26
REMARK   16  A    between atoms: S_26  and  C_29
REMARK   17  A    between atoms: C_32  and  C_35
REMARK   18  A    between atoms: C_36  and  C_37
REMARK   19  A    between atoms: C_36  and  C_38
REMARK   20  A    between atoms: C_36  and  C_39
REMARK                            x       y       z     vdW  Elec       q    Type
REMARK                         _______ _______ _______ _____ _____    ______ ____
ROOT
ATOM      1  C   UNL     1      -5.797  -4.140   4.092  0.00  0.00    +0.193 C 
ENDROOT
BRANCH   1   2
ATOM      2  C   UNL     1      -7.176  -4.733   4.228  0.00  0.00    -0.018 A 
ATOM      3  C   UNL     1      -7.343  -6.105   4.202  0.00  0.00    +0.008 A 
ATOM      4  C   UNL     1      -8.605  -6.652   4.325  0.00  0.00    +0.023 A 
ATOM      5  C   UNL     1      -9.708  -5.821   4.476  0.00  0.00    +0.029 A 
ATOM      6  C   UNL     1      -9.537  -4.443   4.502  0.00  0.00    +0.023 A 
ATOM      7  C   UNL     1      -8.272  -3.903   4.383  0.00  0.00    +0.008 A 
BRANCH   5   8
ATOM      8  N   UNL     1     -10.986  -6.370   4.601  0.00  0.00    -0.336 N 
ATOM      9  C   UNL     1     -11.165  -7.824   4.573  0.00  0.00    +0.129 C 
ATOM     10  C   UNL     1     -12.148  -5.493   4.760  0.00  0.00    +0.129 C 
ENDBRANCH   5   8
ENDBRANCH   1   2
BRANCH   1  11
ATOM     11  C   UNL     1      -5.165  -4.024   5.455  0.00  0.00    +0.239 C 
ATOM     12  O   UNL     1      -4.067  -4.500   5.657  0.00  0.00    -0.273 OA
ATOM     13  N   UNL     1      -5.818  -3.392   6.450  0.00  0.00    -0.294 N 
ATOM     14  H   UNL     1      -6.696  -3.012   6.289  0.00  0.00    +0.150 HD
BRANCH  13  15
ATOM     15  C   UNL     1      -5.203  -3.279   7.775  0.00  0.00    +0.278 C 
BRANCH  15  16
ATOM     16  S   UNL     1      -4.346  -1.686   7.910  0.00  0.00    +0.013 S 
ATOM     17  O   UNL     1      -3.797  -1.535   9.212  0.00  0.00    -0.168 OA
ATOM     18  O   UNL     1      -3.547  -1.461   6.756  0.00  0.00    -0.168 OA
BRANCH  16  19
ATOM     19  C   UNL     1      -5.623  -0.476   7.817  0.00  0.00    +0.090 A 
ATOM     20  C   UNL     1      -6.007   0.031   6.589  0.00  0.00    +0.027 A 
ATOM     21  C   UNL     1      -7.009   0.980   6.516  0.00  0.00    +0.005 A 
ATOM     22  C   UNL     1      -7.627   1.423   7.670  0.00  0.00    -0.050 A 
ATOM     23  C   UNL     1      -7.244   0.916   8.898  0.00  0.00    +0.005 A 
ATOM     24  C   UNL     1      -6.245  -0.037   8.970  0.00  0.00    +0.027 A 
ATOM     25  C   UNL     1      -8.719   2.459   7.590  0.00  0.00    +0.044 C 
ENDBRANCH  16  19
ENDBRANCH  15  16
ENDBRANCH  13  15
ENDBRANCH   1  11
BRANCH   1  28
ATOM     26  C   UNL     1      -4.566  -6.206   3.701  0.00  0.00    +0.240 C 
ATOM     27  O   UNL     1      -4.790  -6.526   4.853  0.00  0.00    -0.271 OA
ATOM     28  N   UNL     1      -4.975  -5.006   3.244  0.00  0.00    -0.277 N 
BRANCH  28  29
ATOM     29  C   UNL     1      -4.597  -4.567   1.898  0.00  0.00    +0.030 C 
ATOM     30  C   UNL     1      -5.214  -5.510   0.863  0.00  0.00    +0.031 C 
ATOM     31  C   UNL     1      -5.109  -3.145   1.663  0.00  0.00    +0.031 C 
ATOM     32  C   UNL     1      -3.073  -4.590   1.764  0.00  0.00    +0.031 C 
ENDBRANCH  28  29
BRANCH  26  34
ATOM     33  C   UNL     1      -3.574  -8.366   3.211  0.00  0.00    -0.022 C 
ATOM     34  C   UNL     1      -3.848  -7.128   2.808  0.00  0.00    +0.063 C 
BRANCH  33  35
ATOM     35  C   UNL     1      -4.301  -8.952   4.393  0.00  0.00    +0.027 C 
BRANCH  35  36
ATOM     36  C   UNL     1      -4.801 -10.354   4.041  0.00  0.00    +0.004 C 
BRANCH  36  37
ATOM     37  C   UNL     1      -5.539 -10.949   5.241  0.00  0.00    +0.000 C 
BRANCH  37  39
ATOM     38  C   UNL     1      -6.777 -12.947   6.090  0.00  0.00    +0.004 C 
ATOM     39  C   UNL     1      -6.038 -12.352   4.889  0.00  0.00    -0.003 C 
ENDBRANCH  37  39
ENDBRANCH  36  37
ENDBRANCH  35  36
ENDBRANCH  33  35
ENDBRANCH  26  34
ENDBRANCH   1  28
TORSDOF 13
