REMARK  Name = ZINC67411458
REMARK  6 active torsions:
REMARK  status: ('A' for Active; 'I' for Inactive)
REMARK    1  A    between atoms: C_1  and  C_2
REMARK    2  A    between atoms: N_5  and  C_8
REMARK    3  A    between atoms: C_8  and  C_10
REMARK    4  A    between atoms: C_8  and  C_11
REMARK    5  A    between atoms: C_11  and  N_12
REMARK    6  A    between atoms: C_19  and  C_22
REMARK                            x       y       z     vdW  Elec       q    Type
REMARK                         _______ _______ _______ _____ _____    ______ ____
ROOT
ATOM      1  N   UNL     1       1.651  -3.736  -2.468  0.00  0.00    -0.301 N 
ATOM      2  C   UNL     1       1.989  -4.060  -3.732  0.00  0.00    +0.302 C 
ATOM      3  O   UNL     1       2.939  -4.789  -3.940  0.00  0.00    -0.253 OA
ATOM      4  N   UNL     1       1.273  -3.575  -4.766  0.00  0.00    -0.281 N 
ATOM      5  C   UNL     1       0.193  -2.600  -4.549  0.00  0.00    +0.137 C 
ATOM      6  C   UNL     1      -1.062  -3.100  -5.273  0.00  0.00    +0.179 C 
ATOM      7  O   UNL     1      -0.736  -3.392  -6.634  0.00  0.00    -0.369 OA
ATOM      8  C   UNL     1       0.229  -4.435  -6.793  0.00  0.00    +0.168 C 
ATOM      9  C   UNL     1       1.554  -3.999  -6.147  0.00  0.00    +0.145 C 
ATOM     10  H   UNL     1       0.939  -3.098  -2.305  0.00  0.00    +0.150 HD
ENDROOT
BRANCH   8  11
ATOM     11  C   UNL     1       0.448  -4.698  -8.261  0.00  0.00    +0.018 A 
ATOM     12  C   UNL     1       0.204  -3.701  -9.186  0.00  0.00    +0.009 A 
ATOM     13  C   UNL     1       0.405  -3.942 -10.532  0.00  0.00    +0.001 A 
ATOM     14  C   UNL     1       0.850  -5.181 -10.955  0.00  0.00    +0.003 A 
ATOM     15  C   UNL     1       1.095  -6.180 -10.031  0.00  0.00    +0.039 A 
ATOM     16  C   UNL     1       0.899  -5.938  -8.682  0.00  0.00    +0.129 A 
ATOM     17  F   UNL     1       1.143  -6.911  -7.778  0.00  0.00    -0.205 F 
ENDBRANCH   8  11
BRANCH   1  18
ATOM     18  C   UNL     1       2.358  -4.349  -1.341  0.00  0.00    +0.090 C 
BRANCH  18  19
ATOM     19  C   UNL     1       1.709  -3.904  -0.029  0.00  0.00    -0.054 C 
ATOM     20  C   UNL     1       2.499  -4.475   1.150  0.00  0.00    -0.012 C 
BRANCH  19  25
ATOM     21  C   UNL     1       2.257   1.619   1.282  0.00  0.00    +0.007 C 
ATOM     22  C   UNL     1       2.319   0.091   1.323  0.00  0.00    -0.018 C 
ATOM     23  C   UNL     1       0.898  -0.480   1.277  0.00  0.00    -0.016 C 
ATOM     24  C   UNL     1       0.970  -2.008   1.238  0.00  0.00    -0.078 C 
ATOM     25  N   UNL     1       1.710  -2.437   0.045  0.00  0.00    +0.382 N 
ATOM     26  C   UNL     1       3.094  -1.953   0.118  0.00  0.00    -0.078 C 
ATOM     27  C   UNL     1       3.104  -0.423   0.114  0.00  0.00    -0.016 C 
ATOM     28  H   UNL     1       1.266  -2.060  -0.779  0.00  0.00    -0.081 HD
ENDBRANCH  19  25
ENDBRANCH  18  19
ENDBRANCH   1  18
TORSDOF 4
