REMARK  Name = ZINC05010205
REMARK  5 active torsions:
REMARK  status: ('A' for Active; 'I' for Inactive)
REMARK    1  A    between atoms: C_6  and  C_7
REMARK    2  A    between atoms: C_7  and  C_8
REMARK    3  A    between atoms: C_14  and  C_16
REMARK    4  A    between atoms: C_16  and  C_25
REMARK    5  A    between atoms: C_17  and  C_18
REMARK                            x       y       z     vdW  Elec       q    Type
REMARK                         _______ _______ _______ _____ _____    ______ ____
ROOT
ATOM      1  C   UNL     1      -0.023   1.680  -1.005  0.00  0.00    +0.015 A 
ATOM      2  C   UNL     1       1.306   1.946  -1.053  0.00  0.00    +0.124 A 
ATOM      3  N   UNL     1       2.152   0.958  -0.836  0.00  0.00    -0.233 NA
ATOM      4  C   UNL     1       1.726  -0.263  -0.579  0.00  0.00    +0.165 A 
ATOM      5  S   UNL     1       0.002  -0.068  -0.633  0.00  0.00    -0.057 S 
ATOM      6  N   UNL     1       2.467  -1.411  -0.330  0.00  0.00    -0.260 N 
ATOM      7  C   UNL     1       3.814  -1.358  -0.332  0.00  0.00    +0.260 C 
ATOM      8  O   UNL     1       4.380  -0.305  -0.552  0.00  0.00    -0.269 OA
ATOM      9  H   UNL     1       2.015  -2.252  -0.154  0.00  0.00    +0.157 HD
ENDROOT
BRANCH   7  10
ATOM     10  C   UNL     1       4.598  -2.575  -0.067  0.00  0.00    +0.114 C 
ATOM     11  C   UNL     1       5.974  -2.521  -0.069  0.00  0.00    +0.032 C 
BRANCH  11  12
ATOM     12  C   UNL     1       6.756  -3.757   0.027  0.00  0.00    -0.024 A 
ATOM     13  C   UNL     1       7.979  -3.765   0.713  0.00  0.00    +0.009 A 
ATOM     14  C   UNL     1       8.705  -4.932   0.803  0.00  0.00    +0.020 A 
ATOM     15  C   UNL     1       8.236  -6.093   0.208  0.00  0.00    +0.041 A 
ATOM     16  C   UNL     1       7.031  -6.092  -0.476  0.00  0.00    +0.020 A 
ATOM     17  C   UNL     1       6.289  -4.935  -0.571  0.00  0.00    +0.009 A 
ATOM     18 CL   UNL     1       9.162  -7.557   0.322  0.00  0.00    -0.084 Cl
ENDBRANCH  11  12
BRANCH  10  19
ATOM     19  C   UNL     1       3.931  -3.815   0.192  0.00  0.00    +0.104 C 
ATOM     20  N   UNL     1       3.402  -4.799   0.397  0.00  0.00    -0.191 NA
ENDBRANCH  10  19
ENDBRANCH   7  10
BRANCH   1  21
ATOM     21  C   UNL     1      -1.196   2.602  -1.216  0.00  0.00    +0.079 C 
BRANCH  21  27
ATOM     22  C   UNL     1      -0.996   3.535  -3.529  0.00  0.00    +0.007 A 
ATOM     23  C   UNL     1      -1.336   3.543  -4.869  0.00  0.00    +0.038 A 
ATOM     24  C   UNL     1      -2.260   2.634  -5.353  0.00  0.00    +0.123 A 
ATOM     25  C   UNL     1      -2.840   1.714  -4.496  0.00  0.00    +0.038 A 
ATOM     26  C   UNL     1      -2.494   1.704  -3.158  0.00  0.00    +0.007 A 
ATOM     27  C   UNL     1      -1.571   2.613  -2.675  0.00  0.00    -0.042 A 
ATOM     28  F   UNL     1      -2.597   2.643  -6.662  0.00  0.00    -0.205 F 
ENDBRANCH  21  27
ENDBRANCH   1  21
TORSDOF 5
