REMARK  Name = ZINC23548181
REMARK  9 active torsions:
REMARK  status: ('A' for Active; 'I' for Inactive)
REMARK    1  A    between atoms: C_1  and  C_2
REMARK    2  A    between atoms: C_2  and  C_4
REMARK    3  A    between atoms: C_2  and  N_12
REMARK    4  A    between atoms: C_13  and  C_15
REMARK    5  A    between atoms: C_15  and  C_17
REMARK    6  A    between atoms: C_15  and  N_20
REMARK    7  A    between atoms: C_17  and  C_18
REMARK    8  A    between atoms: C_17  and  C_19
REMARK    9  A    between atoms: C_21  and  C_23
REMARK                            x       y       z     vdW  Elec       q    Type
REMARK                         _______ _______ _______ _____ _____    ______ ____
ROOT
ATOM      1  C   UNL     1       2.783  -1.099   2.395  0.00  0.00    +0.162 C 
ENDROOT
BRANCH   1   3
ATOM      2  N   UNL     1       0.711  -0.489   1.189  0.00  0.00    -0.307 N 
ATOM      3  C   UNL     1       2.054  -0.600   1.174  0.00  0.00    +0.234 C 
ATOM      4  O   UNL     1       2.676  -0.297   0.177  0.00  0.00    -0.274 OA
ATOM      5  H   UNL     1       0.213  -0.731   1.986  0.00  0.00    +0.149 HD
BRANCH   2   7
ATOM      6  C   UNL     1      -0.019   1.526   0.010  0.00  0.00    +0.033 C 
ATOM      7  C   UNL     1       0.002  -0.004   0.002  0.00  0.00    +0.100 C 
BRANCH   7   8
ATOM      8  C   UNL     1      -1.412  -0.526   0.013  0.00  0.00    -0.025 A 
ATOM      9  C   UNL     1      -2.122  -0.571   1.198  0.00  0.00    +0.008 A 
ATOM     10  C   UNL     1      -3.419  -1.049   1.210  0.00  0.00    +0.041 A 
ATOM     11  C   UNL     1      -4.008  -1.482   0.035  0.00  0.00    +0.158 A 
ATOM     12  C   UNL     1      -3.296  -1.437  -1.153  0.00  0.00    +0.159 A 
ATOM     13  C   UNL     1      -1.999  -0.953  -1.163  0.00  0.00    +0.046 A 
ATOM     14  F   UNL     1      -3.868  -1.861  -2.301  0.00  0.00    -0.202 F 
ATOM     15  F   UNL     1      -5.275  -1.950   0.046  0.00  0.00    -0.202 F 
ENDBRANCH   7   8
ENDBRANCH   2   7
ENDBRANCH   1   3
BRANCH   1  16
ATOM     16  N   UNL     1       4.223  -1.127   2.126  0.00  0.00    -0.300 N 
ATOM     17  C   UNL     1       5.020  -1.968   2.815  0.00  0.00    +0.245 C 
ATOM     18  O   UNL     1       4.545  -2.702   3.659  0.00  0.00    -0.270 OA
ATOM     19  H   UNL     1       4.602  -0.541   1.453  0.00  0.00    +0.150 HD
BRANCH  17  20
ATOM     20  C   UNL     1       6.473  -1.996   2.544  0.00  0.00    +0.037 A 
ATOM     21  C   UNL     1       7.022  -1.150   1.579  0.00  0.00    +0.014 A 
ATOM     22  C   UNL     1       8.379  -1.181   1.332  0.00  0.00    +0.021 A 
ATOM     23  C   UNL     1       9.195  -2.049   2.037  0.00  0.00    +0.041 A 
ATOM     24  C   UNL     1       8.655  -2.892   2.995  0.00  0.00    +0.021 A 
ATOM     25  C   UNL     1       7.301  -2.866   3.256  0.00  0.00    +0.014 A 
ATOM     26 CL   UNL     1      10.901  -2.083   1.718  0.00  0.00    -0.084 Cl
ENDBRANCH  17  20
ENDBRANCH   1  16
BRANCH   1  27
ATOM     27  C   UNL     1       2.502  -0.165   3.574  0.00  0.00    +0.012 C 
ATOM     28  C   UNL     1       3.242  -0.672   4.813  0.00  0.00    +0.009 C 
ATOM     29  C   UNL     1       2.985   1.246   3.233  0.00  0.00    +0.009 C 
ENDBRANCH   1  27
TORSDOF 6
