REMARK  Name = ZINC64006786
REMARK  4 active torsions:
REMARK  status: ('A' for Active; 'I' for Inactive)
REMARK    1  A    between atoms: C_1  and  C_2
REMARK    2  A    between atoms: C_7  and  C_8
REMARK    3  A    between atoms: C_23  and  C_25
REMARK    4  A    between atoms: N_35  and  C_37
REMARK                            x       y       z     vdW  Elec       q    Type
REMARK                         _______ _______ _______ _____ _____    ______ ____
ROOT
ATOM      1  C   UNL     1       0.319  -0.093   2.416  0.00  0.00    +0.133 C 
ATOM      2  C   UNL     1      -1.140  -0.079   2.884  0.00  0.00    +0.131 C 
ATOM      3  C   UNL     1      -1.534  -1.531   3.123  0.00  0.00    -0.035 C 
ATOM      4  C   UNL     1      -2.606  -1.756   2.373  0.00  0.00    -0.001 A 
ATOM      5  C   UNL     1      -3.472  -2.938   2.232  0.00  0.00    +0.010 A 
ATOM      6  C   UNL     1      -4.498  -2.828   1.347  0.00  0.00    +0.001 A 
ATOM      7  C   UNL     1      -4.746  -1.673   0.598  0.00  0.00    +0.002 A 
ATOM      8  C   UNL     1      -4.005  -0.539   0.667  0.00  0.00    +0.026 A 
ATOM      9  C   UNL     1      -2.900  -0.532   1.567  0.00  0.00    +0.043 A 
ATOM     10  N   UNL     1      -2.039   0.431   1.848  0.00  0.00    -0.375 N 
ATOM     11  C   UNL     1      -0.728  -2.455   4.002  0.00  0.00    +0.052 C 
ATOM     12  C   UNL     1       0.735  -2.349   3.534  0.00  0.00    +0.113 C 
ATOM     13  N   UNL     1       1.085  -0.936   3.346  0.00  0.00    -0.290 N 
ATOM     14  C   UNL     1       2.117  -0.407   4.033  0.00  0.00    +0.239 C 
ATOM     15  O   UNL     1       2.353   0.780   3.952  0.00  0.00    -0.273 OA
ATOM     16  H   UNL     1      -1.999   1.313   1.446  0.00  0.00    +0.160 HD
ENDROOT
BRANCH  14  17
ATOM     17  C   UNL     1       2.977  -1.289   4.901  0.00  0.00    +0.189 C 
ATOM     18  C   UNL     1       2.456  -1.263   6.313  0.00  0.00    -0.008 A 
ATOM     19  C   UNL     1       1.131  -1.020   6.592  0.00  0.00    +0.006 A 
ATOM     20  C   UNL     1       0.697  -1.007   7.907  0.00  0.00    +0.000 A 
ATOM     21  C   UNL     1       1.585  -1.236   8.944  0.00  0.00    +0.001 A 
ATOM     22  C   UNL     1       2.918  -1.481   8.676  0.00  0.00    +0.013 A 
ATOM     23  C   UNL     1       3.357  -1.495   7.358  0.00  0.00    +0.043 A 
ATOM     24  C   UNL     1       4.771  -1.750   7.001  0.00  0.00    +0.260 C 
ATOM     25  O   UNL     1       5.542  -2.233   7.807  0.00  0.00    -0.269 OA
ATOM     26  N   UNL     1       5.179  -1.430   5.754  0.00  0.00    -0.235 N 
ATOM     27  N   UNL     1       4.359  -0.801   4.873  0.00  0.00    -0.222 NA
ATOM     28  C   UNL     1       6.544  -1.769   5.342  0.00  0.00    +0.153 C 
ATOM     29  H   UNL     1       4.391   0.200   4.998  0.00  0.00    +0.146 HD
ENDBRANCH  14  17
BRANCH   1  36
ATOM     30  C   UNL     1       1.282   1.545   0.239  0.00  0.00    +0.044 C 
ATOM     31  C   UNL     1       0.863   0.120  -0.018  0.00  0.00    -0.045 A 
ATOM     32  C   UNL     1       0.945  -0.405  -1.294  0.00  0.00    +0.004 A 
ATOM     33  C   UNL     1       0.561  -1.712  -1.530  0.00  0.00    +0.000 A 
ATOM     34  C   UNL     1       0.096  -2.494  -0.489  0.00  0.00    +0.000 A 
ATOM     35  C   UNL     1       0.015  -1.969   0.787  0.00  0.00    +0.006 A 
ATOM     36  C   UNL     1       0.403  -0.663   1.024  0.00  0.00    -0.022 A 
ENDBRANCH   1  36
TORSDOF 2
