REMARK  Name = ZINC58966758
REMARK  13 active torsions:
REMARK  status: ('A' for Active; 'I' for Inactive)
REMARK    1  A    between atoms: C_1  and  C_2
REMARK    2  A    between atoms: C_2  and  N_3
REMARK    3  A    between atoms: N_3  and  C_4
REMARK    4  A    between atoms: N_3  and  C_6
REMARK    5  A    between atoms: C_4  and  C_5
REMARK    6  A    between atoms: C_6  and  C_7
REMARK    7  A    between atoms: C_7  and  C_8
REMARK    8  A    between atoms: C_8  and  N_9
REMARK    9  A    between atoms: C_10  and  C_12
REMARK   10  A    between atoms: C_12  and  C_13
REMARK   11  A    between atoms: C_13  and  S_14
REMARK   12  A    between atoms: S_14  and  C_15
REMARK   13  A    between atoms: C_19  and  C_21
REMARK                            x       y       z     vdW  Elec       q    Type
REMARK                         _______ _______ _______ _____ _____    ______ ____
ROOT
ATOM      1  C   UNL     1       4.575  -9.199  -8.597  0.00  0.00    +0.189 A 
ATOM      2  N   UNL     1       5.413  -9.837  -9.403  0.00  0.00    -0.222 NA
ATOM      3  C   UNL     1       5.471 -11.161  -9.395  0.00  0.00    +0.079 A 
ATOM      4  C   UNL     1       4.662 -11.876  -8.508  0.00  0.00    +0.009 A 
ATOM      5  C   UNL     1       3.798 -11.175  -7.690  0.00  0.00    +0.152 A 
ATOM      6  N   UNL     1       3.783  -9.852  -7.758  0.00  0.00    -0.218 NA
ATOM      7  C   UNL     1       4.758 -13.373  -8.435  0.00  0.00    +0.044 C 
ATOM      8  C   UNL     1       5.021 -13.965  -9.817  0.00  0.00    +0.040 C 
ATOM      9  C   UNL     1       6.181 -13.273 -10.483  0.00  0.00    -0.038 A 
ATOM     10  C   UNL     1       6.387 -11.908 -10.287  0.00  0.00    +0.004 A 
ATOM     11  C   UNL     1       7.445 -11.264 -10.922  0.00  0.00    +0.010 A 
ATOM     12  C   UNL     1       8.296 -11.986 -11.736  0.00  0.00    +0.001 A 
ATOM     13  C   UNL     1       8.097 -13.342 -11.917  0.00  0.00    +0.000 A 
ATOM     14  C   UNL     1       7.042 -13.985 -11.293  0.00  0.00    +0.004 A 
ENDROOT
BRANCH   5  15
ATOM     15  C   UNL     1       2.891 -11.903  -6.731  0.00  0.00    +0.435 C 
ATOM     16  F   UNL     1       3.650 -12.774  -5.942  0.00  0.00    -0.164 F 
ATOM     17  F   UNL     1       2.241 -10.976  -5.910  0.00  0.00    -0.164 F 
ATOM     18  F   UNL     1       1.941 -12.634  -7.452  0.00  0.00    -0.164 F 
ENDBRANCH   5  15
BRANCH   1  19
ATOM     19  S   UNL     1       4.517  -7.439  -8.639  0.00  0.00    -0.086 S 
BRANCH  19  20
ATOM     20  C   UNL     1       3.267  -7.011  -7.396  0.00  0.00    +0.086 C 
BRANCH  20  21
ATOM     21  C   UNL     1       3.115  -5.491  -7.327  0.00  0.00    +0.107 C 
BRANCH  21  23
ATOM     22  N   UNL     1       1.773  -3.844  -6.060  0.00  0.00    -0.315 N 
ATOM     23  C   UNL     1       2.076  -5.136  -6.295  0.00  0.00    +0.214 C 
ATOM     24  O   UNL     1       1.513  -6.013  -5.674  0.00  0.00    -0.276 OA
ATOM     25  H   UNL     1       2.223  -3.142  -6.556  0.00  0.00    +0.149 HD
BRANCH  22  26
ATOM     26  C   UNL     1       0.763  -3.499  -5.056  0.00  0.00    +0.102 C 
BRANCH  26  27
ATOM     27  C   UNL     1       0.611  -1.978  -4.988  0.00  0.00    +0.000 C 
BRANCH  27  28
ATOM     28  C   UNL     1      -0.444  -1.617  -3.939  0.00  0.00    -0.077 C 
BRANCH  28  29
ATOM     29  N   UNL     1      -0.518  -0.157  -3.801  0.00  0.00    +0.379 N 
ATOM     30  H   UNL     1       0.400   0.208  -3.593  0.00  0.00    -0.082 HD
BRANCH  29  32
ATOM     31  C   UNL     1      -0.964   1.956  -4.957  0.00  0.00    -0.017 C 
ATOM     32  C   UNL     1      -1.005   0.430  -5.057  0.00  0.00    -0.082 C 
ENDBRANCH  29  32
BRANCH  29  33
ATOM     33  C   UNL     1      -1.440   0.186  -2.711  0.00  0.00    -0.082 C 
ATOM     34  C   UNL     1      -0.864  -0.307  -1.382  0.00  0.00    -0.017 C 
ENDBRANCH  29  33
ENDBRANCH  28  29
ENDBRANCH  27  28
ENDBRANCH  26  27
ENDBRANCH  22  26
ENDBRANCH  21  23
ENDBRANCH  20  21
ENDBRANCH  19  20
ENDBRANCH   1  19
TORSDOF 11
