REMARK  Name = ZINC41688986
REMARK  5 active torsions:
REMARK  status: ('A' for Active; 'I' for Inactive)
REMARK    1  A    between atoms: C_3  and  O_24
REMARK    2  A    between atoms: C_6  and  C_7
REMARK    3  A    between atoms: C_8  and  C_9
REMARK    4  A    between atoms: C_8  and  C_11
REMARK    5  A    between atoms: N_13  and  C_14
REMARK                            x       y       z     vdW  Elec       q    Type
REMARK                         _______ _______ _______ _____ _____    ______ ____
ROOT
ATOM      1  C   UNL     1      -2.360  -3.108  -0.785  0.00  0.00    +0.259 C 
ATOM      2  O   UNL     1      -3.333  -2.653  -1.355  0.00  0.00    -0.269 OA
ATOM      3  N   UNL     1      -2.398  -4.357  -0.280  0.00  0.00    -0.281 N 
ATOM      4  H   UNL     1      -1.636  -4.707   0.208  0.00  0.00    +0.155 HD
ENDROOT
BRANCH   3   5
ATOM      5  C   UNL     1      -3.536  -5.150  -0.460  0.00  0.00    +0.034 A 
ATOM      6  C   UNL     1      -4.799  -4.572  -0.445  0.00  0.00    +0.023 A 
ATOM      7  C   UNL     1      -5.914  -5.363  -0.620  0.00  0.00    +0.006 A 
ATOM      8  C   UNL     1      -5.787  -6.734  -0.813  0.00  0.00    -0.044 A 
ATOM      9  C   UNL     1      -4.535  -7.309  -0.833  0.00  0.00    -0.042 A 
ATOM     10  C   UNL     1      -3.410  -6.516  -0.659  0.00  0.00    +0.027 A 
ATOM     11  C   UNL     1      -4.325  -8.784  -1.054  0.00  0.00    +0.035 C 
ATOM     12  C   UNL     1      -5.619  -9.555  -0.804  0.00  0.00    +0.005 C 
ATOM     13  C   UNL     1      -6.740  -8.895  -1.615  0.00  0.00    +0.005 C 
ATOM     14  C   UNL     1      -7.050  -7.536  -0.990  0.00  0.00    +0.035 C 
ENDBRANCH   3   5
BRANCH   1  16
ATOM     15  C   UNL     1      -1.103  -1.019  -1.163  0.00  0.00    +0.032 C 
ATOM     16  C   UNL     1      -1.142  -2.296  -0.647  0.00  0.00    +0.114 C 
BRANCH  15  22
ATOM     17  C   UNL     1       0.708  -0.235   0.346  0.00  0.00    +0.011 A 
ATOM     18  C   UNL     1       1.778   0.577   0.598  0.00  0.00    +0.046 A 
ATOM     19  C   UNL     1       2.208   1.484  -0.365  0.00  0.00    +0.117 A 
ATOM     20  C   UNL     1       1.554   1.571  -1.589  0.00  0.00    +0.046 A 
ATOM     21  C   UNL     1       0.483   0.765  -1.853  0.00  0.00    +0.011 A 
ATOM     22  C   UNL     1       0.044  -0.152  -0.886  0.00  0.00    -0.023 A 
BRANCH  19  23
ATOM     23  O   UNL     1       3.271   2.288  -0.108  0.00  0.00    -0.507 OA
ATOM     24  H   UNL     1       4.122   1.909  -0.367  0.00  0.00    +0.292 HD
ENDBRANCH  19  23
ENDBRANCH  15  22
BRANCH  16  25
ATOM     25  C   UNL     1       0.004  -2.832   0.024  0.00  0.00    +0.104 C 
ATOM     26  N   UNL     1       0.913  -3.257   0.557  0.00  0.00    -0.191 NA
ENDBRANCH  16  25
ENDBRANCH   1  16
TORSDOF 5
