REMARK  Name = ZINC60324369
REMARK  12 active torsions:
REMARK  status: ('A' for Active; 'I' for Inactive)
REMARK    1  A    between atoms: C_1  and  C_2
REMARK    2  A    between atoms: C_2  and  N_3
REMARK    3  A    between atoms: N_3  and  C_4
REMARK    4  A    between atoms: C_4  and  C_5
REMARK    5  A    between atoms: C_8  and  O_11
REMARK    6  A    between atoms: N_14  and  C_15
REMARK    7  A    between atoms: C_15  and  C_16
REMARK    8  A    between atoms: C_16  and  C_17
REMARK    9  A    between atoms: C_16  and  C_18
REMARK   10  A    between atoms: C_16  and  N_19
REMARK   11  A    between atoms: C_21  and  C_28
REMARK   12  A    between atoms: C_24  and  C_27
REMARK                            x       y       z     vdW  Elec       q    Type
REMARK                         _______ _______ _______ _____ _____    ______ ____
ROOT
ATOM      1  N   UNL     1       5.420   0.905   3.094  0.00  0.00    -0.282 N 
ATOM      2  C   UNL     1       4.753   0.107   2.237  0.00  0.00    +0.302 C 
ATOM      3  O   UNL     1       3.950  -0.702   2.659  0.00  0.00    -0.253 OA
ATOM      4  N   UNL     1       4.976   0.207   0.911  0.00  0.00    -0.301 N 
ATOM      5  H   UNL     1       5.617   0.853   0.575  0.00  0.00    +0.150 HD
ENDROOT
BRANCH   1   7
ATOM      6  C   UNL     1       7.772   1.235   2.511  0.00  0.00    +0.024 C 
ATOM      7  C   UNL     1       6.387   1.881   2.586  0.00  0.00    +0.106 C 
ENDBRANCH   1   7
BRANCH   1   8
ATOM      8  C   UNL     1       5.177   0.797   4.535  0.00  0.00    +0.144 C 
BRANCH   8   9
ATOM      9  C   UNL     1       4.061   1.731   4.928  0.00  0.00    -0.030 A 
ATOM     10  C   UNL     1       4.349   3.030   5.303  0.00  0.00    +0.009 A 
ATOM     11  C   UNL     1       3.328   3.888   5.664  0.00  0.00    +0.046 A 
ATOM     12  C   UNL     1       2.014   3.445   5.650  0.00  0.00    +0.117 A 
ATOM     13  C   UNL     1       1.728   2.141   5.274  0.00  0.00    +0.046 A 
ATOM     14  C   UNL     1       2.752   1.288   4.908  0.00  0.00    +0.009 A 
BRANCH  12  15
ATOM     15  O   UNL     1       1.008   4.287   6.006  0.00  0.00    -0.507 OA
ATOM     16  H   UNL     1       0.638   4.791   5.268  0.00  0.00    +0.292 HD
ENDBRANCH  12  15
ENDBRANCH   8   9
ENDBRANCH   1   8
BRANCH   4  17
ATOM     17  C   UNL     1       4.251  -0.660  -0.021  0.00  0.00    +0.093 C 
BRANCH  17  18
ATOM     18  C   UNL     1       4.588  -0.259  -1.458  0.00  0.00    -0.055 C 
ATOM     19  C   UNL     1       6.069  -0.533  -1.731  0.00  0.00    -0.008 C 
ATOM     20  C   UNL     1       3.731  -1.073  -2.429  0.00  0.00    -0.008 C 
BRANCH  18  21
ATOM     21  N   UNL     1       4.313   1.173  -1.644  0.00  0.00    +0.384 N 
ATOM     22  C   UNL     1       2.902   1.441  -1.341  0.00  0.00    -0.075 C 
ATOM     23  C   UNL     1       2.630   2.943  -1.454  0.00  0.00    -0.031 C 
ATOM     24  C   UNL     1       2.945   3.407  -2.879  0.00  0.00    +0.003 C 
ATOM     25  C   UNL     1       4.397   3.055  -3.211  0.00  0.00    -0.031 C 
ATOM     26  C   UNL     1       4.605   1.549  -3.032  0.00  0.00    -0.075 C 
ATOM     27  C   UNL     1       4.700   3.445  -4.659  0.00  0.00    +0.005 C 
ATOM     28  C   UNL     1       3.515   3.699  -0.462  0.00  0.00    +0.005 C 
ATOM     29  H   UNL     1       4.897   1.710  -1.021  0.00  0.00    -0.081 HD
ENDBRANCH  18  21
ENDBRANCH  17  18
ENDBRANCH   4  17
TORSDOF 7
