REMARK  Name = ZINC04130957
REMARK  7 active torsions:
REMARK  status: ('A' for Active; 'I' for Inactive)
REMARK    1  A    between atoms: C_1  and  C_2
REMARK    2  A    between atoms: C_5  and  O_9
REMARK    3  A    between atoms: C_6  and  C_8
REMARK    4  A    between atoms: O_9  and  C_10
REMARK    5  A    between atoms: C_10  and  C_11
REMARK    6  A    between atoms: N_13  and  N_14
REMARK    7  A    between atoms: C_15  and  C_16
REMARK                            x       y       z     vdW  Elec       q    Type
REMARK                         _______ _______ _______ _____ _____    ______ ____
ROOT
ATOM      1  C   UNL     1      -4.770   1.120  -0.248  0.00  0.00    +0.270 C 
ATOM      2  O   UNL     1      -5.825   1.713  -0.327  0.00  0.00    -0.270 OA
ATOM      3  N   UNL     1      -3.626   1.804  -0.052  0.00  0.00    -0.204 N 
ATOM      4  H   UNL     1      -2.792   1.327   0.084  0.00  0.00    +0.177 HD
ENDROOT
BRANCH   3   5
ATOM      5  N   UNL     1      -3.639   3.205  -0.045  0.00  0.00    -0.188 NA
ATOM      6  C   UNL     1      -2.523   3.865   0.015  0.00  0.00    +0.139 C 
BRANCH   6   7
ATOM      7  C   UNL     1      -1.263   3.220  -0.394  0.00  0.00    +0.012 A 
ATOM      8  C   UNL     1      -1.282   2.151  -1.295  0.00  0.00    +0.060 A 
ATOM      9  C   UNL     1      -0.099   1.549  -1.676  0.00  0.00    +0.167 A 
ATOM     10  C   UNL     1       1.114   2.007  -1.161  0.00  0.00    +0.167 A 
ATOM     11  C   UNL     1       1.134   3.068  -0.267  0.00  0.00    +0.065 A 
ATOM     12  C   UNL     1      -0.044   3.670   0.122  0.00  0.00    +0.030 A 
ATOM     13 BR   UNL     1      -0.011   5.110   1.347  0.00  0.00    -0.050 Br
ATOM     14  O   UNL     1       2.123   1.253  -1.688  0.00  0.00    -0.453 OA
ATOM     15  C   UNL     1       1.555   0.601  -2.839  0.00  0.00    +0.466 C 
ATOM     16  O   UNL     1       0.153   0.509  -2.524  0.00  0.00    -0.453 OA
ENDBRANCH   6   7
ENDBRANCH   3   5
BRANCH   1  17
ATOM     17  C   UNL     1      -4.739  -0.382  -0.368  0.00  0.00    +0.326 C 
BRANCH  17  18
ATOM     18  O   UNL     1      -6.066  -0.871  -0.570  0.00  0.00    -0.482 OA
BRANCH  18  23
ATOM     19  C   UNL     1      -6.684  -6.444  -1.105  0.00  0.00    +0.044 C 
ATOM     20  C   UNL     1      -6.519  -4.953  -0.962  0.00  0.00    -0.050 A 
ATOM     21  C   UNL     1      -5.261  -4.414  -0.765  0.00  0.00    +0.007 A 
ATOM     22  C   UNL     1      -5.106  -3.047  -0.633  0.00  0.00    +0.046 A 
ATOM     23  C   UNL     1      -6.215  -2.216  -0.699  0.00  0.00    +0.124 A 
ATOM     24  C   UNL     1      -7.477  -2.760  -0.891  0.00  0.00    -0.009 A 
ATOM     25  C   UNL     1      -7.625  -4.127  -1.028  0.00  0.00    +0.010 A 
ATOM     26  C   UNL     1      -8.684  -1.860  -0.957  0.00  0.00    +0.047 C 
ENDBRANCH  18  23
ENDBRANCH  17  18
ENDBRANCH   1  17
TORSDOF 5
