REMARK  Name = ZINC08608011
REMARK  10 active torsions:
REMARK  status: ('A' for Active; 'I' for Inactive)
REMARK    1  A    between atoms: C_1  and  C_2
REMARK    2  A    between atoms: C_2  and  O_3
REMARK    3  A    between atoms: O_3  and  C_4
REMARK    4  A    between atoms: C_4  and  C_6
REMARK    5  A    between atoms: C_7  and  C_37
REMARK    6  A    between atoms: C_10  and  C_36
REMARK    7  A    between atoms: C_11  and  S_12
REMARK    8  A    between atoms: S_12  and  N_15
REMARK    9  A    between atoms: C_19  and  C_22
REMARK   10  A    between atoms: N_27  and  C_30
REMARK                            x       y       z     vdW  Elec       q    Type
REMARK                         _______ _______ _______ _____ _____    ______ ____
ROOT
ATOM      1  N   UNL     1       4.789  -0.987   1.545  0.00  0.00    -0.176 NA
ATOM      2  C   UNL     1       4.187   0.141   0.820  0.00  0.00    +0.109 C 
ATOM      3  C   UNL     1       5.281   0.847   0.013  0.00  0.00    +0.018 C 
ATOM      4  C   UNL     1       6.426   1.241   0.949  0.00  0.00    +0.015 C 
ATOM      5  C   UNL     1       7.027  -0.017   1.579  0.00  0.00    +0.091 C 
ATOM      6  C   UNL     1       5.950  -0.733   2.409  0.00  0.00    +0.122 C 
ENDROOT
BRANCH   5   7
ATOM      7  C   UNL     1       8.176   0.369   2.475  0.00  0.00    +0.220 C 
ATOM      8  O   UNL     1       7.966   0.695   3.625  0.00  0.00    -0.275 OA
ATOM      9  N   UNL     1       9.437   0.353   1.999  0.00  0.00    -0.298 N 
ATOM     10  C   UNL     1       9.697   0.085   0.578  0.00  0.00    +0.126 C 
ATOM     11  C   UNL     1      10.524   1.242   0.004  0.00  0.00    +0.124 C 
ATOM     12  N   UNL     1      11.664   1.492   0.897  0.00  0.00    -0.327 N 
ATOM     13  C   UNL     1      11.404   1.760   2.319  0.00  0.00    +0.124 C 
ATOM     14  C   UNL     1      10.577   0.609   2.892  0.00  0.00    +0.126 C 
BRANCH  12  15
ATOM     15  C   UNL     1      12.970   1.475   0.404  0.00  0.00    +0.030 A 
ATOM     16  C   UNL     1      13.198   1.340  -0.960  0.00  0.00    +0.023 A 
ATOM     17  C   UNL     1      14.491   1.324  -1.444  0.00  0.00    +0.002 A 
ATOM     18  C   UNL     1      15.559   1.442  -0.573  0.00  0.00    +0.000 A 
ATOM     19  C   UNL     1      15.336   1.576   0.785  0.00  0.00    +0.002 A 
ATOM     20  C   UNL     1      14.045   1.598   1.276  0.00  0.00    +0.023 A 
ENDBRANCH  12  15
ENDBRANCH   5   7
BRANCH   1  21
ATOM     21  S   UNL     1       4.165  -2.514   1.399  0.00  0.00    +0.063 S 
ATOM     22  O   UNL     1       5.215  -3.414   1.722  0.00  0.00    -0.153 OA
ATOM     23  O   UNL     1       3.482  -2.556   0.153  0.00  0.00    -0.153 OA
BRANCH  21  29
ATOM     24  C   UNL     1       1.510  -2.385   2.535  0.00  0.00    +0.106 A 
ATOM     25  C   UNL     1       0.954  -2.696   3.758  0.00  0.00    +0.029 A 
ATOM     26  N   UNL     1       1.933  -3.151   4.562  0.00  0.00    -0.360 N 
ATOM     27  H   UNL     1       1.808  -3.438   5.480  0.00  0.00    +0.165 HD
ATOM     28  C   UNL     1       3.128  -3.151   3.902  0.00  0.00    +0.041 A 
ATOM     29  C   UNL     1       2.939  -2.698   2.651  0.00  0.00    +0.140 A 
ATOM     30  C   UNL     1       4.446  -3.594   4.482  0.00  0.00    +0.065 C 
ATOM     31  C   UNL     1      -0.499  -2.550   4.131  0.00  0.00    +0.064 C 
BRANCH  24  32
ATOM     32  C   UNL     1       0.812  -1.855   1.354  0.00  0.00    +0.343 C 
ATOM     33  O   UNL     1       0.335  -2.617   0.536  0.00  0.00    -0.245 OA
BRANCH  32  34
ATOM     34  O   UNL     1       0.701  -0.523   1.178  0.00  0.00    -0.461 OA
BRANCH  34  36
ATOM     35  C   UNL     1      -0.014   1.452  -0.018  0.00  0.00    +0.048 C 
ATOM     36  C   UNL     1       0.011  -0.078   0.009  0.00  0.00    +0.229 C 
ENDBRANCH  34  36
ENDBRANCH  32  34
ENDBRANCH  24  32
ENDBRANCH  21  29
ENDBRANCH   1  21
TORSDOF 7
