REMARK  Name = ZINC13640285
REMARK  8 active torsions:
REMARK  status: ('A' for Active; 'I' for Inactive)
REMARK    1  A    between atoms: C_4  and  C_7
REMARK    2  A    between atoms: C_7  and  C_8
REMARK    3  A    between atoms: C_8  and  C_9
REMARK    4  A    between atoms: C_9  and  O_10
REMARK    5  A    between atoms: O_10  and  C_11
REMARK    6  A    between atoms: C_24  and  C_27
REMARK    7  A    between atoms: C_30  and  O_34
REMARK    8  A    between atoms: C_32  and  O_33
REMARK                            x       y       z     vdW  Elec       q    Type
REMARK                         _______ _______ _______ _____ _____    ______ ____
ROOT
ATOM      1  C   UNL     1      -3.598   3.208   2.035  0.00  0.00    +0.121 A 
ATOM      2  C   UNL     1      -3.863   3.262   0.674  0.00  0.00    +0.047 A 
ATOM      3  C   UNL     1      -3.459   2.225  -0.142  0.00  0.00    +0.027 A 
ATOM      4  C   UNL     1      -2.791   1.133   0.399  0.00  0.00    +0.032 A 
ATOM      5  C   UNL     1      -2.525   1.072   1.755  0.00  0.00    -0.016 A 
ATOM      6  C   UNL     1      -2.933   2.119   2.571  0.00  0.00    +0.051 A 
ATOM      7  C   UNL     1      -1.809  -0.086   2.397  0.00  0.00    +0.049 C 
ATOM      8  C   UNL     1      -2.749  -0.686   3.434  0.00  0.00    -0.023 C 
ATOM      9  C   UNL     1      -3.389  -1.712   2.932  0.00  0.00    -0.030 C 
ATOM     10  C   UNL     1      -2.968  -1.949   1.493  0.00  0.00    +0.033 C 
ATOM     11  C   UNL     1      -1.587  -1.254   1.419  0.00  0.00    +0.029 C 
ATOM     12  C   UNL     1      -1.293  -0.775   0.010  0.00  0.00    +0.108 C 
ATOM     13  N   UNL     1      -2.382   0.095  -0.450  0.00  0.00    -0.336 N 
ATOM     14  H   UNL     1      -2.804  -0.044  -1.312  0.00  0.00    +0.147 HD
ENDROOT
BRANCH  12  15
ATOM     15  C   UNL     1       0.002  -0.004   0.002  0.00  0.00    +0.015 A 
ATOM     16  C   UNL     1      -0.017   1.377  -0.035  0.00  0.00    +0.012 A 
ATOM     17  C   UNL     1       1.169   2.087  -0.043  0.00  0.00    +0.046 A 
ATOM     18  C   UNL     1       2.382   1.413  -0.013  0.00  0.00    +0.120 A 
ATOM     19  C   UNL     1       2.404   0.028   0.024  0.00  0.00    +0.091 A 
ATOM     20  C   UNL     1       1.212  -0.682   0.032  0.00  0.00    +0.125 A 
BRANCH  20  21
ATOM     21  O   UNL     1       1.230  -2.040   0.069  0.00  0.00    -0.506 OA
ATOM     22  H   UNL     1       1.244  -2.458  -0.803  0.00  0.00    +0.292 HD
ENDBRANCH  20  21
BRANCH  18  23
ATOM     23  O   UNL     1       3.548   2.111  -0.020  0.00  0.00    -0.507 OA
ATOM     24  H   UNL     1       3.894   2.290  -0.905  0.00  0.00    +0.292 HD
ENDBRANCH  18  23
ENDBRANCH  12  15
BRANCH   1  25
ATOM     25  O   UNL     1      -3.991   4.228   2.844  0.00  0.00    -0.492 OA
BRANCH  25  26
ATOM     26  C   UNL     1      -4.673   5.321   2.225  0.00  0.00    +0.229 C 
BRANCH  26  27
ATOM     27  C   UNL     1      -5.035   6.363   3.286  0.00  0.00    +0.046 C 
BRANCH  27  28
ATOM     28  C   UNL     1      -5.764   7.533   2.623  0.00  0.00    +0.038 C 
BRANCH  28  32
ATOM     29  C   UNL     1      -6.774  10.442   5.584  0.00  0.00    +0.000 A 
ATOM     30  C   UNL     1      -5.563  10.521   4.923  0.00  0.00    +0.000 A 
ATOM     31  C   UNL     1      -5.236   9.579   3.965  0.00  0.00    +0.003 A 
ATOM     32  C   UNL     1      -6.120   8.559   3.668  0.00  0.00    -0.047 A 
ATOM     33  C   UNL     1      -7.334   8.483   4.326  0.00  0.00    +0.003 A 
ATOM     34  C   UNL     1      -7.659   9.422   5.287  0.00  0.00    +0.000 A 
ENDBRANCH  28  32
ENDBRANCH  27  28
ENDBRANCH  26  27
ENDBRANCH  25  26
ENDBRANCH   1  25
TORSDOF 8
