REMARK  Name = ZINC64519991
REMARK  5 active torsions:
REMARK  status: ('A' for Active; 'I' for Inactive)
REMARK    1  A    between atoms: C_1  and  C_2
REMARK    2  A    between atoms: N_5  and  C_8
REMARK    3  A    between atoms: C_11  and  C_14
REMARK    4  A    between atoms: C_17  and  C_21
REMARK    5  A    between atoms: C_29  and  C_31
REMARK                            x       y       z     vdW  Elec       q    Type
REMARK                         _______ _______ _______ _____ _____    ______ ____
ROOT
ATOM      1  C   UNL     1      -0.864  -8.145   1.718  0.00  0.00    +0.180 C 
ATOM      2  N   UNL     1      -2.097  -8.579   2.416  0.00  0.00    -0.262 NA
ATOM      3  C   UNL     1      -2.564  -9.793   1.717  0.00  0.00    +0.298 C 
ATOM      4  O   UNL     1      -1.625 -10.064   0.661  0.00  0.00    -0.270 OA
ATOM      5  N   UNL     1      -0.988  -8.758   0.369  0.00  0.00    -0.177 NA
ATOM      6  H   UNL     1      -1.913  -8.770   3.390  0.00  0.00    +0.127 HD
ATOM      7  H   UNL     1      -1.574  -8.197  -0.231  0.00  0.00    +0.156 HD
ENDROOT
BRANCH   3   8
ATOM      8  C   UNL     1      -2.610 -10.953   2.678  0.00  0.00    +0.262 C 
ATOM      9  O   UNL     1      -1.871 -11.901   2.519  0.00  0.00    -0.271 OA
ATOM     10  N   UNL     1      -3.471 -10.936   3.714  0.00  0.00    -0.295 N 
ATOM     11  C   UNL     1      -4.454  -9.851   3.853  0.00  0.00    +0.127 C 
ATOM     12  C   UNL     1      -5.854 -10.469   3.951  0.00  0.00    +0.127 C 
ATOM     13  N   UNL     1      -5.828 -11.534   4.962  0.00  0.00    -0.297 N 
ATOM     14  C   UNL     1      -4.846 -12.619   4.824  0.00  0.00    +0.127 C 
ATOM     15  C   UNL     1      -3.449 -12.005   4.723  0.00  0.00    +0.127 C 
ATOM     16  C   UNL     1      -6.690 -11.518   5.999  0.00  0.00    +0.242 C 
ATOM     17  O   UNL     1      -7.496 -10.617   6.103  0.00  0.00    -0.273 OA
BRANCH  16  18
ATOM     18  C   UNL     1      -6.651 -12.617   7.028  0.00  0.00    +0.190 C 
ATOM     19  C   UNL     1      -6.971 -13.947   6.383  0.00  0.00    +0.016 C 
ATOM     20  C   UNL     1      -8.088 -14.402   6.996  0.00  0.00    -0.004 A 
ATOM     21  C   UNL     1      -8.889 -15.620   6.825  0.00  0.00    +0.010 A 
ATOM     22  C   UNL     1      -9.980 -15.802   7.604  0.00  0.00    +0.001 A 
ATOM     23  C   UNL     1     -10.363 -14.858   8.567  0.00  0.00    +0.002 A 
ATOM     24  C   UNL     1      -9.677 -13.716   8.782  0.00  0.00    +0.026 A 
ATOM     25  C   UNL     1      -8.513 -13.422   8.020  0.00  0.00    +0.043 A 
ATOM     26  N   UNL     1      -7.691 -12.399   8.040  0.00  0.00    -0.370 N 
ATOM     27  H   UNL     1      -7.759 -11.629   8.625  0.00  0.00    +0.161 HD
ENDBRANCH  16  18
ENDBRANCH   3   8
BRANCH   1  31
ATOM     28  C   UNL     1      -0.722  -3.886   1.425  0.00  0.00    +0.013 A 
ATOM     29  C   UNL     1      -0.161  -4.666   0.431  0.00  0.00    +0.022 A 
ATOM     30  C   UNL     1      -0.207  -6.045   0.526  0.00  0.00    +0.008 A 
ATOM     31  C   UNL     1      -0.813  -6.643   1.615  0.00  0.00    -0.014 A 
ATOM     32  C   UNL     1      -1.373  -5.862   2.610  0.00  0.00    +0.008 A 
ATOM     33  C   UNL     1      -1.323  -4.484   2.517  0.00  0.00    +0.022 A 
BRANCH  28  38
ATOM     34  C   UNL     1       0.027   1.521   0.032  0.00  0.00    +0.007 C 
ATOM     35  C   UNL     1       0.041  -0.009   0.020  0.00  0.00    -0.011 C 
ATOM     36  C   UNL     1      -1.397  -0.535   0.043  0.00  0.00    +0.020 C 
ATOM     37  C   UNL     1      -1.374  -2.063   0.111  0.00  0.00    +0.085 C 
ATOM     38  N   UNL     1      -0.676  -2.492   1.329  0.00  0.00    -0.393 NA
ATOM     39  C   UNL     1       0.724  -2.053   1.281  0.00  0.00    +0.085 C 
ATOM     40  C   UNL     1       0.782  -0.524   1.258  0.00  0.00    +0.020 C 
ATOM     41  H   UNL     1      -1.127  -2.086   2.135  0.00  0.00    +0.126 HD
ENDBRANCH  28  38
ENDBRANCH   1  31
TORSDOF 4
