REMARK  Name = ZINC12135355
REMARK  6 active torsions:
REMARK  status: ('A' for Active; 'I' for Inactive)
REMARK    1  A    between atoms: C_1  and  C_2
REMARK    2  A    between atoms: C_5  and  C_11
REMARK    3  A    between atoms: N_13  and  C_14
REMARK    4  A    between atoms: C_14  and  C_15
REMARK    5  A    between atoms: C_25  and  C_26
REMARK    6  A    between atoms: C_25  and  N_61
REMARK                            x       y       z     vdW  Elec       q    Type
REMARK                         _______ _______ _______ _____ _____    ______ ____
ROOT
ATOM      1  C   UNL     1       2.424   0.737  -0.017  0.00  0.00    +0.136 C 
ATOM      2  C   UNL     1       3.771   1.503   0.029  0.00  0.00    +0.036 C 
ATOM      3  C   UNL     1       4.725   0.445   0.637  0.00  0.00    +0.037 C 
ATOM      4  C   UNL     1       3.784  -0.543   1.348  0.00  0.00    +0.067 C 
ATOM      5  O   UNL     1       2.441  -0.057   1.189  0.00  0.00    -0.369 OA
ATOM      6  C   UNL     1       4.139  -0.619   2.832  0.00  0.00    +0.016 C 
ATOM      7  C   UNL     1       3.235  -1.648   3.517  0.00  0.00    -0.076 C 
ATOM      8  C   UNL     1       3.013  -2.913   1.461  0.00  0.00    -0.076 C 
ATOM      9  C   UNL     1       3.911  -1.926   0.710  0.00  0.00    +0.016 C 
ATOM     10  N   UNL     1       3.438  -2.965   2.876  0.00  0.00    +0.383 N 
ATOM     11  H   UNL     1       4.435  -3.204   2.916  0.00  0.00    -0.081 HD
ENDROOT
BRANCH   1  12
ATOM     12  C   UNL     1       1.248   1.716  -0.001  0.00  0.00    +0.135 C 
BRANCH  12  15
ATOM     13  C   UNL     1      -1.187   1.624   0.017  0.00  0.00    +0.233 C 
ATOM     14  O   UNL     1      -1.204   2.837   0.023  0.00  0.00    -0.274 OA
ATOM     15  N   UNL     1      -0.011   0.966   0.007  0.00  0.00    -0.311 N 
ATOM     16  H   UNL     1       0.002  -0.004   0.002  0.00  0.00    +0.149 HD
BRANCH  13  20
ATOM     17  C   UNL     1      -3.480   1.191  -3.679  0.00  0.00    +0.028 C 
ATOM     18  C   UNL     1      -3.044   1.627  -2.279  0.00  0.00    +0.071 C 
ATOM     19  C   UNL     1      -2.805   0.390  -1.406  0.00  0.00    +0.053 C 
ATOM     20  C   UNL     1      -2.482   0.853   0.018  0.00  0.00    +0.160 C 
ATOM     21  N   UNL     1      -3.563   1.714   0.500  0.00  0.00    -0.315 N 
ATOM     22  C   UNL     1      -4.295   2.454  -0.346  0.00  0.00    +0.131 C 
ATOM     23  S   UNL     1      -5.534   3.449   0.293  0.00  0.00    -0.019 S 
ATOM     24  N   UNL     1      -4.095   2.446  -1.672  0.00  0.00    -0.324 N 
ATOM     25  H   UNL     1      -3.755   1.750   1.450  0.00  0.00    +0.148 HD
ATOM     26  H   UNL     1      -4.657   2.995  -2.241  0.00  0.00    +0.148 HD
ENDBRANCH  13  20
ENDBRANCH  12  15
ENDBRANCH   1  12
BRANCH  10  27
ATOM     27  C   UNL     1       2.667  -4.000   3.596  0.00  0.00    -0.043 C 
BRANCH  27  28
ATOM     28  C   UNL     1       3.264  -4.182   4.968  0.00  0.00    -0.064 A 
ATOM     29  C   UNL     1       4.279  -5.101   5.163  0.00  0.00    +0.002 A 
ATOM     30  C   UNL     1       4.830  -5.265   6.420  0.00  0.00    +0.000 A 
ATOM     31  C   UNL     1       4.360  -4.518   7.484  0.00  0.00    +0.000 A 
ATOM     32  C   UNL     1       3.342  -3.603   7.290  0.00  0.00    +0.000 A 
ATOM     33  C   UNL     1       2.794  -3.436   6.032  0.00  0.00    +0.002 A 
ENDBRANCH  27  28
ENDBRANCH  10  27
TORSDOF 5
