REMARK  Name = ZINC63440410
REMARK  9 active torsions:
REMARK  status: ('A' for Active; 'I' for Inactive)
REMARK    1  A    between atoms: C_1  and  C_2
REMARK    2  A    between atoms: C_4  and  C_13
REMARK    3  A    between atoms: C_13  and  C_14
REMARK    4  A    between atoms: C_14  and  N_15
REMARK    5  A    between atoms: N_15  and  C_16
REMARK    6  A    between atoms: N_15  and  C_23
REMARK    7  A    between atoms: C_16  and  C_17
REMARK    8  A    between atoms: C_23  and  N_25
REMARK    9  A    between atoms: N_25  and  C_26
REMARK                            x       y       z     vdW  Elec       q    Type
REMARK                         _______ _______ _______ _____ _____    ______ ____
ROOT
ATOM      1  C   UNL     1       1.364  -0.963  -3.578  0.00  0.00    +0.111 C 
ENDROOT
BRANCH   1   2
ATOM      2  C   UNL     1       0.352  -0.269  -2.664  0.00  0.00    +0.052 C 
BRANCH   2   5
ATOM      3  C   UNL     1      -0.019   1.526   0.010  0.00  0.00    +0.035 C 
ATOM      4  C   UNL     1       0.002  -0.004   0.002  0.00  0.00    +0.103 C 
ATOM      5  C   UNL     1       0.729  -0.509  -1.224  0.00  0.00    -0.037 C 
ATOM      6  C   UNL     1       1.785  -1.220  -0.768  0.00  0.00    +0.001 A 
ATOM      7  C   UNL     1       2.858  -1.954  -1.449  0.00  0.00    +0.030 A 
ATOM      8  C   UNL     1       3.798  -2.583  -0.705  0.00  0.00    +0.042 A 
ATOM      9  C   UNL     1       3.771  -2.550   0.697  0.00  0.00    +0.022 A 
ATOM     10  C   UNL     1       2.817  -1.897   1.393  0.00  0.00    +0.027 A 
ATOM     11  C   UNL     1       1.780  -1.201   0.712  0.00  0.00    +0.043 A 
ATOM     12  N   UNL     1       0.758  -0.506   1.155  0.00  0.00    -0.378 N 
ATOM     13 CL   UNL     1       5.069  -3.452  -1.507  0.00  0.00    -0.084 Cl
ATOM     14  H   UNL     1       0.540  -0.349   2.087  0.00  0.00    +0.160 HD
ENDBRANCH   2   5
ENDBRANCH   1   2
BRANCH   1  15
ATOM     15  N   UNL     1       0.998  -0.729  -4.977  0.00  0.00    -0.308 N 
BRANCH  15  16
ATOM     16  C   UNL     1       0.175  -1.588  -5.611  0.00  0.00    +0.133 C 
ATOM     17  S   UNL     1      -0.253  -1.316  -7.246  0.00  0.00    -0.019 S 
BRANCH  16  18
ATOM     18  N   UNL     1      -0.311  -2.662  -4.957  0.00  0.00    -0.329 N 
ATOM     19  C   UNL     1      -1.205  -3.596  -5.646  0.00  0.00    +0.127 C 
ATOM     20  H   UNL     1      -0.069  -2.817  -4.031  0.00  0.00    +0.147 HD
ENDBRANCH  16  18
ENDBRANCH  15  16
BRANCH  15  21
ATOM     21  C   UNL     1       1.526   0.438  -5.688  0.00  0.00    +0.142 C 
BRANCH  21  22
ATOM     22  C   UNL     1       2.829   0.074  -6.352  0.00  0.00    -0.027 A 
ATOM     23  C   UNL     1       4.034   0.227  -5.683  0.00  0.00    +0.025 A 
ATOM     24  C   UNL     1       5.208  -0.117  -6.324  0.00  0.00    +0.111 A 
ATOM     25  N   UNL     1       5.192  -0.584  -7.558  0.00  0.00    -0.263 NA
ATOM     26  C   UNL     1       4.065  -0.742  -8.224  0.00  0.00    +0.111 A 
ATOM     27  C   UNL     1       2.851  -0.425  -7.645  0.00  0.00    +0.025 A 
ENDBRANCH  21  22
ENDBRANCH  15  21
ENDBRANCH   1  15
TORSDOF 7
