REMARK  Name = ZINC51625619
REMARK  3 active torsions:
REMARK  status: ('A' for Active; 'I' for Inactive)
REMARK    1  A    between atoms: C_3  and  N_16
REMARK    2  A    between atoms: C_4  and  O_8
REMARK    3  A    between atoms: O_8  and  C_9
REMARK                            x       y       z     vdW  Elec       q    Type
REMARK                         _______ _______ _______ _____ _____    ______ ____
ROOT
ATOM      1  C   UNL     1      -0.023   1.369   0.012  0.00  0.00    +0.022 A 
ATOM      2  C   UNL     1       1.156   2.075  -0.136  0.00  0.00    +0.038 A 
ATOM      3  C   UNL     1       2.366   1.409  -0.152  0.00  0.00    +0.168 A 
ATOM      4  C   UNL     1       2.398   0.027  -0.020  0.00  0.00    +0.162 A 
ATOM      5  C   UNL     1       1.214  -0.680   0.128  0.00  0.00    +0.068 A 
ATOM      6  C   UNL     1       0.006  -0.009   0.144  0.00  0.00    +0.045 A 
ATOM      7 CL   UNL     1      -1.477  -0.893   0.330  0.00  0.00    -0.083 Cl
ENDROOT
BRANCH   3   8
ATOM      8  N   UNL     1       3.627   2.166  -0.311  0.00  0.00    +0.060 N 
ATOM      9  O   UNL     1       3.599   3.369  -0.426  0.00  0.00    -0.126 OA
ATOM     10  O   UNL     1       4.686   1.582  -0.325  0.00  0.00    -0.126 OA
ENDBRANCH   3   8
BRANCH   4  11
ATOM     11  O   UNL     1       3.587  -0.631  -0.036  0.00  0.00    -0.436 OA
BRANCH  11  12
ATOM     12  C   UNL     1       4.256  -0.766   1.137  0.00  0.00    +0.221 A 
ATOM     13  C   UNL     1       5.522  -1.338   1.144  0.00  0.00    +0.069 A 
ATOM     14  C   UNL     1       6.194  -1.469   2.346  0.00  0.00    +0.022 A 
ATOM     15  C   UNL     1       5.573  -1.022   3.505  0.00  0.00    +0.036 A 
ATOM     16  C   UNL     1       4.312  -0.463   3.423  0.00  0.00    +0.130 A 
ATOM     17  N   UNL     1       3.699  -0.347   2.260  0.00  0.00    -0.220 NA
ATOM     18 BR   UNL     1       6.443  -1.176   5.177  0.00  0.00    -0.049 Br
ENDBRANCH  11  12
ENDBRANCH   4  11
TORSDOF 3
