REMARK  Name = ZINC00861539
REMARK  6 active torsions:
REMARK  status: ('A' for Active; 'I' for Inactive)
REMARK    1  A    between atoms: C_1  and  C_2
REMARK    2  A    between atoms: C_3  and  C_18
REMARK    3  A    between atoms: C_4  and  C_10
REMARK    4  A    between atoms: C_18  and  O_20
REMARK    5  A    between atoms: O_20  and  C_21
REMARK    6  A    between atoms: C_21  and  C_22
REMARK                            x       y       z     vdW  Elec       q    Type
REMARK                         _______ _______ _______ _____ _____    ______ ____
ROOT
ATOM      1  C   UNL     1      -0.999   5.063  -2.453  0.00  0.00    +0.061 C 
ATOM      2  C   UNL     1      -0.924   4.229  -1.200  0.00  0.00    +0.018 C 
ATOM      3  C   UNL     1      -1.430   2.985  -1.205  0.00  0.00    +0.061 C 
ATOM      4  C   UNL     1      -1.332   2.113   0.020  0.00  0.00    +0.066 C 
ATOM      5  C   UNL     1      -1.420   2.985   1.274  0.00  0.00    +0.109 C 
ATOM      6  C   UNL     1      -0.502   4.171   1.123  0.00  0.00    +0.218 C 
ATOM      7  O   UNL     1       0.095   4.600   2.088  0.00  0.00    -0.275 OA
ATOM      8  N   UNL     1      -0.342   4.754  -0.078  0.00  0.00    -0.289 N 
ATOM      9  H   UNL     1       0.194   5.559  -0.150  0.00  0.00    +0.155 HD
ENDROOT
BRANCH   4  10
ATOM     10  C   UNL     1      -0.017   1.378   0.010  0.00  0.00    -0.038 A 
ATOM     11  C   UNL     1       1.171   2.087   0.002  0.00  0.00    +0.007 A 
ATOM     12  C   UNL     1       2.378   1.414  -0.013  0.00  0.00    +0.040 A 
ATOM     13  C   UNL     1       2.398   0.030  -0.021  0.00  0.00    +0.137 A 
ATOM     14  C   UNL     1       1.209  -0.679  -0.014  0.00  0.00    +0.053 A 
ATOM     15  C   UNL     1       0.002  -0.004   0.002  0.00  0.00    +0.022 A 
ATOM     16 BR   UNL     1       1.235  -2.570  -0.024  0.00  0.00    -0.047 Br
ATOM     17  F   UNL     1       3.578  -0.628  -0.036  0.00  0.00    -0.204 F 
ENDBRANCH   4  10
BRANCH   3  18
ATOM     18  C   UNL     1      -2.060   2.488  -2.371  0.00  0.00    +0.338 C 
ATOM     19  O   UNL     1      -2.142   3.188  -3.364  0.00  0.00    -0.245 OA
BRANCH  18  20
ATOM     20  O   UNL     1      -2.570   1.239  -2.383  0.00  0.00    -0.457 OA
BRANCH  20  21
ATOM     21  C   UNL     1      -3.192   0.803  -3.594  0.00  0.00    +0.268 C 
BRANCH  21  22
ATOM     22  C   UNL     1      -3.698  -0.606  -3.419  0.00  0.00    -0.010 A 
ATOM     23  C   UNL     1      -2.881  -1.677  -3.731  0.00  0.00    +0.007 A 
ATOM     24  C   UNL     1      -3.344  -2.969  -3.566  0.00  0.00    +0.000 A 
ATOM     25  C   UNL     1      -4.627  -3.190  -3.101  0.00  0.00    +0.000 A 
ATOM     26  C   UNL     1      -5.444  -2.119  -2.794  0.00  0.00    +0.000 A 
ATOM     27  C   UNL     1      -4.980  -0.827  -2.953  0.00  0.00    +0.007 A 
ENDBRANCH  21  22
ENDBRANCH  20  21
ENDBRANCH  18  20
ENDBRANCH   3  18
TORSDOF 5
