REMARK  Name = ZINC59644920
REMARK  10 active torsions:
REMARK  status: ('A' for Active; 'I' for Inactive)
REMARK    1  A    between atoms: C_1  and  C_2
REMARK    2  A    between atoms: C_4  and  C_17
REMARK    3  A    between atoms: C_5  and  C_16
REMARK    4  A    between atoms: N_6  and  C_7
REMARK    5  A    between atoms: C_10  and  C_13
REMARK    6  A    between atoms: C_13  and  C_14
REMARK    7  A    between atoms: C_13  and  C_15
REMARK    8  A    between atoms: N_18  and  N_19
REMARK    9  A    between atoms: C_20  and  C_22
REMARK   10  A    between atoms: C_22  and  C_23
REMARK                            x       y       z     vdW  Elec       q    Type
REMARK                         _______ _______ _______ _____ _____    ______ ____
ROOT
ATOM      1  C   UNL     1      -0.018   1.503   0.010  0.00  0.00    +0.064 C 
ATOM      2  C   UNL     1       0.002  -0.004   0.002  0.00  0.00    +0.022 A 
ATOM      3  C   UNL     1       0.008  -0.781  -1.097  0.00  0.00    +0.032 A 
ATOM      4  C   UNL     1       0.029  -2.170  -0.628  0.00  0.00    +0.016 A 
ATOM      5  C   UNL     1       0.034  -2.113   0.736  0.00  0.00    +0.030 A 
ATOM      6  N   UNL     1       0.024  -0.804   1.109  0.00  0.00    -0.317 N 
ATOM      7  C   UNL     1       0.054  -3.296   1.669  0.00  0.00    +0.064 C 
ENDROOT
BRANCH   6   8
ATOM      8  C   UNL     1       0.030  -0.345   2.433  0.00  0.00    +0.047 A 
ATOM      9  C   UNL     1       1.132  -0.577   3.244  0.00  0.00    +0.026 A 
ATOM     10  C   UNL     1       1.135  -0.123   4.548  0.00  0.00    +0.006 A 
ATOM     11  C   UNL     1       0.042   0.561   5.047  0.00  0.00    -0.045 A 
ATOM     12  C   UNL     1      -1.058   0.793   4.241  0.00  0.00    +0.006 A 
ATOM     13  C   UNL     1      -1.064   0.347   2.934  0.00  0.00    +0.026 A 
BRANCH  11  14
ATOM     14  C   UNL     1       0.049   1.055   6.471  0.00  0.00    +0.013 C 
ATOM     15  C   UNL     1      -0.105   2.577   6.483  0.00  0.00    +0.012 C 
ATOM     16  C   UNL     1      -1.113   0.419   7.236  0.00  0.00    +0.012 C 
ENDBRANCH  11  14
ENDBRANCH   6   8
BRANCH   4  17
ATOM     17  C   UNL     1       0.042  -3.384  -1.463  0.00  0.00    +0.140 C 
ATOM     18  N   UNL     1       0.059  -4.556  -0.904  0.00  0.00    -0.188 NA
BRANCH  18  19
ATOM     19  N   UNL     1       0.071  -5.710  -1.697  0.00  0.00    -0.207 N 
ATOM     20  C   UNL     1       0.090  -6.927  -1.117  0.00  0.00    +0.238 C 
ATOM     21  O   UNL     1       0.096  -7.022   0.093  0.00  0.00    -0.274 OA
ATOM     22  H   UNL     1       0.066  -5.635  -2.664  0.00  0.00    +0.177 HD
BRANCH  20  23
ATOM     23  C   UNL     1       0.103  -8.169  -1.970  0.00  0.00    +0.153 C 
BRANCH  23  24
ATOM     24  C   UNL     1       0.122  -9.387  -1.083  0.00  0.00    +0.059 A 
ATOM     25  C   UNL     1      -0.809 -10.364  -1.203  0.00  0.00    +0.072 A 
ATOM     26  S   UNL     1      -0.273 -11.493   0.072  0.00  0.00    -0.061 S 
ATOM     27  C   UNL     1       1.059 -10.618   0.614  0.00  0.00    +0.156 A 
ATOM     28  N   UNL     1       1.052  -9.553  -0.159  0.00  0.00    -0.230 NA
ATOM     29  N   UNL     1       1.949 -10.942   1.625  0.00  0.00    -0.338 N 
ATOM     30  H   UNL     1       1.841 -11.770   2.120  0.00  0.00    +0.144 HD
ATOM     31  H   UNL     1       2.681 -10.342   1.839  0.00  0.00    +0.144 HD
ENDBRANCH  23  24
ENDBRANCH  20  23
ENDBRANCH  18  19
ENDBRANCH   4  17
TORSDOF 6
