REMARK  Name = ZINC12890289
REMARK  9 active torsions:
REMARK  status: ('A' for Active; 'I' for Inactive)
REMARK    1  A    between atoms: C_1  and  C_2
REMARK    2  A    between atoms: C_5  and  C_8
REMARK    3  A    between atoms: C_8  and  C_36
REMARK    4  A    between atoms: N_11  and  C_15
REMARK    5  A    between atoms: C_15  and  C_16
REMARK    6  A    between atoms: N_21  and  S_24
REMARK    7  A    between atoms: S_24  and  C_27
REMARK    8  A    between atoms: C_30  and  C_33
REMARK    9  A    between atoms: C_33  and  C_35
REMARK                            x       y       z     vdW  Elec       q    Type
REMARK                         _______ _______ _______ _____ _____    ______ ____
ROOT
ATOM      1  C   UNL     1       0.603   2.542  -4.264  0.00  0.00    +0.234 C 
ATOM      2  O   UNL     1       0.975   1.413  -4.024  0.00  0.00    -0.274 OA
ATOM      3  N   UNL     1       0.546   2.975  -5.539  0.00  0.00    -0.298 N 
ATOM      4  C   UNL     1       0.092   4.339  -5.846  0.00  0.00    +0.125 C 
ATOM      5  C   UNL     1       1.182   5.038  -6.676  0.00  0.00    +0.128 C 
ATOM      6  N   UNL     1       1.566   4.153  -7.785  0.00  0.00    -0.174 NA
ATOM      7  C   UNL     1       2.015   2.788  -7.478  0.00  0.00    +0.128 C 
ATOM      8  C   UNL     1       0.930   2.090  -6.648  0.00  0.00    +0.125 C 
ENDROOT
BRANCH   6   9
ATOM      9  S   UNL     1       1.494   4.685  -9.351  0.00  0.00    +0.061 S 
ATOM     10  O   UNL     1       1.587   6.102  -9.304  0.00  0.00    -0.153 OA
ATOM     11  O   UNL     1       2.406   3.887 -10.094  0.00  0.00    -0.153 OA
BRANCH   9  12
ATOM     12  C   UNL     1      -0.116   4.305  -9.957  0.00  0.00    +0.106 A 
ATOM     13  C   UNL     1      -0.348   3.091 -10.580  0.00  0.00    +0.029 A 
ATOM     14  C   UNL     1      -1.607   2.784 -11.053  0.00  0.00    +0.013 A 
ATOM     15  C   UNL     1      -2.647   3.708 -10.911  0.00  0.00    +0.017 A 
ATOM     16  C   UNL     1      -2.403   4.935 -10.285  0.00  0.00    +0.013 A 
ATOM     17  C   UNL     1      -1.140   5.225  -9.813  0.00  0.00    +0.029 A 
BRANCH  15  18
ATOM     18  C   UNL     1      -3.993   3.391 -11.416  0.00  0.00    +0.160 C 
ATOM     19  O   UNL     1      -4.893   4.194 -11.291  0.00  0.00    -0.292 OA
ATOM     20  C   UNL     1      -4.252   2.067 -12.089  0.00  0.00    +0.091 C 
ENDBRANCH  15  18
ENDBRANCH   9  12
ENDBRANCH   6   9
BRANCH   1  21
ATOM     21  C   UNL     1       0.206   3.461  -3.138  0.00  0.00    +0.213 C 
BRANCH  21  25
ATOM     22  C   UNL     1      -0.018   1.503   0.010  0.00  0.00    +0.135 C 
ATOM     23  C   UNL     1      -0.619   2.035  -1.276  0.00  0.00    +0.251 C 
ATOM     24  O   UNL     1      -1.742   1.847  -1.692  0.00  0.00    -0.272 OA
ATOM     25  N   UNL     1       0.355   2.760  -1.860  0.00  0.00    -0.215 N 
ATOM     26  C   UNL     1       1.476   2.759  -1.130  0.00  0.00    +0.310 C 
ATOM     27  O   UNL     1       2.492   3.344  -1.451  0.00  0.00    -0.252 OA
ATOM     28  N   UNL     1       1.353   2.040   0.000  0.00  0.00    -0.281 N 
ATOM     29  C   UNL     1      -0.791   2.022   1.224  0.00  0.00    +0.047 C 
ATOM     30  H   UNL     1       2.035   1.901   0.676  0.00  0.00    +0.152 HD
BRANCH  22  35
ATOM     31  C   UNL     1       0.060  -4.275  -0.021  0.00  0.00    +0.044 C 
ATOM     32  C   UNL     1       0.039  -2.768  -0.013  0.00  0.00    -0.050 A 
ATOM     33  C   UNL     1       1.057  -2.067   0.606  0.00  0.00    +0.004 A 
ATOM     34  C   UNL     1       1.038  -0.685   0.613  0.00  0.00    +0.006 A 
ATOM     35  C   UNL     1       0.002  -0.004   0.002  0.00  0.00    -0.015 A 
ATOM     36  C   UNL     1      -1.018  -0.706  -0.612  0.00  0.00    +0.006 A 
ATOM     37  C   UNL     1      -0.998  -2.088  -0.623  0.00  0.00    +0.004 A 
ENDBRANCH  22  35
ENDBRANCH  21  25
ENDBRANCH   1  21
TORSDOF 6
