REMARK  Name = ZINC33551973
REMARK  10 active torsions:
REMARK  status: ('A' for Active; 'I' for Inactive)
REMARK    1  A    between atoms: C_1  and  C_2
REMARK    2  A    between atoms: C_2  and  O_3
REMARK    3  A    between atoms: O_3  and  C_4
REMARK    4  A    between atoms: C_14  and  C_28
REMARK    5  A    between atoms: C_16  and  C_21
REMARK    6  A    between atoms: C_21  and  C_23
REMARK    7  A    between atoms: C_31  and  O_37
REMARK    8  A    between atoms: C_32  and  O_34
REMARK    9  A    between atoms: O_34  and  C_35
REMARK   10  A    between atoms: C_35  and  C_36
REMARK                            x       y       z     vdW  Elec       q    Type
REMARK                         _______ _______ _______ _____ _____    ______ ____
ROOT
ATOM      1  C   UNL     1      -9.452  -1.828  -0.659  0.00  0.00    +0.122 A 
ATOM      2  C   UNL     1      -8.203  -2.425  -0.516  0.00  0.00    +0.048 A 
ATOM      3  C   UNL     1      -7.069  -1.684  -0.397  0.00  0.00    +0.032 A 
ATOM      4  C   UNL     1      -7.119  -0.271  -0.412  0.00  0.00    +0.081 A 
ATOM      5  C   UNL     1      -8.400   0.308  -0.559  0.00  0.00    +0.044 A 
ATOM      6  C   UNL     1      -9.542  -0.444  -0.680  0.00  0.00    +0.063 A 
ATOM      7  S   UNL     1      -8.035   2.047  -0.532  0.00  0.00    -0.052 S 
ATOM      8  C   UNL     1      -6.265   1.902  -0.335  0.00  0.00    +0.169 A 
ATOM      9  N   UNL     1      -6.091   0.601  -0.310  0.00  0.00    -0.224 NA
ATOM     10  N   UNL     1      -5.317   2.906  -0.238  0.00  0.00    -0.232 N 
ATOM     11  C   UNL     1      -3.870   2.716  -0.083  0.00  0.00    +0.152 C 
ATOM     12  C   UNL     1      -3.269   4.101  -0.022  0.00  0.00    +0.080 C 
ATOM     13  C   UNL     1      -4.294   4.977  -0.142  0.00  0.00    +0.250 C 
ATOM     14  C   UNL     1      -5.559   4.229  -0.276  0.00  0.00    +0.293 C 
ATOM     15  O   UNL     1      -6.657   4.734  -0.401  0.00  0.00    -0.266 OA
ATOM     16  O   UNL     1      -4.177   6.326  -0.140  0.00  0.00    -0.282 OA
ENDROOT
BRANCH  11  17
ATOM     17  C   UNL     1      -3.582   1.969   1.193  0.00  0.00    -0.018 A 
ATOM     18  C   UNL     1      -2.871   0.784   1.153  0.00  0.00    +0.009 A 
ATOM     19  C   UNL     1      -2.600   0.097   2.322  0.00  0.00    +0.049 A 
ATOM     20  C   UNL     1      -3.050   0.591   3.536  0.00  0.00    +0.158 A 
ATOM     21  C   UNL     1      -3.770   1.781   3.576  0.00  0.00    +0.162 A 
ATOM     22  C   UNL     1      -4.034   2.467   2.401  0.00  0.00    +0.055 A 
BRANCH  20  23
ATOM     23  O   UNL     1      -2.789  -0.086   4.686  0.00  0.00    -0.503 OA
ATOM     24  H   UNL     1      -3.147   0.307   5.649  0.00  0.00    +0.292 HD
ENDBRANCH  20  23
BRANCH  21  25
ATOM     25  O   UNL     1      -4.214   2.270   4.765  0.00  0.00    -0.489 OA
BRANCH  25  26
ATOM     26  C   UNL     1      -4.841   3.554   4.745  0.00  0.00    +0.226 C 
ATOM     27  C   UNL     1      -5.164   3.985   6.177  0.00  0.00    +0.048 C 
ENDBRANCH  25  26
ENDBRANCH  21  25
ENDBRANCH  11  17
BRANCH  12  28
ATOM     28  C   UNL     1      -1.848   4.433   0.133  0.00  0.00    +0.230 C 
ATOM     29  O   UNL     1      -1.504   5.594   0.269  0.00  0.00    -0.283 OA
BRANCH  28  30
ATOM     30  C   UNL     1      -0.842   3.367   0.123  0.00  0.00    +0.175 A 
ATOM     31  C   UNL     1       0.503   3.518   0.383  0.00  0.00    +0.053 A 
ATOM     32  C   UNL     1       1.079   2.245   0.262  0.00  0.00    +0.042 A 
ATOM     33  C   UNL     1       0.085   1.386  -0.059  0.00  0.00    +0.196 A 
ATOM     34  O   UNL     1      -1.066   2.064  -0.147  0.00  0.00    -0.460 OA
ENDBRANCH  28  30
ENDBRANCH  12  28
BRANCH   1  35
ATOM     35  O   UNL     1     -10.570  -2.592  -0.778  0.00  0.00    -0.492 OA
BRANCH  35  37
ATOM     36  C   UNL     1     -11.753  -4.697  -0.894  0.00  0.00    +0.048 C 
ATOM     37  C   UNL     1     -10.393  -4.010  -0.748  0.00  0.00    +0.225 C 
ENDBRANCH  35  37
ENDBRANCH   1  35
TORSDOF 8
