REMARK  Name = ZINC56796320
REMARK  8 active torsions:
REMARK  status: ('A' for Active; 'I' for Inactive)
REMARK    1  A    between atoms: C_1  and  N_2
REMARK    2  A    between atoms: N_2  and  C_3
REMARK    3  A    between atoms: C_3  and  C_4
REMARK    4  A    between atoms: C_8  and  C_10
REMARK    5  A    between atoms: N_15  and  C_16
REMARK    6  A    between atoms: C_16  and  C_17
REMARK    7  A    between atoms: C_17  and  C_19
REMARK    8  A    between atoms: C_17  and  N_24
REMARK                            x       y       z     vdW  Elec       q    Type
REMARK                         _______ _______ _______ _____ _____    ______ ____
ROOT
ATOM      1  C   UNL     1       0.271   1.479  -0.013  0.00  0.00    +0.134 C 
ATOM      2  N   UNL     1       0.426   0.023  -0.031  0.00  0.00    -0.284 N 
ATOM      3  C   UNL     1       0.326  -0.651  -1.194  0.00  0.00    +0.302 C 
ATOM      4  O   UNL     1       0.454  -1.860  -1.209  0.00  0.00    -0.253 OA
ATOM      5  N   UNL     1       0.083   0.015  -2.340  0.00  0.00    -0.300 N 
ATOM      6  H   UNL     1      -0.020   0.980  -2.328  0.00  0.00    +0.150 HD
ENDROOT
BRANCH   2   7
ATOM      7  C   UNL     1       0.690  -0.702   1.215  0.00  0.00    +0.144 C 
BRANCH   7   8
ATOM      8  C   UNL     1      -0.617  -1.101   1.850  0.00  0.00    -0.029 A 
ATOM      9  C   UNL     1      -1.240  -0.247   2.743  0.00  0.00    +0.005 A 
ATOM     10  C   UNL     1      -2.440  -0.607   3.330  0.00  0.00    +0.001 A 
ATOM     11  C   UNL     1      -3.023  -1.820   3.029  0.00  0.00    +0.013 A 
ATOM     12  C   UNL     1      -2.400  -2.686   2.129  0.00  0.00    +0.037 A 
ATOM     13  C   UNL     1      -1.192  -2.315   1.536  0.00  0.00    +0.018 A 
BRANCH  12  14
ATOM     14  C   UNL     1      -3.019  -3.988   1.802  0.00  0.00    +0.242 C 
ATOM     15  O   UNL     1      -2.474  -4.741   1.018  0.00  0.00    -0.270 OA
ATOM     16  N   UNL     1      -4.187  -4.342   2.373  0.00  0.00    -0.325 N 
ATOM     17  H   UNL     1      -4.622  -3.741   2.998  0.00  0.00    +0.145 HD
ATOM     18  H   UNL     1      -4.593  -5.196   2.158  0.00  0.00    +0.145 HD
ENDBRANCH  12  14
ENDBRANCH   7   8
ENDBRANCH   2   7
BRANCH   5  19
ATOM     19  C   UNL     1      -0.026  -0.717  -3.604  0.00  0.00    +0.095 C 
BRANCH  19  20
ATOM     20  C   UNL     1      -0.173   0.277  -4.758  0.00  0.00    -0.013 C 
BRANCH  20  21
ATOM     21  N   UNL     1      -0.415  -0.456  -6.008  0.00  0.00    +0.386 N 
ATOM     22  C   UNL     1      -0.462   0.493  -7.141  0.00  0.00    -0.078 C 
ATOM     23  C   UNL     1      -1.542  -0.079  -8.092  0.00  0.00    -0.020 C 
ATOM     24  C   UNL     1      -2.586  -0.630  -7.085  0.00  0.00    -0.020 C 
ATOM     25  C   UNL     1      -1.709  -1.157  -5.929  0.00  0.00    -0.078 C 
ATOM     26  H   UNL     1       0.325  -1.126  -6.159  0.00  0.00    -0.081 HD
ENDBRANCH  20  21
BRANCH  20  27
ATOM     27  C   UNL     1       1.092   1.086  -4.888  0.00  0.00    -0.022 A 
ATOM     28  C   UNL     1       1.353   2.339  -4.441  0.00  0.00    +0.009 A 
ATOM     29  C   UNL     1       2.599   2.889  -4.676  0.00  0.00    +0.008 A 
ATOM     30  C   UNL     1       3.523   2.159  -5.347  0.00  0.00    +0.045 A 
ATOM     31  S   UNL     1       2.637   0.641  -5.663  0.00  0.00    -0.103 S 
ENDBRANCH  20  27
ENDBRANCH  19  20
ENDBRANCH   5  19
TORSDOF 7
