REMARK  Name = ZINC20693400
REMARK  9 active torsions:
REMARK  status: ('A' for Active; 'I' for Inactive)
REMARK    1  A    between atoms: C_1  and  C_2
REMARK    2  A    between atoms: C_2  and  C_3
REMARK    3  A    between atoms: C_2  and  C_4
REMARK    4  A    between atoms: C_4  and  O_5
REMARK    5  A    between atoms: O_5  and  C_6
REMARK    6  A    between atoms: C_13  and  C_22
REMARK    7  A    between atoms: C_25  and  O_30
REMARK    8  A    between atoms: C_26  and  O_28
REMARK    9  A    between atoms: O_28  and  C_29
REMARK                            x       y       z     vdW  Elec       q    Type
REMARK                         _______ _______ _______ _____ _____    ______ ____
ROOT
ATOM      1  C   UNL     1      -3.894   0.227  -0.851  0.00  0.00    +0.142 A 
ATOM      2  C   UNL     1      -4.286  -0.038  -2.148  0.00  0.00    +0.047 A 
ATOM      3  C   UNL     1      -3.435   0.242  -3.202  0.00  0.00    +0.004 A 
ATOM      4  C   UNL     1      -2.193   0.794  -2.951  0.00  0.00    +0.006 A 
ATOM      5  C   UNL     1      -1.795   1.067  -1.658  0.00  0.00    -0.016 A 
ATOM      6  C   UNL     1      -2.635   0.778  -0.582  0.00  0.00    +0.074 A 
ATOM      7  N   UNL     1      -2.293   0.984   0.756  0.00  0.00    -0.334 N 
ATOM      8  C   UNL     1      -0.993   1.620   1.032  0.00  0.00    +0.105 C 
ATOM      9  C   UNL     1      -0.013   1.086   0.008  0.00  0.00    +0.029 C 
ATOM     10  C   UNL     1      -0.477   1.671  -1.362  0.00  0.00    +0.049 C 
ATOM     11  C   UNL     1       0.708   1.472  -2.232  0.00  0.00    -0.023 C 
ATOM     12  C   UNL     1       1.797   1.489  -1.471  0.00  0.00    -0.030 C 
ATOM     13  C   UNL     1       1.405   1.668  -0.002  0.00  0.00    +0.033 C 
ATOM     14  H   UNL     1      -2.950   0.692   1.588  0.00  0.00    +0.147 HD
ENDROOT
BRANCH   8  15
ATOM     15  C   UNL     1      -0.505   1.308   2.423  0.00  0.00    -0.023 A 
ATOM     16  C   UNL     1      -0.698   0.046   2.954  0.00  0.00    +0.009 A 
ATOM     17  C   UNL     1      -0.252  -0.245   4.230  0.00  0.00    +0.049 A 
ATOM     18  C   UNL     1       0.391   0.728   4.979  0.00  0.00    +0.158 A 
ATOM     19  C   UNL     1       0.586   1.997   4.443  0.00  0.00    +0.162 A 
ATOM     20  C   UNL     1       0.141   2.281   3.162  0.00  0.00    +0.054 A 
BRANCH  19  21
ATOM     21  O   UNL     1       1.215   2.956   5.174  0.00  0.00    -0.491 OA
ATOM     22  C   UNL     1       1.381   4.236   4.561  0.00  0.00    +0.277 C 
ENDBRANCH  19  21
BRANCH  18  23
ATOM     23  O   UNL     1       0.830   0.443   6.234  0.00  0.00    -0.503 OA
ATOM     24  H   UNL     1       1.340   1.216   6.827  0.00  0.00    +0.292 HD
ENDBRANCH  18  23
ENDBRANCH   8  15
BRANCH   1  25
ATOM     25  O   UNL     1      -4.739  -0.053   0.177  0.00  0.00    -0.490 OA
BRANCH  25  26
ATOM     26  C   UNL     1      -6.009  -0.615  -0.161  0.00  0.00    +0.232 C 
BRANCH  26  28
ATOM     27  C   UNL     1      -7.131   0.482   1.784  0.00  0.00    +0.010 C 
ATOM     28  C   UNL     1      -6.816  -0.858   1.116  0.00  0.00    +0.020 C 
ATOM     29  C   UNL     1      -8.122  -1.573   0.765  0.00  0.00    +0.010 C 
ENDBRANCH  26  28
ENDBRANCH  25  26
ENDBRANCH   1  25
TORSDOF 6
