REMARK  Name = ZINC34787361
REMARK  11 active torsions:
REMARK  status: ('A' for Active; 'I' for Inactive)
REMARK    1  A    between atoms: C_1  and  C_2
REMARK    2  A    between atoms: C_2  and  C_3
REMARK    3  A    between atoms: C_4  and  C_35
REMARK    4  A    between atoms: C_8  and  N_19
REMARK    5  A    between atoms: C_13  and  C_18
REMARK    6  A    between atoms: C_15  and  C_17
REMARK    7  A    between atoms: N_19  and  N_20
REMARK    8  A    between atoms: N_19  and  N_28
REMARK    9  A    between atoms: N_20  and  C_21
REMARK   10  A    between atoms: C_26  and  C_27
REMARK   11  A    between atoms: N_28  and  C_29
REMARK                            x       y       z     vdW  Elec       q    Type
REMARK                         _______ _______ _______ _____ _____    ______ ____
ROOT
ATOM      1  C   UNL     1      -1.364   1.767  -0.385  0.00  0.00    -0.025 A 
ATOM      2  C   UNL     1      -1.969   2.478   0.577  0.00  0.00    -0.007 A 
ATOM      3  S   UNL     1      -3.404   1.499   0.979  0.00  0.00    -0.073 S 
ATOM      4  C   UNL     1      -3.151   0.160  -0.156  0.00  0.00    +0.116 A 
ATOM      5  C   UNL     1      -1.958   0.516  -0.823  0.00  0.00    +0.054 A 
ATOM      6  C   UNL     1      -1.515  -0.402  -1.815  0.00  0.00    +0.167 A 
ATOM      7  N   UNL     1      -2.225  -1.493  -2.050  0.00  0.00    -0.192 NA
ATOM      8  C   UNL     1      -3.342  -1.763  -1.389  0.00  0.00    +0.254 A 
ATOM      9  N   UNL     1      -3.798  -0.951  -0.447  0.00  0.00    -0.203 NA
ATOM     10  N   UNL     1      -4.046  -2.931  -1.684  0.00  0.00    -0.202 N 
ATOM     11  C   UNL     1      -5.202  -3.339  -1.098  0.00  0.00    +0.045 A 
ATOM     12  C   UNL     1      -5.555  -4.516  -1.664  0.00  0.00    +0.048 A 
ATOM     13  C   UNL     1      -4.589  -4.840  -2.624  0.00  0.00    +0.061 A 
ATOM     14  N   UNL     1      -3.689  -3.890  -2.641  0.00  0.00    -0.169 NA
ATOM     15  C   UNL     1      -4.589  -6.070  -3.494  0.00  0.00    +0.067 C 
ATOM     16  C   UNL     1      -5.955  -2.612  -0.014  0.00  0.00    +0.066 C 
ATOM     17  C   UNL     1      -1.539   3.792   1.177  0.00  0.00    +0.052 C 
ENDROOT
BRANCH   1  19
ATOM     18  C   UNL     1      -0.338   3.610  -1.688  0.00  0.00    +0.009 C 
ATOM     19  C   UNL     1      -0.085   2.263  -1.009  0.00  0.00    +0.033 C 
ENDBRANCH   1  19
BRANCH   6  20
ATOM     20  N   UNL     1      -0.355  -0.156  -2.527  0.00  0.00    -0.166 N 
BRANCH  20  21
ATOM     21  N   UNL     1       0.889  -0.234  -1.888  0.00  0.00    -0.249 N 
ATOM     22  H   UNL     1       1.371   0.577  -1.664  0.00  0.00    +0.172 HD
BRANCH  21  23
ATOM     23  C   UNL     1       1.435  -1.481  -1.573  0.00  0.00    +0.049 A 
ATOM     24  C   UNL     1       0.801  -2.644  -1.991  0.00  0.00    +0.025 A 
ATOM     25  C   UNL     1       1.344  -3.875  -1.679  0.00  0.00    +0.002 A 
ATOM     26  C   UNL     1       2.518  -3.950  -0.951  0.00  0.00    +0.000 A 
ATOM     27  C   UNL     1       3.151  -2.794  -0.533  0.00  0.00    +0.005 A 
ATOM     28  C   UNL     1       2.617  -1.560  -0.847  0.00  0.00    -0.028 A 
ATOM     29  C   UNL     1       3.311  -0.300  -0.397  0.00  0.00    +0.046 C 
ENDBRANCH  21  23
ENDBRANCH  20  21
BRANCH  20  30
ATOM     30  N   UNL     1      -0.423   0.163  -3.854  0.00  0.00    -0.218 NA
ATOM     31  H   UNL     1      -1.059  -0.449  -4.341  0.00  0.00    +0.146 HD
BRANCH  30  32
ATOM     32  C   UNL     1      -0.801   1.571  -4.038  0.00  0.00    +0.075 C 
ATOM     33  C   UNL     1      -2.316   1.670  -4.234  0.00  0.00    +0.020 C 
ATOM     34  C   UNL     1      -2.710   3.135  -4.426  0.00  0.00    +0.002 C 
ATOM     35  C   UNL     1      -1.998   3.698  -5.658  0.00  0.00    +0.000 C 
ATOM     36  C   UNL     1      -0.484   3.599  -5.461  0.00  0.00    +0.002 C 
ATOM     37  C   UNL     1      -0.089   2.134  -5.269  0.00  0.00    +0.020 C 
ENDBRANCH  30  32
ENDBRANCH  20  30
ENDBRANCH   6  20
TORSDOF 6
