REMARK  Name = ZINC07843704
REMARK  4 active torsions:
REMARK  status: ('A' for Active; 'I' for Inactive)
REMARK    1  A    between atoms: C_1  and  O_2
REMARK    2  A    between atoms: O_2  and  C_3
REMARK    3  A    between atoms: C_7  and  N_9
REMARK    4  A    between atoms: C_12  and  C_15
REMARK                            x       y       z     vdW  Elec       q    Type
REMARK                         _______ _______ _______ _____ _____    ______ ____
ROOT
ATOM      1  N   UNL     1       2.528   5.483   0.008  0.00  0.00    -0.294 N 
ATOM      2  C   UNL     1       3.753   6.125   0.105  0.00  0.00    +0.163 A 
ATOM      3  N   UNL     1       4.015   7.415   0.212  0.00  0.00    -0.225 NA
ATOM      4  C   UNL     1       5.261   7.858   0.300  0.00  0.00    +0.080 A 
ATOM      5  C   UNL     1       6.294   6.966   0.267  0.00  0.00    +0.076 A 
ATOM      6  S   UNL     1       5.399   5.426   0.111  0.00  0.00    -0.060 S 
ATOM      7  H   UNL     1       1.714   6.003  -0.074  0.00  0.00    +0.154 HD
ENDROOT
BRANCH   4   8
ATOM      8  C   UNL     1       5.531   9.312   0.426  0.00  0.00    +0.003 A 
ATOM      9  C   UNL     1       6.843   9.782   0.406  0.00  0.00    +0.014 A 
ATOM     10  C   UNL     1       7.096  11.134   0.522  0.00  0.00    +0.048 A 
ATOM     11  C   UNL     1       6.046  12.027   0.659  0.00  0.00    +0.142 A 
ATOM     12  C   UNL     1       4.731  11.562   0.681  0.00  0.00    +0.076 A 
ATOM     13  C   UNL     1       4.472  10.209   0.558  0.00  0.00    +0.037 A 
ATOM     14  N   UNL     1       3.682  12.481   0.822  0.00  0.00    -0.280 N 
ATOM     15  C   UNL     1       3.928  13.793   0.617  0.00  0.00    +0.255 C 
ATOM     16  O   UNL     1       3.042  14.609   0.762  0.00  0.00    -0.272 OA
ATOM     17  C   UNL     1       5.308  14.239   0.207  0.00  0.00    +0.325 C 
ATOM     18  O   UNL     1       6.285  13.362   0.773  0.00  0.00    -0.481 OA
ATOM     19  H   UNL     1       2.792  12.179   1.063  0.00  0.00    +0.155 HD
ENDBRANCH   4   8
BRANCH   1  24
ATOM     20  C   UNL     1       3.316   1.978   0.802  0.00  0.00    +0.122 A 
ATOM     21  C   UNL     1       2.344   1.319   0.061  0.00  0.00    +0.046 A 
ATOM     22  C   UNL     1       1.433   2.042  -0.685  0.00  0.00    +0.005 A 
ATOM     23  C   UNL     1       1.493   3.422  -0.706  0.00  0.00    +0.023 A 
ATOM     24  C   UNL     1       2.467   4.087   0.029  0.00  0.00    +0.036 A 
ATOM     25  C   UNL     1       3.379   3.362   0.784  0.00  0.00    +0.069 A 
BRANCH  20  27
ATOM     26  C   UNL     1       4.082  -0.158   1.511  0.00  0.00    +0.277 C 
ATOM     27  O   UNL     1       4.207   1.266   1.540  0.00  0.00    -0.495 OA
ENDBRANCH  20  27
ENDBRANCH   1  24
TORSDOF 3
