REMARK  Name = ZINC63708475
REMARK  8 active torsions:
REMARK  status: ('A' for Active; 'I' for Inactive)
REMARK    1  A    between atoms: C_1  and  C_2
REMARK    2  A    between atoms: C_4  and  N_8
REMARK    3  A    between atoms: C_9  and  C_11
REMARK    4  A    between atoms: C_11  and  S_12
REMARK    5  A    between atoms: S_12  and  C_13
REMARK    6  A    between atoms: N_24  and  N_25
REMARK    7  A    between atoms: C_26  and  C_28
REMARK    8  A    between atoms: C_28  and  C_29
REMARK                            x       y       z     vdW  Elec       q    Type
REMARK                         _______ _______ _______ _____ _____    ______ ____
ROOT
ATOM      1  C   UNL     1      -2.860  -7.353   3.444  0.00  0.00    +0.241 C 
ATOM      2  N   UNL     1      -1.692  -7.397   4.330  0.00  0.00    -0.316 N 
ATOM      3  C   UNL     1      -1.292  -6.229   4.969  0.00  0.00    +0.041 A 
ATOM      4  C   UNL     1       0.030  -6.004   5.316  0.00  0.00    +0.024 A 
ATOM      5  C   UNL     1       0.378  -4.832   5.959  0.00  0.00    +0.002 A 
ATOM      6  C   UNL     1      -0.585  -3.881   6.260  0.00  0.00    +0.001 A 
ATOM      7  C   UNL     1      -1.905  -4.088   5.918  0.00  0.00    +0.015 A 
ATOM      8  C   UNL     1      -2.269  -5.263   5.264  0.00  0.00    +0.059 A 
ATOM      9  C   UNL     1      -3.661  -5.519   4.856  0.00  0.00    +0.267 C 
ATOM     10  O   UNL     1      -4.557  -4.790   5.236  0.00  0.00    -0.268 OA
ATOM     11  N   UNL     1      -3.931  -6.568   4.059  0.00  0.00    -0.186 N 
ATOM     12  H   UNL     1      -1.207  -8.226   4.468  0.00  0.00    +0.149 HD
ENDROOT
BRANCH  11  13
ATOM     13  N   UNL     1      -5.266  -6.913   3.812  0.00  0.00    -0.229 N 
ATOM     14  C   UNL     1      -5.988  -7.536   4.765  0.00  0.00    +0.234 C 
ATOM     15  O   UNL     1      -5.482  -7.798   5.835  0.00  0.00    -0.274 OA
ATOM     16  H   UNL     1      -5.671  -6.704   2.956  0.00  0.00    +0.173 HD
BRANCH  14  17
ATOM     17  C   UNL     1      -7.424  -7.907   4.499  0.00  0.00    +0.132 C 
BRANCH  17  18
ATOM     18  C   UNL     1      -8.000  -8.587   5.715  0.00  0.00    -0.039 A 
ATOM     19  C   UNL     1      -7.906  -9.960   5.848  0.00  0.00    +0.004 A 
ATOM     20  C   UNL     1      -8.434 -10.584   6.963  0.00  0.00    +0.000 A 
ATOM     21  C   UNL     1      -9.056  -9.835   7.945  0.00  0.00    +0.000 A 
ATOM     22  C   UNL     1      -9.149  -8.462   7.812  0.00  0.00    +0.000 A 
ATOM     23  C   UNL     1      -8.617  -7.838   6.699  0.00  0.00    +0.004 A 
ENDBRANCH  17  18
ENDBRANCH  14  17
ENDBRANCH  11  13
BRANCH   1  24
ATOM     24  S   UNL     1      -2.389  -6.593   1.865  0.00  0.00    -0.108 S 
BRANCH  24  25
ATOM     25  C   UNL     1      -1.828  -4.931   2.329  0.00  0.00    +0.168 C 
BRANCH  25  27
ATOM     26  N   UNL     1      -0.946  -2.918   1.194  0.00  0.00    -0.288 N 
ATOM     27  C   UNL     1      -1.402  -4.182   1.093  0.00  0.00    +0.225 C 
ATOM     28  O   UNL     1      -1.470  -4.717   0.006  0.00  0.00    -0.275 OA
ATOM     29  H   UNL     1      -0.891  -2.491   2.063  0.00  0.00    +0.151 HD
BRANCH  26  33
ATOM     30  C   UNL     1      -0.018   1.503   0.010  0.00  0.00    +0.067 C 
ATOM     31  C   UNL     1       0.002  -0.004   0.002  0.00  0.00    +0.060 C 
ATOM     32  C   UNL     1      -1.086  -0.777   0.003  0.00  0.00    +0.045 C 
ATOM     33  C   UNL     1      -0.531  -2.190  -0.007  0.00  0.00    +0.239 C 
ATOM     34  N   UNL     1       0.926  -1.973  -0.013  0.00  0.00    -0.160 NA
ATOM     35  N   UNL     1       1.125  -0.756  -0.013  0.00  0.00    -0.157 NA
ENDBRANCH  26  33
ENDBRANCH  25  27
ENDBRANCH  24  25
ENDBRANCH   1  24
TORSDOF 7
