REMARK  Name = ZINC54333096
REMARK  5 active torsions:
REMARK  status: ('A' for Active; 'I' for Inactive)
REMARK    1  A    between atoms: C_1  and  C_2
REMARK    2  A    between atoms: C_10  and  C_11
REMARK    3  A    between atoms: C_16  and  O_17
REMARK    4  A    between atoms: O_17  and  C_18
REMARK    5  A    between atoms: N_22  and  C_25
REMARK                            x       y       z     vdW  Elec       q    Type
REMARK                         _______ _______ _______ _____ _____    ______ ____
ROOT
ATOM      1  C   UNL     1       0.983   1.398   0.041  0.00  0.00    +0.051 C 
ATOM      2  C   UNL     1       0.925  -0.108   0.056  0.00  0.00    +0.034 A 
ATOM      3  C   UNL     1       1.111  -0.819  -1.122  0.00  0.00    +0.133 A 
ATOM      4  C   UNL     1       1.060  -2.209  -1.120  0.00  0.00    +0.010 A 
ATOM      5  C   UNL     1       0.822  -2.885   0.046  0.00  0.00    +0.024 A 
ATOM      6  C   UNL     1       0.633  -2.182   1.235  0.00  0.00    +0.068 A 
ATOM      7  C   UNL     1       0.690  -0.779   1.248  0.00  0.00    +0.146 A 
ATOM      8  O   UNL     1       0.486  -0.327   2.504  0.00  0.00    -0.451 OA
ATOM      9  C   UNL     1       0.292  -1.341   3.379  0.00  0.00    +0.176 C 
ATOM     10  C   UNL     1       0.060  -1.218   4.712  0.00  0.00    +0.061 C 
ATOM     11  C   UNL     1       0.364  -2.600   2.623  0.00  0.00    +0.231 C 
ATOM     12  O   UNL     1       0.242  -3.735   3.050  0.00  0.00    -0.283 OA
ATOM     13  C   UNL     1       1.269  -2.990  -2.393  0.00  0.00    +0.126 C 
ATOM     14  N   UNL     1       1.094  -2.101  -3.550  0.00  0.00    -0.263 NA
ATOM     15  C   UNL     1       1.886  -0.873  -3.371  0.00  0.00    +0.319 C 
ATOM     16  O   UNL     1       1.342  -0.135  -2.274  0.00  0.00    -0.476 OA
ENDROOT
BRANCH  10  17
ATOM     17  C   UNL     1       0.161   0.096   5.355  0.00  0.00    +0.020 A 
ATOM     18  C   UNL     1       0.142   1.263   4.582  0.00  0.00    +0.011 A 
ATOM     19  C   UNL     1       0.237   2.494   5.194  0.00  0.00    +0.001 A 
ATOM     20  C   UNL     1       0.352   2.583   6.572  0.00  0.00    +0.004 A 
ATOM     21  C   UNL     1       0.373   1.440   7.348  0.00  0.00    +0.046 A 
ATOM     22  C   UNL     1       0.272   0.193   6.753  0.00  0.00    +0.127 A 
BRANCH  22  23
ATOM     23  O   UNL     1       0.286  -0.930   7.515  0.00  0.00    -0.495 OA
ATOM     24  C   UNL     1       0.401  -0.753   8.928  0.00  0.00    +0.277 C 
ENDBRANCH  22  23
ENDBRANCH  10  17
BRANCH  14  25
ATOM     25  C   UNL     1       1.458  -2.784  -4.798  0.00  0.00    +0.060 C 
ATOM     26  C   UNL     1       2.645  -2.229  -5.588  0.00  0.00    +0.020 C 
ATOM     27  C   UNL     1       1.220  -2.033  -6.110  0.00  0.00    +0.020 C 
ENDBRANCH  14  25
TORSDOF 3
