REMARK  Name = ZINC14903732
REMARK  2 active torsions:
REMARK  status: ('A' for Active; 'I' for Inactive)
REMARK    1  A    between atoms: C_9  and  C_12
REMARK    2  A    between atoms: N_20  and  C_21
REMARK                            x       y       z     vdW  Elec       q    Type
REMARK                         _______ _______ _______ _____ _____    ______ ____
ROOT
ATOM      1  C   UNL     1      -0.054   1.122   2.520  0.00  0.00    +0.277 C 
ATOM      2  O   UNL     1       0.620   1.896   3.164  0.00  0.00    -0.268 OA
ATOM      3  N   UNL     1      -0.139  -0.170   2.895  0.00  0.00    -0.269 N 
ATOM      4  C   UNL     1      -0.906  -1.044   2.169  0.00  0.00    +0.096 A 
ATOM      5  C   UNL     1      -0.998  -2.339   2.527  0.00  0.00    +0.018 A 
ATOM      6  C   UNL     1      -0.315  -2.817   3.662  0.00  0.00    +0.005 A 
ATOM      7  C   UNL     1       0.446  -1.969   4.399  0.00  0.00    +0.046 A 
ATOM      8  C   UNL     1       0.542  -0.610   4.013  0.00  0.00    +0.136 A 
ATOM      9  N   UNL     1       1.274   0.227   4.714  0.00  0.00    -0.263 NA
ENDROOT
BRANCH   1  18
ATOM     10  C   UNL     1      -1.927   4.865  -2.253  0.00  0.00    +0.004 A 
ATOM     11  C   UNL     1      -1.944   5.574  -1.066  0.00  0.00    +0.004 A 
ATOM     12  C   UNL     1      -1.576   4.957   0.115  0.00  0.00    +0.049 A 
ATOM     13  C   UNL     1      -1.188   3.625   0.112  0.00  0.00    +0.163 A 
ATOM     14  C   UNL     1      -1.173   2.913  -1.081  0.00  0.00    +0.162 A 
ATOM     15  C   UNL     1      -1.542   3.538  -2.262  0.00  0.00    +0.049 A 
ATOM     16  O   UNL     1      -0.799   1.604  -1.105  0.00  0.00    -0.484 OA
ATOM     17  C   UNL     1      -0.078   1.119   0.033  0.00  0.00    +0.283 C 
ATOM     18  C   UNL     1      -0.796   1.603   1.300  0.00  0.00    +0.299 C 
ATOM     19  O   UNL     1      -0.823   3.034   1.282  0.00  0.00    -0.472 OA
ENDBRANCH   1  18
BRANCH   9  20
ATOM     20  C   UNL     1       1.886  -0.211   5.971  0.00  0.00    +0.108 C 
ATOM     21  C   UNL     1       1.277   0.573   7.135  0.00  0.00    +0.027 C 
ATOM     22  C   UNL     1       1.916   0.116   8.448  0.00  0.00    +0.002 C 
ATOM     23  C   UNL     1       3.424   0.370   8.396  0.00  0.00    +0.000 C 
ATOM     24  C   UNL     1       4.033  -0.414   7.232  0.00  0.00    +0.002 C 
ATOM     25  C   UNL     1       3.394   0.043   5.919  0.00  0.00    +0.027 C 
ENDBRANCH   9  20
TORSDOF 2
