REMARK  Name = ZINC04558343
REMARK  7 active torsions:
REMARK  status: ('A' for Active; 'I' for Inactive)
REMARK    1  A    between atoms: C_1  and  C_2
REMARK    2  A    between atoms: N_4  and  C_5
REMARK    3  A    between atoms: C_11  and  C_32
REMARK    4  A    between atoms: C_21  and  C_31
REMARK    5  A    between atoms: C_24  and  O_27
REMARK    6  A    between atoms: O_27  and  C_28
REMARK    7  A    between atoms: C_28  and  C_30
REMARK                            x       y       z     vdW  Elec       q    Type
REMARK                         _______ _______ _______ _____ _____    ______ ____
ROOT
ATOM      1  C   UNL     1      -0.296   2.399  -1.207  0.00  0.00    +0.079 C 
ATOM      2  C   UNL     1       0.565   3.672  -1.016  0.00  0.00    +0.023 C 
ATOM      3  C   UNL     1       1.597   3.343   0.099  0.00  0.00    +0.006 C 
ATOM      4  C   UNL     1       1.514   1.813   0.203  0.00  0.00    +0.000 C 
ATOM      5  C   UNL     1      -0.002   1.565   0.061  0.00  0.00    -0.011 C 
ATOM      6  C   UNL     1      -0.270   0.090  -0.090  0.00  0.00    +0.009 C 
ATOM      7  C   UNL     1       0.512  -0.734   0.939  0.00  0.00    +0.005 C 
ATOM      8  C   UNL     1       1.165   0.116   2.015  0.00  0.00    +0.003 C 
ATOM      9  C   UNL     1       2.104   1.168   1.415  0.00  0.00    +0.000 C 
ATOM     10  C   UNL     1       2.440   2.168   2.527  0.00  0.00    +0.031 C 
ATOM     11  C   UNL     1       3.062   1.392   3.659  0.00  0.00    -0.027 C 
ATOM     12  C   UNL     1       2.866   0.125   3.851  0.00  0.00    -0.064 C 
ATOM     13  C   UNL     1       1.960  -0.735   3.004  0.00  0.00    -0.008 C 
ATOM     14  C   UNL     1       2.806  -1.790   2.304  0.00  0.00    +0.015 C 
ATOM     15  C   UNL     1       4.225  -1.795   2.871  0.00  0.00    +0.046 C 
ATOM     16  C   UNL     1       4.239  -1.845   4.394  0.00  0.00    +0.180 C 
ATOM     17  C   UNL     1       3.606  -0.576   4.977  0.00  0.00    +0.075 C 
ATOM     18  C   UNL     1       0.954  -1.435   3.925  0.00  0.00    +0.016 C 
ATOM     19  C   UNL     1      -0.824   2.180   1.191  0.00  0.00    +0.013 C 
ENDROOT
BRANCH   1  23
ATOM     20  C   UNL     1      -3.782   3.313  -2.489  0.00  0.00    +0.109 C 
ATOM     21  C   UNL     1      -2.317   2.961  -2.440  0.00  0.00    +0.210 C 
ATOM     22  O   UNL     1      -1.679   2.878  -3.468  0.00  0.00    -0.276 OA
ATOM     23  N   UNL     1      -1.716   2.739  -1.254  0.00  0.00    -0.312 N 
ATOM     24  H   UNL     1      -2.227   2.806  -0.432  0.00  0.00    +0.149 HD
ENDBRANCH   1  23
BRANCH  16  25
ATOM     25  O   UNL     1       3.518  -3.016   4.858  0.00  0.00    -0.461 OA
BRANCH  25  26
ATOM     26  C   UNL     1       3.918  -3.557   6.019  0.00  0.00    +0.304 C 
ATOM     27  O   UNL     1       4.841  -3.069   6.627  0.00  0.00    -0.251 OA
ATOM     28  C   UNL     1       3.217  -4.775   6.564  0.00  0.00    +0.136 C 
ENDBRANCH  25  26
ENDBRANCH  16  25
TORSDOF 3
