REMARK  Name = ZINC34748814
REMARK  9 active torsions:
REMARK  status: ('A' for Active; 'I' for Inactive)
REMARK    1  A    between atoms: C_1  and  C_2
REMARK    2  A    between atoms: C_5  and  N_8
REMARK    3  A    between atoms: C_9  and  C_11
REMARK    4  A    between atoms: C_11  and  N_12
REMARK    5  A    between atoms: C_22  and  C_26
REMARK    6  A    between atoms: C_23  and  C_25
REMARK    7  A    between atoms: N_29  and  C_30
REMARK    8  A    between atoms: C_30  and  C_31
REMARK    9  A    between atoms: C_31  and  C_33
REMARK                            x       y       z     vdW  Elec       q    Type
REMARK                         _______ _______ _______ _____ _____    ______ ____
ROOT
ATOM      1  N   UNL     1       1.663  -6.570   2.653  0.00  0.00    +0.387 N 
ATOM      2  C   UNL     1       2.723  -6.292   3.631  0.00  0.00    -0.059 C 
ATOM      3  C   UNL     1       2.364  -6.941   4.971  0.00  0.00    +0.089 C 
ATOM      4  N   UNL     1       2.109  -8.372   4.743  0.00  0.00    -0.304 N 
ATOM      5  C   UNL     1       1.179  -8.747   3.667  0.00  0.00    +0.089 C 
ATOM      6  C   UNL     1       1.595  -8.013   2.388  0.00  0.00    -0.059 C 
ATOM      7  C   UNL     1       2.722  -9.329   5.512  0.00  0.00    +0.202 A 
ATOM      8  N   UNL     1       3.809  -9.923   5.066  0.00  0.00    -0.208 NA
ATOM      9  C   UNL     1       4.424 -10.852   5.788  0.00  0.00    +0.117 A 
ATOM     10  C   UNL     1       3.952 -11.248   7.053  0.00  0.00    +0.075 A 
ATOM     11  C   UNL     1       4.742 -12.276   7.708  0.00  0.00    -0.026 A 
ATOM     12  C   UNL     1       5.828 -12.762   7.089  0.00  0.00    -0.008 A 
ATOM     13  S   UNL     1       5.868 -11.857   5.553  0.00  0.00    -0.073 S 
ATOM     14  C   UNL     1       6.785 -13.819   7.574  0.00  0.00    +0.052 C 
ATOM     15  C   UNL     1       4.347 -12.790   9.069  0.00  0.00    +0.045 C 
ATOM     16  C   UNL     1       2.768 -10.586   7.511  0.00  0.00    +0.264 A 
ATOM     17  O   UNL     1       2.286 -10.864   8.595  0.00  0.00    -0.267 OA
ATOM     18  N   UNL     1       2.199  -9.649   6.731  0.00  0.00    -0.276 N 
ATOM     19  H   UNL     1       0.779  -6.255   3.021  0.00  0.00    -0.081 HD
ENDROOT
BRANCH   1  20
ATOM     20  C   UNL     1       1.954  -5.857   1.402  0.00  0.00    +0.019 C 
BRANCH  20  22
ATOM     21  N   UNL     1       2.140  -3.512   0.636  0.00  0.00    -0.287 N 
ATOM     22  C   UNL     1       1.904  -4.371   1.648  0.00  0.00    +0.201 C 
ATOM     23  O   UNL     1       1.651  -3.948   2.756  0.00  0.00    -0.278 OA
ATOM     24  H   UNL     1       2.276  -3.849  -0.263  0.00  0.00    +0.155 HD
BRANCH  21  29
ATOM     25  C   UNL     1       2.338   2.068   1.640  0.00  0.00    +0.044 C 
ATOM     26  C   UNL     1       2.286   0.585   1.374  0.00  0.00    -0.050 A 
ATOM     27  C   UNL     1       1.404  -0.212   2.080  0.00  0.00    +0.005 A 
ATOM     28  C   UNL     1       1.354  -1.571   1.838  0.00  0.00    +0.023 A 
ATOM     29  C   UNL     1       2.189  -2.136   0.884  0.00  0.00    +0.033 A 
ATOM     30  C   UNL     1       3.072  -1.333   0.175  0.00  0.00    +0.023 A 
ATOM     31  C   UNL     1       3.115   0.026   0.418  0.00  0.00    +0.005 A 
ENDBRANCH  21  29
ENDBRANCH  20  22
ENDBRANCH   1  20
BRANCH  18  32
ATOM     32  C   UNL     1       0.991  -8.964   7.197  0.00  0.00    +0.158 C 
BRANCH  32  33
ATOM     33  C   UNL     1      -0.216  -9.812   6.894  0.00  0.00    -0.060 C 
ATOM     34  C   UNL     1      -0.693 -10.622   7.807  0.00  0.00    +0.009 C 
ATOM     35  C   UNL     1      -0.876  -9.730   5.541  0.00  0.00    +0.040 C 
ENDBRANCH  32  33
ENDBRANCH  18  32
TORSDOF 5
