REMARK  Name = ZINC65935808
REMARK  10 active torsions:
REMARK  status: ('A' for Active; 'I' for Inactive)
REMARK    1  A    between atoms: C_1  and  C_2
REMARK    2  A    between atoms: C_2  and  C_3
REMARK    3  A    between atoms: C_2  and  C_4
REMARK    4  A    between atoms: C_5  and  C_11
REMARK    5  A    between atoms: N_7  and  C_9
REMARK    6  A    between atoms: C_11  and  N_12
REMARK    7  A    between atoms: N_12  and  C_13
REMARK    8  A    between atoms: C_13  and  C_14
REMARK    9  A    between atoms: C_14  and  S_15
REMARK   10  A    between atoms: S_15  and  C_18
REMARK                            x       y       z     vdW  Elec       q    Type
REMARK                         _______ _______ _______ _____ _____    ______ ____
ROOT
ATOM      1  N   UNL     1      -0.675  -3.139  -1.930  0.00  0.00    +0.383 N 
ATOM      2  H   UNL     1       0.011  -3.021  -1.199  0.00  0.00    -0.085 HD
ATOM      3  H   UNL     1      -1.373  -3.804  -1.631  0.00  0.00    -0.085 HD
ENDROOT
BRANCH   1   4
ATOM      4  C   UNL     1      -1.317  -1.849  -2.212  0.00  0.00    -0.042 C 
BRANCH   4   6
ATOM      5  C   UNL     1      -1.412  -0.526   0.013  0.00  0.00    +0.068 A 
ATOM      6  C   UNL     1      -1.992  -1.340  -0.965  0.00  0.00    -0.005 A 
ATOM      7  C   UNL     1      -3.271  -1.591  -0.592  0.00  0.00    +0.128 A 
ATOM      8  N   UNL     1      -3.489  -0.957   0.579  0.00  0.00    -0.256 N 
ATOM      9  N   UNL     1      -2.306  -0.299   0.941  0.00  0.00    -0.175 NA
ATOM     10  C   UNL     1      -4.740  -0.959   1.341  0.00  0.00    +0.174 C 
ATOM     11 CL   UNL     1      -4.421  -2.554  -1.465  0.00  0.00    -0.062 Cl
BRANCH   5  13
ATOM     12  C   UNL     1      -0.019   1.526   0.010  0.00  0.00    +0.014 C 
ATOM     13  C   UNL     1       0.002  -0.004   0.002  0.00  0.00    +0.034 C 
ATOM     14  C   UNL     1       0.742  -0.511   1.242  0.00  0.00    +0.014 C 
ENDBRANCH   5  13
ENDBRANCH   4   6
ENDBRANCH   1   4
BRANCH   1  15
ATOM     15  C   UNL     1      -0.016  -3.635  -3.145  0.00  0.00    -0.059 C 
BRANCH  15  16
ATOM     16  C   UNL     1       0.653  -4.979  -2.851  0.00  0.00    +0.153 C 
BRANCH  16  17
ATOM     17  S   UNL     1       1.466  -5.591  -4.353  0.00  0.00    -0.005 S 
ATOM     18  O   UNL     1       0.495  -5.932  -5.332  0.00  0.00    -0.169 OA
ATOM     19  O   UNL     1       2.569  -4.759  -4.685  0.00  0.00    -0.169 OA
BRANCH  17  20
ATOM     20  C   UNL     1       2.188  -7.128  -3.882  0.00  0.00    +0.088 A 
ATOM     21  C   UNL     1       3.476  -7.161  -3.379  0.00  0.00    +0.028 A 
ATOM     22  C   UNL     1       4.043  -8.367  -3.010  0.00  0.00    +0.022 A 
ATOM     23  C   UNL     1       3.322  -9.540  -3.144  0.00  0.00    +0.041 A 
ATOM     24  C   UNL     1       2.034  -9.506  -3.648  0.00  0.00    +0.022 A 
ATOM     25  C   UNL     1       1.466  -8.299  -4.011  0.00  0.00    +0.028 A 
ATOM     26 CL   UNL     1       4.033 -11.054  -2.681  0.00  0.00    -0.084 Cl
ENDBRANCH  17  20
ENDBRANCH  16  17
ENDBRANCH  15  16
ENDBRANCH   1  15
TORSDOF 7
