REMARK  Name = ZINC12565421
REMARK  5 active torsions:
REMARK  status: ('A' for Active; 'I' for Inactive)
REMARK    1  A    between atoms: C_1  and  C_2
REMARK    2  A    between atoms: C_7  and  C_26
REMARK    3  A    between atoms: C_10  and  C_12
REMARK    4  A    between atoms: C_12  and  O_13
REMARK    5  A    between atoms: O_13  and  C_14
REMARK                            x       y       z     vdW  Elec       q    Type
REMARK                         _______ _______ _______ _____ _____    ______ ____
ROOT
ATOM      1  O   UNL     1      -1.378   1.065  -1.055  0.00  0.00    -0.466 OA
ENDROOT
BRANCH   1   2
ATOM      2  C   UNL     1      -1.267   0.389  -2.221  0.00  0.00    +0.226 A 
ATOM      3  C   UNL     1      -1.998   0.789  -3.364  0.00  0.00    +0.065 A 
ATOM      4  C   UNL     1      -2.862   1.891  -3.348  0.00  0.00    +0.035 A 
ATOM      5  C   UNL     1      -3.541   2.230  -4.481  0.00  0.00    +0.043 A 
ATOM      6  C   UNL     1      -3.386   1.494  -5.655  0.00  0.00    +0.042 A 
ATOM      7  C   UNL     1      -2.552   0.416  -5.704  0.00  0.00    +0.068 A 
ATOM      8  C   UNL     1      -1.839   0.040  -4.556  0.00  0.00    +0.096 A 
ATOM      9  N   UNL     1      -1.006  -1.011  -4.550  0.00  0.00    -0.234 NA
ATOM     10  C   UNL     1      -0.354  -1.335  -3.459  0.00  0.00    +0.225 A 
ATOM     11  N   UNL     1      -0.468  -0.661  -2.325  0.00  0.00    -0.201 NA
ATOM     12 CL   UNL     1      -2.375  -0.484  -7.177  0.00  0.00    -0.081 Cl
ATOM     13 CL   UNL     1      -4.612   3.595  -4.462  0.00  0.00    -0.083 Cl
ENDBRANCH   1   2
BRANCH   1  14
ATOM     14  C   UNL     1      -0.602   0.589   0.047  0.00  0.00    +0.326 C 
BRANCH  14  22
ATOM     15  C   UNL     1      -2.020   2.681   3.342  0.00  0.00    +0.028 C 
ATOM     16  C   UNL     1      -0.976   1.619   3.691  0.00  0.00    +0.073 C 
ATOM     17  C   UNL     1       0.127   2.246   4.551  0.00  0.00    +0.022 C 
ATOM     18  C   UNL     1       1.236   1.218   4.780  0.00  0.00    +0.004 C 
ATOM     19  C   UNL     1       1.844   0.812   3.435  0.00  0.00    +0.022 C 
ATOM     20  C   UNL     1       0.758   0.164   2.563  0.00  0.00    +0.073 C 
ATOM     21  N   UNL     1      -0.373   1.096   2.457  0.00  0.00    -0.293 N 
ATOM     22  C   UNL     1      -0.853   1.460   1.251  0.00  0.00    +0.254 C 
ATOM     23  O   UNL     1      -1.486   2.487   1.135  0.00  0.00    -0.272 OA
ATOM     24  C   UNL     1       1.319  -0.121   1.169  0.00  0.00    +0.028 C 
ENDBRANCH  14  22
ENDBRANCH   1  14
TORSDOF 3
