REMARK  Name = ZINC21326497
REMARK  11 active torsions:
REMARK  status: ('A' for Active; 'I' for Inactive)
REMARK    1  A    between atoms: C_1  and  C_2
REMARK    2  A    between atoms: C_2  and  O_3
REMARK    3  A    between atoms: O_3  and  C_4
REMARK    4  A    between atoms: C_6  and  C_11
REMARK    5  A    between atoms: C_9  and  O_10
REMARK    6  A    between atoms: N_12  and  N_13
REMARK    7  A    between atoms: C_17  and  S_20
REMARK    8  A    between atoms: N_18  and  N_19
REMARK    9  A    between atoms: S_20  and  C_21
REMARK   10  A    between atoms: C_21  and  C_22
REMARK   11  A    between atoms: C_26  and  C_28
REMARK                            x       y       z     vdW  Elec       q    Type
REMARK                         _______ _______ _______ _____ _____    ______ ____
ROOT
ATOM      1  N   UNL     1      -0.173  11.072  -2.669  0.00  0.00    -0.204 N 
ATOM      2  C   UNL     1      -0.150   9.874  -1.970  0.00  0.00    +0.254 A 
ATOM      3  N   UNL     1      -0.136   9.743  -0.665  0.00  0.00    -0.109 NA
ATOM      4  N   UNL     1      -0.115   8.374  -0.368  0.00  0.00    -0.119 NA
ATOM      5  C   UNL     1      -0.117   7.713  -1.501  0.00  0.00    +0.210 A 
ATOM      6  N   UNL     1      -0.134   8.622  -2.520  0.00  0.00    -0.211 N 
ATOM      7  H   UNL     1      -0.184  11.067  -3.768  0.00  0.00    +0.177 HD
ENDROOT
BRANCH   6   8
ATOM      8  N   UNL     1      -0.136   8.332  -3.855  0.00  0.00    -0.294 N 
ATOM      9  H   UNL     1      -0.122   7.285  -4.190  0.00  0.00    +0.163 HD
ATOM     10  H   UNL     1      -0.153   9.146  -4.595  0.00  0.00    +0.163 HD
ENDBRANCH   6   8
BRANCH   1  12
ATOM     11  C   UNL     1      -0.202  13.410  -2.628  0.00  0.00    +0.138 C 
ATOM     12  N   UNL     1      -0.181  12.288  -1.974  0.00  0.00    -0.188 NA
BRANCH  11  15
ATOM     13  C   UNL     1      -0.243  17.095  -1.908  0.00  0.00    +0.162 A 
ATOM     14  C   UNL     1      -0.234  15.898  -2.599  0.00  0.00    +0.059 A 
ATOM     15  C   UNL     1      -0.212  14.690  -1.897  0.00  0.00    -0.002 A 
ATOM     16  C   UNL     1      -0.204  14.698  -0.499  0.00  0.00    +0.013 A 
ATOM     17  C   UNL     1      -0.207  15.897   0.183  0.00  0.00    +0.050 A 
ATOM     18  C   UNL     1      -0.230  17.096  -0.515  0.00  0.00    +0.158 A 
BRANCH  18  19
ATOM     19  O   UNL     1      -0.239  18.274   0.163  0.00  0.00    -0.503 OA
ATOM     20  H   UNL     1      -0.229  18.276   1.263  0.00  0.00    +0.292 HD
ENDBRANCH  18  19
BRANCH  13  21
ATOM     21  O   UNL     1      -0.265  18.272  -2.588  0.00  0.00    -0.489 OA
BRANCH  21  23
ATOM     22  C   UNL     1      -0.301  19.610  -4.600  0.00  0.00    +0.048 C 
ATOM     23  C   UNL     1      -0.277  18.197  -4.015  0.00  0.00    +0.226 C 
ENDBRANCH  21  23
ENDBRANCH  13  21
ENDBRANCH  11  15
ENDBRANCH   1  12
BRANCH   5  24
ATOM     24  S   UNL     1      -0.095   5.960  -1.677  0.00  0.00    -0.080 S 
BRANCH  24  25
ATOM     25  C   UNL     1      -0.070   5.347   0.030  0.00  0.00    +0.112 C 
BRANCH  25  26
ATOM     26  C   UNL     1      -0.050   3.840   0.022  0.00  0.00    -0.037 A 
ATOM     27  C   UNL     1       1.157   3.165   0.008  0.00  0.00    +0.004 A 
ATOM     28  C   UNL     1       1.175   1.783   0.000  0.00  0.00    +0.001 A 
ATOM     29  C   UNL     1      -0.013   1.076   0.008  0.00  0.00    +0.003 A 
ATOM     30  C   UNL     1      -1.219   1.750   0.017  0.00  0.00    -0.050 A 
ATOM     31  C   UNL     1      -1.238   3.133   0.030  0.00  0.00    +0.007 A 
ATOM     32  C   UNL     1      -2.514   0.979   0.019  0.00  0.00    +0.044 C 
ENDBRANCH  25  26
ENDBRANCH  24  25
ENDBRANCH   5  24
TORSDOF 9
