REMARK  Name = ZINC09805253
REMARK  6 active torsions:
REMARK  status: ('A' for Active; 'I' for Inactive)
REMARK    1  A    between atoms: C_1  and  C_2
REMARK    2  A    between atoms: C_5  and  C_8
REMARK    3  A    between atoms: C_13  and  C_23
REMARK    4  A    between atoms: C_28  and  O_29
REMARK    5  A    between atoms: O_29  and  C_30
REMARK    6  A    between atoms: C_30  and  C_31
REMARK                            x       y       z     vdW  Elec       q    Type
REMARK                         _______ _______ _______ _____ _____    ______ ____
ROOT
ATOM      1  C   UNL     1      -1.067   2.270  -3.987  0.00  0.00    +0.032 C 
ATOM      2  C   UNL     1      -2.150   2.543  -2.945  0.00  0.00    +0.059 C 
ATOM      3  C   UNL     1      -1.594   2.329  -1.548  0.00  0.00    +0.017 C 
ATOM      4  C   UNL     1      -0.640   1.407  -1.327  0.00  0.00    +0.037 C 
ATOM      5  C   UNL     1      -0.013   1.086   0.008  0.00  0.00    +0.139 C 
ATOM      6  N   UNL     1      -0.691   1.668   1.146  0.00  0.00    -0.331 N 
ATOM      7  C   UNL     1      -0.741   3.050   1.320  0.00  0.00    +0.049 A 
ATOM      8  C   UNL     1      -0.066   3.675   2.356  0.00  0.00    +0.025 A 
ATOM      9  C   UNL     1      -0.051   5.058   2.420  0.00  0.00    +0.002 A 
ATOM     10  C   UNL     1      -0.705   5.811   1.461  0.00  0.00    +0.002 A 
ATOM     11  C   UNL     1      -1.399   5.188   0.438  0.00  0.00    +0.025 A 
ATOM     12  C   UNL     1      -1.430   3.805   0.383  0.00  0.00    +0.052 A 
ATOM     13  N   UNL     1      -2.145   3.115  -0.589  0.00  0.00    -0.316 N 
ATOM     14  C   UNL     1      -0.134   0.636  -2.399  0.00  0.00    +0.163 C 
ATOM     15  O   UNL     1       0.715  -0.203  -2.168  0.00  0.00    -0.292 OA
ATOM     16  C   UNL     1      -0.606   0.818  -3.811  0.00  0.00    +0.088 C 
ATOM     17  H   UNL     1      -1.115   1.088   1.798  0.00  0.00    +0.147 HD
ATOM     18  H   UNL     1      -3.111   3.201  -0.580  0.00  0.00    +0.152 HD
ENDROOT
BRANCH   1  23
ATOM     19  C   UNL     1      -3.222   3.011  -9.297  0.00  0.00    +0.044 C 
ATOM     20  C   UNL     1      -2.660   2.817  -7.912  0.00  0.00    -0.050 A 
ATOM     21  C   UNL     1      -1.593   3.586  -7.486  0.00  0.00    +0.003 A 
ATOM     22  C   UNL     1      -1.077   3.409  -6.216  0.00  0.00    +0.004 A 
ATOM     23  C   UNL     1      -1.629   2.463  -5.372  0.00  0.00    -0.043 A 
ATOM     24  C   UNL     1      -2.692   1.691  -5.800  0.00  0.00    +0.004 A 
ATOM     25  C   UNL     1      -3.210   1.871  -7.069  0.00  0.00    +0.003 A 
ENDBRANCH   1  23
BRANCH   5  26
ATOM     26  C   UNL     1       1.411   1.581  -0.003  0.00  0.00    +0.019 A 
ATOM     27  C   UNL     1       1.815   2.501  -0.950  0.00  0.00    +0.009 A 
ATOM     28  C   UNL     1       3.121   2.956  -0.960  0.00  0.00    +0.001 A 
ATOM     29  C   UNL     1       4.025   2.491  -0.023  0.00  0.00    +0.004 A 
ATOM     30  C   UNL     1       3.625   1.570   0.926  0.00  0.00    +0.046 A 
ATOM     31  C   UNL     1       2.314   1.116   0.942  0.00  0.00    +0.126 A 
BRANCH  31  32
ATOM     32  O   UNL     1       1.917   0.215   1.878  0.00  0.00    -0.487 OA
BRANCH  32  33
ATOM     33  C   UNL     1       2.901  -0.219   2.819  0.00  0.00    +0.264 C 
BRANCH  33  34
ATOM     34  C   UNL     1       2.282  -1.210   3.772  0.00  0.00    -0.010 A 
ATOM     35  C   UNL     1       1.698  -0.768   4.944  0.00  0.00    +0.007 A 
ATOM     36  C   UNL     1       1.126  -1.676   5.816  0.00  0.00    +0.000 A 
ATOM     37  C   UNL     1       1.148  -3.027   5.520  0.00  0.00    +0.000 A 
ATOM     38  C   UNL     1       1.737  -3.468   4.350  0.00  0.00    +0.000 A 
ATOM     39  C   UNL     1       2.304  -2.560   3.476  0.00  0.00    +0.007 A 
ENDBRANCH  33  34
ENDBRANCH  32  33
ENDBRANCH  31  32
ENDBRANCH   5  26
TORSDOF 5
