REMARK  Name = ZINC18257005
REMARK  8 active torsions:
REMARK  status: ('A' for Active; 'I' for Inactive)
REMARK    1  A    between atoms: C_1  and  C_2
REMARK    2  A    between atoms: N_13  and  C_30
REMARK    3  A    between atoms: C_14  and  S_16
REMARK    4  A    between atoms: S_16  and  C_17
REMARK    5  A    between atoms: C_17  and  C_18
REMARK    6  A    between atoms: N_23  and  S_26
REMARK    7  A    between atoms: S_26  and  C_29
REMARK    8  A    between atoms: C_30  and  C_31
REMARK                            x       y       z     vdW  Elec       q    Type
REMARK                         _______ _______ _______ _____ _____    ______ ____
ROOT
ATOM      1  C   UNL     1      -0.195  14.128   0.180  0.00  0.00    +0.008 C 
ATOM      2  C   UNL     1      -0.767  12.737   0.463  0.00  0.00    -0.009 C 
ATOM      3  C   UNL     1      -2.035  12.524  -0.369  0.00  0.00    +0.008 C 
ATOM      4  C   UNL     1      -2.746  11.249   0.084  0.00  0.00    +0.037 C 
ATOM      5  C   UNL     1      -1.747  10.095   0.070  0.00  0.00    -0.023 A 
ATOM      6  C   UNL     1      -0.420  10.334   0.064  0.00  0.00    -0.004 A 
ATOM      7  S   UNL     1       0.336   8.731   0.049  0.00  0.00    -0.073 S 
ATOM      8  C   UNL     1      -1.137   7.741   0.051  0.00  0.00    +0.117 A 
ATOM      9  C   UNL     1      -2.170   8.694   0.062  0.00  0.00    +0.076 A 
ATOM     10  C   UNL     1      -3.501   8.169   0.065  0.00  0.00    +0.263 A 
ATOM     11  O   UNL     1      -4.462   8.920   0.073  0.00  0.00    -0.267 OA
ATOM     12  N   UNL     1      -3.679   6.835   0.057  0.00  0.00    -0.283 N 
ATOM     13  C   UNL     1      -2.616   5.979   0.047  0.00  0.00    +0.173 A 
ATOM     14  N   UNL     1      -1.380   6.436   0.049  0.00  0.00    -0.216 NA
ATOM     15  C   UNL     1       0.263  11.668   0.071  0.00  0.00    +0.046 C 
ENDROOT
BRANCH  13  16
ATOM     16  S   UNL     1      -2.900   4.240   0.039  0.00  0.00    -0.078 S 
BRANCH  16  17
ATOM     17  C   UNL     1      -1.192   3.643   0.028  0.00  0.00    +0.173 C 
BRANCH  17  18
ATOM     18  C   UNL     1      -1.187   2.135   0.019  0.00  0.00    +0.226 C 
ATOM     19  O   UNL     1      -2.236   1.526   0.021  0.00  0.00    -0.275 OA
ATOM     20  N   UNL     1      -0.018   1.465   0.010  0.00  0.00    -0.298 N 
ATOM     21  C   UNL     1       1.260   2.191   0.002  0.00  0.00    +0.125 C 
ATOM     22  C   UNL     1       2.107   1.706   1.185  0.00  0.00    +0.128 C 
ATOM     23  N   UNL     1       2.127   0.236   1.177  0.00  0.00    -0.178 NA
ATOM     24  C   UNL     1       0.849  -0.489   1.185  0.00  0.00    +0.128 C 
ATOM     25  C   UNL     1       0.002  -0.004   0.002  0.00  0.00    +0.125 C 
BRANCH  23  26
ATOM     26  S   UNL     1       3.563  -0.587   1.159  0.00  0.00    +0.029 S 
ATOM     27  O   UNL     1       4.498   0.301   1.758  0.00  0.00    -0.158 OA
ATOM     28  O   UNL     1       3.270  -1.841   1.759  0.00  0.00    -0.158 OA
ATOM     29  C   UNL     1       3.952  -0.810  -0.599  0.00  0.00    +0.215 C 
ENDBRANCH  23  26
ENDBRANCH  17  18
ENDBRANCH  16  17
ENDBRANCH  13  16
BRANCH  12  30
ATOM     30  C   UNL     1      -5.039   6.292   0.059  0.00  0.00    +0.154 C 
BRANCH  30  31
ATOM     31  C   UNL     1      -5.500   6.096   1.481  0.00  0.00    -0.013 C 
ATOM     32  C   UNL     1      -6.615   6.648   1.889  0.00  0.00    +0.005 C 
ENDBRANCH  30  31
ENDBRANCH  12  30
TORSDOF 6
