REMARK  Name = ZINC13134251
REMARK  11 active torsions:
REMARK  status: ('A' for Active; 'I' for Inactive)
REMARK    1  A    between atoms: C_1  and  C_2
REMARK    2  A    between atoms: C_2  and  O_3
REMARK    3  A    between atoms: O_3  and  C_4
REMARK    4  A    between atoms: C_4  and  C_6
REMARK    5  A    between atoms: C_7  and  C_28
REMARK    6  A    between atoms: C_10  and  N_11
REMARK    7  A    between atoms: C_12  and  C_14
REMARK    8  A    between atoms: C_14  and  S_15
REMARK    9  A    between atoms: S_15  and  C_16
REMARK   10  A    between atoms: C_19  and  C_22
REMARK   11  A    between atoms: N_20  and  N_21
REMARK                            x       y       z     vdW  Elec       q    Type
REMARK                         _______ _______ _______ _____ _____    ______ ____
ROOT
ATOM      1  N   UNL     1       1.473   3.449   0.006  0.00  0.00    -0.279 N 
ATOM      2  C   UNL     1       2.745   3.893  -0.003  0.00  0.00    +0.228 C 
ATOM      3  O   UNL     1       3.664   3.102  -0.016  0.00  0.00    -0.275 OA
ATOM      4  H   UNL     1       0.738   4.082   0.017  0.00  0.00    +0.155 HD
ENDROOT
BRANCH   1   9
ATOM      5  C   UNL     1      -0.018   1.446   0.010  0.00  0.00    +0.095 A 
ATOM      6  C   UNL     1       0.002  -0.004   0.002  0.00  0.00    +0.006 A 
ATOM      7  C   UNL     1       1.223  -0.598  -0.013  0.00  0.00    +0.056 A 
ATOM      8  S   UNL     1       2.349   0.781  -0.016  0.00  0.00    -0.080 S 
ATOM      9  C   UNL     1       1.214   2.088   0.002  0.00  0.00    +0.086 A 
BRANCH   6  10
ATOM     10  C   UNL     1      -1.249  -0.799   0.009  0.00  0.00    +0.002 A 
ATOM     11  C   UNL     1      -1.554  -1.614   1.098  0.00  0.00    +0.010 A 
ATOM     12  C   UNL     1      -2.723  -2.348   1.102  0.00  0.00    +0.001 A 
ATOM     13  C   UNL     1      -3.587  -2.284   0.023  0.00  0.00    +0.001 A 
ATOM     14  C   UNL     1      -3.288  -1.481  -1.063  0.00  0.00    +0.020 A 
ATOM     15  C   UNL     1      -2.124  -0.738  -1.076  0.00  0.00    +0.049 A 
ATOM     16 CL   UNL     1      -1.749   0.269  -2.440  0.00  0.00    -0.083 Cl
ENDBRANCH   6  10
BRANCH   5  17
ATOM     17  C   UNL     1      -1.273   2.197   0.020  0.00  0.00    +0.342 C 
ATOM     18  O   UNL     1      -1.790   2.503   1.078  0.00  0.00    -0.245 OA
BRANCH  17  19
ATOM     19  O   UNL     1      -1.858   2.549  -1.143  0.00  0.00    -0.461 OA
BRANCH  19  21
ATOM     20  C   UNL     1      -3.611   3.600  -2.467  0.00  0.00    +0.048 C 
ATOM     21  C   UNL     1      -3.102   3.292  -1.058  0.00  0.00    +0.229 C 
ENDBRANCH  19  21
ENDBRANCH  17  19
ENDBRANCH   5  17
ENDBRANCH   1   9
BRANCH   2  22
ATOM     22  C   UNL     1       3.027   5.374   0.002  0.00  0.00    +0.173 C 
BRANCH  22  23
ATOM     23  S   UNL     1       4.816   5.648  -0.014  0.00  0.00    -0.075 S 
BRANCH  23  24
ATOM     24  C   UNL     1       4.855   7.410  -0.004  0.00  0.00    +0.209 A 
ATOM     25  N   UNL     1       3.818   8.214   0.010  0.00  0.00    -0.121 NA
ATOM     26  N   UNL     1       4.213   9.437   0.013  0.00  0.00    -0.132 NA
ATOM     27  C   UNL     1       5.515   9.486   0.000  0.00  0.00    +0.154 A 
ATOM     28  N   UNL     1       5.971   8.197  -0.005  0.00  0.00    -0.228 N 
BRANCH  27  29
ATOM     29  C   UNL     1       6.362  10.732  -0.002  0.00  0.00    +0.059 C 
ATOM     30  C   UNL     1       6.063  11.553   1.255  0.00  0.00    +0.011 C 
ATOM     31  C   UNL     1       6.923  12.819   1.253  0.00  0.00    +0.001 C 
ATOM     32  C   UNL     1       6.601  13.652   0.011  0.00  0.00    +0.000 C 
ATOM     33  C   UNL     1       6.899  12.832  -1.245  0.00  0.00    +0.001 C 
ATOM     34  C   UNL     1       6.039  11.566  -1.244  0.00  0.00    +0.011 C 
ENDBRANCH  27  29
BRANCH  28  35
ATOM     35  N   UNL     1       7.273   7.782  -0.014  0.00  0.00    -0.295 N 
ATOM     36  H   UNL     1       7.613   7.678  -0.958  0.00  0.00    +0.163 HD
ATOM     37  H   UNL     1       7.857   8.414   0.514  0.00  0.00    +0.163 HD
ENDBRANCH  28  35
ENDBRANCH  23  24
ENDBRANCH  22  23
ENDBRANCH   2  22
TORSDOF 10
