REMARK  Name = ZINC06363743
REMARK  14 active torsions:
REMARK  status: ('A' for Active; 'I' for Inactive)
REMARK    1  A    between atoms: C_1  and  C_2
REMARK    2  A    between atoms: C_2  and  C_3
REMARK    3  A    between atoms: C_2  and  C_4
REMARK    4  A    between atoms: C_2  and  C_5
REMARK    5  A    between atoms: N_7  and  C_8
REMARK    6  A    between atoms: C_8  and  C_9
REMARK    7  A    between atoms: C_8  and  N_18
REMARK    8  A    between atoms: C_12  and  N_15
REMARK    9  A    between atoms: N_15  and  C_16
REMARK   10  A    between atoms: N_15  and  C_17
REMARK   11  A    between atoms: C_19  and  C_21
REMARK   12  A    between atoms: C_21  and  C_22
REMARK   13  A    between atoms: C_21  and  C_23
REMARK   14  A    between atoms: C_21  and  C_24
REMARK                            x       y       z     vdW  Elec       q    Type
REMARK                         _______ _______ _______ _____ _____    ______ ____
ROOT
ATOM      1  C   UNL     1      -0.014   1.081   0.009  0.00  0.00    +0.191 C 
ENDROOT
BRANCH   1   2
ATOM      2  C   UNL     1      -0.719   1.569   1.249  0.00  0.00    -0.009 A 
ATOM      3  C   UNL     1       0.003   1.811   2.403  0.00  0.00    +0.009 A 
ATOM      4  C   UNL     1      -0.639   2.263   3.539  0.00  0.00    +0.023 A 
ATOM      5  C   UNL     1      -2.014   2.463   3.525  0.00  0.00    +0.029 A 
ATOM      6  C   UNL     1      -2.737   2.213   2.365  0.00  0.00    +0.023 A 
ATOM      7  C   UNL     1      -2.087   1.767   1.231  0.00  0.00    +0.009 A 
BRANCH   5   8
ATOM      8  N   UNL     1      -2.667   2.915   4.673  0.00  0.00    -0.336 N 
ATOM      9  C   UNL     1      -4.093   3.246   4.623  0.00  0.00    +0.129 C 
ATOM     10  C   UNL     1      -1.926   3.058   5.929  0.00  0.00    +0.129 C 
ENDBRANCH   5   8
ENDBRANCH   1   2
BRANCH   1  13
ATOM     11  C   UNL     1       2.382   0.786  -0.325  0.00  0.00    +0.220 C 
ATOM     12  O   UNL     1       2.171  -0.378  -0.593  0.00  0.00    -0.275 OA
ATOM     13  N   UNL     1       1.356   1.601  -0.010  0.00  0.00    -0.293 N 
ATOM     14  H   UNL     1       1.524   2.532   0.204  0.00  0.00    +0.151 HD
BRANCH  11  16
ATOM     15  C   UNL     1       4.757   0.199  -0.730  0.00  0.00    +0.020 C 
ATOM     16  C   UNL     1       3.790   1.321  -0.345  0.00  0.00    +0.039 C 
ATOM     17  C   UNL     1       3.891   2.454  -1.367  0.00  0.00    +0.020 C 
ATOM     18  C   UNL     1       4.154   1.853   1.043  0.00  0.00    +0.020 C 
ENDBRANCH  11  16
ENDBRANCH   1  13
BRANCH   1  19
ATOM     19  N   UNL     1      -0.732   1.552  -1.178  0.00  0.00    -0.293 N 
ATOM     20  C   UNL     1      -0.970   0.708  -2.201  0.00  0.00    +0.220 C 
ATOM     21  O   UNL     1      -0.590  -0.443  -2.138  0.00  0.00    -0.275 OA
ATOM     22  H   UNL     1      -1.035   2.472  -1.228  0.00  0.00    +0.151 HD
BRANCH  20  23
ATOM     23  C   UNL     1      -1.708   1.192  -3.422  0.00  0.00    +0.039 C 
ATOM     24  C   UNL     1      -1.845   0.044  -4.424  0.00  0.00    +0.020 C 
ATOM     25  C   UNL     1      -3.099   1.683  -3.015  0.00  0.00    +0.020 C 
ATOM     26  C   UNL     1      -0.930   2.341  -4.066  0.00  0.00    +0.020 C 
ENDBRANCH  20  23
ENDBRANCH   1  19
TORSDOF 6
