REMARK  Name = ZINC09332138
REMARK  8 active torsions:
REMARK  status: ('A' for Active; 'I' for Inactive)
REMARK    1  A    between atoms: C_1  and  C_2
REMARK    2  A    between atoms: C_2  and  C_3
REMARK    3  A    between atoms: C_3  and  C_4
REMARK    4  A    between atoms: C_4  and  C_5
REMARK    5  A    between atoms: C_5  and  C_6
REMARK    6  A    between atoms: C_18  and  C_20
REMARK    7  A    between atoms: C_30  and  C_33
REMARK    8  A    between atoms: C_36  and  C_39
REMARK                            x       y       z     vdW  Elec       q    Type
REMARK                         _______ _______ _______ _____ _____    ______ ____
ROOT
ATOM      1  C   UNL     1      -0.886   1.894   3.138  0.00  0.00    +0.221 C 
ATOM      2  O   UNL     1      -0.155   2.043   4.095  0.00  0.00    -0.275 OA
ATOM      3  N   UNL     1      -0.579   2.470   1.959  0.00  0.00    -0.258 N 
ATOM      4  C   UNL     1      -1.425   2.292   0.866  0.00  0.00    +0.058 A 
ATOM      5  C   UNL     1      -2.709   2.817   0.855  0.00  0.00    +0.025 A 
ATOM      6  C   UNL     1      -3.494   2.671  -0.290  0.00  0.00    +0.002 A 
ATOM      7  C   UNL     1      -3.002   2.010  -1.401  0.00  0.00    +0.002 A 
ATOM      8  C   UNL     1      -1.730   1.462  -1.380  0.00  0.00    +0.025 A 
ATOM      9  C   UNL     1      -0.959   1.586  -0.238  0.00  0.00    +0.053 A 
ATOM     10  N   UNL     1       0.301   1.008  -0.122  0.00  0.00    -0.316 N 
ATOM     11  C   UNL     1       1.462   1.698   0.028  0.00  0.00    +0.017 C 
ATOM     12  C   UNL     1       1.656   2.703   0.897  0.00  0.00    +0.037 C 
ATOM     13  C   UNL     1       0.624   3.266   1.846  0.00  0.00    +0.149 C 
ATOM     14  C   UNL     1       2.913   3.348   0.973  0.00  0.00    +0.163 C 
ATOM     15  O   UNL     1       3.068   4.237   1.788  0.00  0.00    -0.292 OA
ATOM     16  C   UNL     1       4.061   2.974   0.084  0.00  0.00    +0.088 C 
ATOM     17  C   UNL     1       3.499   2.410  -1.226  0.00  0.00    +0.032 C 
ATOM     18  C   UNL     1       2.593   1.232  -0.874  0.00  0.00    +0.059 C 
ATOM     19  H   UNL     1       0.409  -0.086  -0.149  0.00  0.00    +0.152 HD
ENDROOT
BRANCH  13  20
ATOM     20  C   UNL     1       0.240   4.644   1.371  0.00  0.00    +0.013 A 
ATOM     21  C   UNL     1       0.531   5.036   0.078  0.00  0.00    +0.008 A 
ATOM     22  C   UNL     1       0.178   6.299  -0.358  0.00  0.00    +0.001 A 
ATOM     23  C   UNL     1      -0.466   7.172   0.499  0.00  0.00    +0.003 A 
ATOM     24  C   UNL     1      -0.758   6.783   1.792  0.00  0.00    +0.039 A 
ATOM     25  C   UNL     1      -0.409   5.516   2.228  0.00  0.00    +0.129 A 
ATOM     26  F   UNL     1      -0.699   5.132   3.491  0.00  0.00    -0.205 F 
ENDBRANCH  13  20
BRANCH  17  27
ATOM     27  C   UNL     1       4.628   1.942  -2.107  0.00  0.00    -0.043 A 
ATOM     28  C   UNL     1       5.510   0.981  -1.648  0.00  0.00    +0.004 A 
ATOM     29  C   UNL     1       6.543   0.548  -2.458  0.00  0.00    +0.003 A 
ATOM     30  C   UNL     1       6.700   1.082  -3.723  0.00  0.00    -0.050 A 
ATOM     31  C   UNL     1       5.821   2.046  -4.180  0.00  0.00    +0.003 A 
ATOM     32  C   UNL     1       4.785   2.476  -3.372  0.00  0.00    +0.004 A 
ATOM     33  C   UNL     1       7.829   0.613  -4.604  0.00  0.00    +0.044 C 
ENDBRANCH  17  27
BRANCH   1  34
ATOM     34  C   UNL     1      -2.136   1.063   3.267  0.00  0.00    +0.096 C 
BRANCH  34  35
ATOM     35  C   UNL     1      -2.248   0.528   4.697  0.00  0.00    +0.009 C 
BRANCH  35  36
ATOM     36  C   UNL     1      -3.517  -0.316   4.828  0.00  0.00    +0.000 C 
BRANCH  36  38
ATOM     37  C   UNL     1      -4.898  -1.694   6.389  0.00  0.00    +0.004 C 
ATOM     38  C   UNL     1      -3.628  -0.851   6.257  0.00  0.00    -0.003 C 
ENDBRANCH  36  38
ENDBRANCH  35  36
ENDBRANCH  34  35
ENDBRANCH   1  34
TORSDOF 6
