REMARK  Name = ZINC39774210
REMARK  11 active torsions:
REMARK  status: ('A' for Active; 'I' for Inactive)
REMARK    1  A    between atoms: C_1  and  C_2
REMARK    2  A    between atoms: C_2  and  C_4
REMARK    3  A    between atoms: C_2  and  N_15
REMARK    4  A    between atoms: N_6  and  N_7
REMARK    5  A    between atoms: C_8  and  C_9
REMARK    6  A    between atoms: N_18  and  C_35
REMARK    7  A    between atoms: C_19  and  N_24
REMARK    8  A    between atoms: C_21  and  C_22
REMARK    9  A    between atoms: C_21  and  C_23
REMARK   10  A    between atoms: N_24  and  O_34
REMARK   11  A    between atoms: N_27  and  C_28
REMARK                            x       y       z     vdW  Elec       q    Type
REMARK                         _______ _______ _______ _____ _____    ______ ____
ROOT
ATOM      1  N   UNL     1       0.245   0.030   1.446  0.00  0.00    -0.265 N 
ATOM      2  C   UNL     1       1.572   0.212   1.445  0.00  0.00    +0.312 C 
ATOM      3  O   UNL     1       2.171   0.712   0.512  0.00  0.00    -0.252 OA
ATOM      4  N   UNL     1       2.178  -0.204   2.565  0.00  0.00    -0.232 N 
ATOM      5  C   UNL     1       1.170  -0.753   3.484  0.00  0.00    +0.224 C 
ATOM      6  C   UNL     1      -0.157  -0.587   2.719  0.00  0.00    +0.072 C 
ATOM      7  C   UNL     1      -1.110   0.334   3.485  0.00  0.00    +0.035 C 
ATOM      8  C   UNL     1      -0.807  -1.950   2.475  0.00  0.00    +0.035 C 
ENDROOT
BRANCH   4   9
ATOM      9  C   UNL     1       3.552  -0.128   2.819  0.00  0.00    +0.040 A 
ATOM     10  C   UNL     1       4.442  -0.875   2.058  0.00  0.00    +0.023 A 
ATOM     11  C   UNL     1       5.798  -0.798   2.311  0.00  0.00    +0.002 A 
ATOM     12  C   UNL     1       6.269   0.021   3.320  0.00  0.00    +0.000 A 
ATOM     13  C   UNL     1       5.385   0.765   4.080  0.00  0.00    +0.002 A 
ATOM     14  C   UNL     1       4.029   0.697   3.828  0.00  0.00    +0.023 A 
ENDBRANCH   4   9
BRANCH   5  15
ATOM     15  N   UNL     1       1.441  -2.166   3.760  0.00  0.00    -0.144 N 
ATOM     16  C   UNL     1       1.441  -2.617   5.030  0.00  0.00    +0.331 C 
ATOM     17  O   UNL     1       1.129  -1.873   5.939  0.00  0.00    -0.250 OA
ATOM     18  N   UNL     1       1.786  -3.893   5.292  0.00  0.00    -0.268 N 
ATOM     19  H   UNL     1       2.097  -4.468   4.575  0.00  0.00    +0.156 HD
BRANCH  18  20
ATOM     20  C   UNL     1       1.696  -4.388   6.597  0.00  0.00    +0.035 A 
ATOM     21  C   UNL     1       0.686  -3.946   7.441  0.00  0.00    +0.023 A 
ATOM     22  C   UNL     1       0.600  -4.438   8.729  0.00  0.00    +0.002 A 
ATOM     23  C   UNL     1       1.518  -5.369   9.179  0.00  0.00    +0.000 A 
ATOM     24  C   UNL     1       2.526  -5.810   8.341  0.00  0.00    +0.002 A 
ATOM     25  C   UNL     1       2.614  -5.327   7.050  0.00  0.00    +0.023 A 
ENDBRANCH  18  20
BRANCH  15  26
ATOM     26  O   UNL     1       1.703  -3.058   2.692  0.00  0.00    -0.289 OA
ATOM     27  H   UNL     1       1.790  -3.982   2.963  0.00  0.00    +0.242 HD
ENDBRANCH  15  26
ENDBRANCH   5  15
BRANCH   1  29
ATOM     28  C   UNL     1      -0.570   1.897   0.092  0.00  0.00    +0.038 C 
ATOM     29  C   UNL     1      -0.663   0.392   0.355  0.00  0.00    +0.163 C 
BRANCH  29  30
ATOM     30  C   UNL     1      -0.275  -0.360  -0.892  0.00  0.00    +0.253 C 
ATOM     31  O   UNL     1       0.667  -1.124  -0.871  0.00  0.00    -0.272 OA
ATOM     32  N   UNL     1      -0.975  -0.185  -2.030  0.00  0.00    -0.205 N 
ATOM     33  H   UNL     1      -1.728   0.426  -2.047  0.00  0.00    +0.177 HD
BRANCH  32  34
ATOM     34  N   UNL     1      -0.614  -0.884  -3.189  0.00  0.00    -0.188 NA
ATOM     35  C   UNL     1      -1.209  -0.627  -4.314  0.00  0.00    +0.138 C 
BRANCH  35  36
ATOM     36  C   UNL     1      -1.866   0.677  -4.519  0.00  0.00    -0.005 A 
ATOM     37  C   UNL     1      -2.720   0.868  -5.608  0.00  0.00    +0.009 A 
ATOM     38  C   UNL     1      -3.332   2.091  -5.794  0.00  0.00    +0.001 A 
ATOM     39  C   UNL     1      -3.099   3.126  -4.906  0.00  0.00    +0.000 A 
ATOM     40  C   UNL     1      -2.254   2.944  -3.825  0.00  0.00    +0.001 A 
ATOM     41  C   UNL     1      -1.641   1.725  -3.624  0.00  0.00    +0.009 A 
ENDBRANCH  35  36
ENDBRANCH  32  34
ENDBRANCH  29  30
ENDBRANCH   1  29
TORSDOF 8
