REMARK  Name = ZINC05618809
REMARK  10 active torsions:
REMARK  status: ('A' for Active; 'I' for Inactive)
REMARK    1  A    between atoms: C_1  and  C_2
REMARK    2  A    between atoms: C_2  and  O_3
REMARK    3  A    between atoms: O_3  and  C_4
REMARK    4  A    between atoms: C_4  and  C_6
REMARK    5  A    between atoms: C_8  and  C_26
REMARK    6  A    between atoms: C_17  and  C_18
REMARK    7  A    between atoms: C_17  and  N_62
REMARK    8  A    between atoms: C_30  and  O_33
REMARK    9  A    between atoms: C_31  and  O_32
REMARK   10  A    between atoms: O_33  and  C_34
REMARK                            x       y       z     vdW  Elec       q    Type
REMARK                         _______ _______ _______ _____ _____    ______ ____
ROOT
ATOM      1  C   UNL     1       5.915   3.294   0.301  0.00  0.00    +0.136 C 
ATOM      2  C   UNL     1       5.100   2.297  -0.525  0.00  0.00    +0.072 C 
ATOM      3  C   UNL     1       3.644   2.393  -0.144  0.00  0.00    +0.006 A 
ATOM      4  C   UNL     1       2.797   1.350  -0.485  0.00  0.00    +0.057 A 
ATOM      5  C   UNL     1       1.454   1.402  -0.157  0.00  0.00    +0.167 A 
ATOM      6  C   UNL     1       0.950   2.511   0.519  0.00  0.00    +0.170 A 
ATOM      7  C   UNL     1       1.795   3.552   0.857  0.00  0.00    +0.095 A 
ATOM      8  C   UNL     1       3.146   3.495   0.528  0.00  0.00    +0.126 A 
ATOM      9  O   UNL     1       3.943   4.536   0.885  0.00  0.00    -0.502 OA
ATOM     10  C   UNL     1       5.213   4.657   0.242  0.00  0.00    +0.094 C 
ATOM     11  C   UNL     1       5.014   5.071  -1.217  0.00  0.00    +0.035 C 
ATOM     12  O   UNL     1      -0.387   2.326   0.724  0.00  0.00    -0.452 OA
ATOM     13  C   UNL     1      -0.614   0.917   0.532  0.00  0.00    +0.466 C 
ATOM     14  O   UNL     1       0.432   0.522  -0.374  0.00  0.00    -0.453 OA
ENDROOT
BRANCH  10  19
ATOM     15  C   UNL     1       5.321   6.969   0.996  0.00  0.00    -0.073 C 
ATOM     16  C   UNL     1       6.031   7.704   2.160  0.00  0.00    -0.020 C 
ATOM     17  C   UNL     1       6.299   6.568   3.174  0.00  0.00    -0.020 C 
ATOM     18  C   UNL     1       6.267   5.272   2.343  0.00  0.00    -0.073 C 
ATOM     19  N   UNL     1       6.031   5.681   0.958  0.00  0.00    +0.406 N 
ATOM     20  H   UNL     1       6.929   5.794   0.472  0.00  0.00    -0.076 HD
ENDBRANCH  10  19
BRANCH   2  21
ATOM     21  C   UNL     1       5.596   0.899  -0.258  0.00  0.00    +0.006 A 
ATOM     22  C   UNL     1       5.556   0.385   1.025  0.00  0.00    +0.008 A 
ATOM     23  C   UNL     1       6.005  -0.899   1.273  0.00  0.00    +0.004 A 
ATOM     24  C   UNL     1       6.508  -1.669   0.241  0.00  0.00    +0.049 A 
ATOM     25  C   UNL     1       6.557  -1.158  -1.046  0.00  0.00    +0.162 A 
ATOM     26  C   UNL     1       6.099   0.133  -1.296  0.00  0.00    +0.162 A 
BRANCH  26  27
ATOM     27  O   UNL     1       6.145   0.639  -2.557  0.00  0.00    -0.503 OA
ATOM     28  H   UNL     1       6.968   1.103  -2.764  0.00  0.00    +0.292 HD
ENDBRANCH  26  27
BRANCH  25  29
ATOM     29  O   UNL     1       7.052  -1.915  -2.062  0.00  0.00    -0.491 OA
ATOM     30  C   UNL     1       7.503  -3.229  -1.731  0.00  0.00    +0.277 C 
ENDBRANCH  25  29
ENDBRANCH   2  21
BRANCH   1  31
ATOM     31  C   UNL     1       7.304   3.413  -0.272  0.00  0.00    +0.313 C 
ATOM     32  O   UNL     1       7.635   4.420  -0.851  0.00  0.00    -0.250 OA
BRANCH  31  33
ATOM     33  O   UNL     1       8.174   2.399  -0.138  0.00  0.00    -0.465 OA
BRANCH  33  35
ATOM     34  C   UNL     1      10.338   1.332  -0.464  0.00  0.00    +0.048 C 
ATOM     35  C   UNL     1       9.494   2.583  -0.715  0.00  0.00    +0.229 C 
ENDBRANCH  33  35
ENDBRANCH  31  33
ENDBRANCH   1  31
TORSDOF 7
