REMARK  Name = ZINC14459909
REMARK  7 active torsions:
REMARK  status: ('A' for Active; 'I' for Inactive)
REMARK    1  A    between atoms: C_1  and  O_2
REMARK    2  A    between atoms: O_2  and  C_3
REMARK    3  A    between atoms: C_7  and  C_10
REMARK    4  A    between atoms: C_8  and  O_9
REMARK    5  A    between atoms: C_21  and  O_26
REMARK    6  A    between atoms: O_26  and  C_27
REMARK    7  A    between atoms: C_27  and  C_28
REMARK                            x       y       z     vdW  Elec       q    Type
REMARK                         _______ _______ _______ _____ _____    ______ ____
ROOT
ATOM      1  C   UNL     1      -0.767   0.771   2.477  0.00  0.00    +0.109 C 
ATOM      2  C   UNL     1      -0.807   1.618   1.208  0.00  0.00    +0.029 C 
ATOM      3  C   UNL     1      -0.013   1.086   0.008  0.00  0.00    +0.033 C 
ATOM      4  C   UNL     1      -0.827   1.629  -1.167  0.00  0.00    -0.030 C 
ATOM      5  C   UNL     1      -2.087   1.821  -0.796  0.00  0.00    -0.023 C 
ATOM      6  C   UNL     1      -2.234   1.399   0.620  0.00  0.00    +0.049 C 
ATOM      7  C   UNL     1      -3.189   2.059   1.537  0.00  0.00    -0.016 A 
ATOM      8  C   UNL     1      -4.331   2.687   1.088  0.00  0.00    +0.051 A 
ATOM      9  C   UNL     1      -5.201   3.283   1.988  0.00  0.00    +0.121 A 
ATOM     10  C   UNL     1      -4.923   3.244   3.346  0.00  0.00    +0.047 A 
ATOM     11  C   UNL     1      -3.780   2.620   3.801  0.00  0.00    +0.027 A 
ATOM     12  C   UNL     1      -2.898   2.027   2.905  0.00  0.00    +0.032 A 
ATOM     13  N   UNL     1      -1.732   1.418   3.393  0.00  0.00    -0.336 N 
ATOM     14  H   UNL     1      -1.556   1.421   4.346  0.00  0.00    +0.147 HD
ENDROOT
BRANCH   1  19
ATOM     15  C   UNL     1      -0.631  -2.900   1.565  0.00  0.00    +0.162 A 
ATOM     16  C   UNL     1      -1.964  -3.259   1.683  0.00  0.00    +0.049 A 
ATOM     17  C   UNL     1      -2.903  -2.315   2.057  0.00  0.00    +0.004 A 
ATOM     18  C   UNL     1      -2.514  -1.014   2.318  0.00  0.00    +0.009 A 
ATOM     19  C   UNL     1      -1.186  -0.649   2.197  0.00  0.00    +0.018 A 
ATOM     20  C   UNL     1      -0.240  -1.590   1.823  0.00  0.00    +0.163 A 
BRANCH  15  22
ATOM     21  C   UNL     1      -0.179  -5.153   0.950  0.00  0.00    +0.277 C 
ATOM     22  O   UNL     1       0.294  -3.827   1.199  0.00  0.00    -0.491 OA
ENDBRANCH  15  22
BRANCH  20  23
ATOM     23  O   UNL     1       1.067  -1.233   1.709  0.00  0.00    -0.503 OA
ATOM     24  H   UNL     1       1.576  -1.336   2.525  0.00  0.00    +0.292 HD
ENDBRANCH  20  23
ENDBRANCH   1  19
BRANCH   9  25
ATOM     25  O   UNL     1      -6.326   3.903   1.540  0.00  0.00    -0.487 OA
BRANCH  25  26
ATOM     26  C   UNL     1      -7.177   4.494   2.524  0.00  0.00    +0.264 C 
BRANCH  26  27
ATOM     27  C   UNL     1      -8.363   5.129   1.847  0.00  0.00    -0.010 A 
ATOM     28  C   UNL     1      -8.305   6.451   1.446  0.00  0.00    +0.007 A 
ATOM     29  C   UNL     1      -9.391   7.032   0.820  0.00  0.00    +0.000 A 
ATOM     30  C   UNL     1     -10.540   6.295   0.604  0.00  0.00    +0.000 A 
ATOM     31  C   UNL     1     -10.601   4.975   1.009  0.00  0.00    +0.000 A 
ATOM     32  C   UNL     1      -9.512   4.392   1.630  0.00  0.00    +0.007 A 
ENDBRANCH  26  27
ENDBRANCH  25  26
ENDBRANCH   9  25
TORSDOF 6
