REMARK  Name = ZINC02276271
REMARK  3 active torsions:
REMARK  status: ('A' for Active; 'I' for Inactive)
REMARK    1  A    between atoms: C_5  and  C_6
REMARK    2  A    between atoms: N_7  and  C_8
REMARK    3  A    between atoms: C_9  and  C_18
REMARK                            x       y       z     vdW  Elec       q    Type
REMARK                         _______ _______ _______ _____ _____    ______ ____
ROOT
ATOM      1  C   UNL     1      -2.050  -2.965   0.006  0.00  0.00    +0.119 A 
ATOM      2  C   UNL     1      -2.105  -4.363   0.004  0.00  0.00    +0.088 A 
ATOM      3  C   UNL     1      -3.368  -4.991   0.012  0.00  0.00    -0.018 A 
ATOM      4  C   UNL     1      -4.451  -4.178   0.011  0.00  0.00    -0.004 A 
ATOM      5  S   UNL     1      -3.782  -2.534   0.025  0.00  0.00    -0.073 S 
ATOM      6  C   UNL     1      -5.896  -4.567  -0.001  0.00  0.00    +0.043 C 
ATOM      7  C   UNL     1      -6.144  -5.623   1.084  0.00  0.00    +0.005 C 
ATOM      8  C   UNL     1      -5.919  -7.002   0.472  0.00  0.00    +0.001 C 
ATOM      9  C   UNL     1      -4.824  -6.931  -0.591  0.00  0.00    +0.005 C 
ATOM     10  C   UNL     1      -3.498  -6.513   0.030  0.00  0.00    +0.037 C 
ENDROOT
BRANCH   1  12
ATOM     11  C   UNL     1      -1.129  -0.853   0.008  0.00  0.00    +0.158 C 
ATOM     12  N   UNL     1      -0.972  -2.156  -0.000  0.00  0.00    -0.243 NA
BRANCH  11  17
ATOM     13  C   UNL     1      -0.017   1.376   0.010  0.00  0.00    +0.052 A 
ATOM     14  C   UNL     1       1.323   1.794  -0.001  0.00  0.00    +0.056 A 
ATOM     15  C   UNL     1       2.089   0.680  -0.014  0.00  0.00    +0.165 A 
ATOM     16  O   UNL     1       1.293  -0.399  -0.012  0.00  0.00    -0.448 OA
ATOM     17  C   UNL     1       0.002  -0.004   0.002  0.00  0.00    +0.147 A 
ATOM     18  I   UNL     1       4.184   0.645  -0.035  0.00  0.00    -0.001 I 
ENDBRANCH  11  17
ENDBRANCH   1  12
BRANCH   2  19
ATOM     19  C   UNL     1      -0.903  -5.140  -0.005  0.00  0.00    +0.102 C 
ATOM     20  N   UNL     1       0.051  -5.757  -0.012  0.00  0.00    -0.191 NA
ENDBRANCH   2  19
TORSDOF 3
