REMARK  Name = ZINC41647695
REMARK  7 active torsions:
REMARK  status: ('A' for Active; 'I' for Inactive)
REMARK    1  A    between atoms: C_1  and  C_2
REMARK    2  A    between atoms: C_6  and  C_8
REMARK    3  A    between atoms: C_13  and  C_32
REMARK    4  A    between atoms: N_20  and  C_23
REMARK    5  A    between atoms: C_23  and  C_24
REMARK    6  A    between atoms: C_27  and  O_30
REMARK    7  A    between atoms: O_30  and  C_31
REMARK                            x       y       z     vdW  Elec       q    Type
REMARK                         _______ _______ _______ _____ _____    ______ ____
ROOT
ATOM      1  C   UNL     1       0.052  -2.845   2.448  0.00  0.00    +0.058 C 
ATOM      2  C   UNL     1      -0.032  -4.199   2.437  0.00  0.00    +0.176 C 
ATOM      3  C   UNL     1      -0.137  -5.073   3.616  0.00  0.00    +0.232 C 
ATOM      4  O   UNL     1      -0.167  -4.745   4.789  0.00  0.00    -0.283 OA
ATOM      5  C   UNL     1      -0.199  -6.437   3.059  0.00  0.00    +0.071 A 
ATOM      6  C   UNL     1      -0.304  -7.702   3.639  0.00  0.00    -0.033 A 
ATOM      7  C   UNL     1      -0.339  -8.812   2.846  0.00  0.00    +0.050 A 
ATOM      8  C   UNL     1      -0.272  -8.689   1.458  0.00  0.00    +0.131 A 
ATOM      9  C   UNL     1      -0.170  -7.440   0.870  0.00  0.00    +0.051 A 
ATOM     10  C   UNL     1      -0.131  -6.299   1.664  0.00  0.00    +0.148 A 
ATOM     11  O   UNL     1      -0.039  -4.991   1.339  0.00  0.00    -0.451 OA
ATOM     12  C   UNL     1      -0.103  -7.293  -0.628  0.00  0.00    +0.130 C 
ATOM     13  N   UNL     1       0.252  -8.584  -1.235  0.00  0.00    -0.262 NA
ATOM     14  C   UNL     1      -0.604  -9.652  -0.692  0.00  0.00    +0.319 C 
ATOM     15  O   UNL     1      -0.306  -9.814   0.696  0.00  0.00    -0.476 OA
ATOM     16  C   UNL     1      -0.377  -7.842   5.138  0.00  0.00    +0.045 C 
ENDROOT
BRANCH   1  22
ATOM     17  C   UNL     1      -0.076   1.502   0.012  0.00  0.00    +0.044 C 
ATOM     18  C   UNL     1      -0.030  -0.004   0.003  0.00  0.00    -0.050 A 
ATOM     19  C   UNL     1      -0.008  -0.687  -1.201  0.00  0.00    +0.003 A 
ATOM     20  C   UNL     1       0.035  -2.070  -1.220  0.00  0.00    +0.001 A 
ATOM     21  C   UNL     1       0.054  -2.780  -0.038  0.00  0.00    +0.008 A 
ATOM     22  C   UNL     1       0.032  -2.097   1.183  0.00  0.00    -0.021 A 
ATOM     23  C   UNL     1      -0.005  -0.698   1.194  0.00  0.00    +0.011 A 
ENDBRANCH   1  22
BRANCH  13  24
ATOM     24  C   UNL     1       0.153  -8.523  -2.699  0.00  0.00    +0.123 C 
BRANCH  24  25
ATOM     25  C   UNL     1       0.754  -9.769  -3.296  0.00  0.00    -0.033 A 
ATOM     26  C   UNL     1       2.099  -9.803  -3.614  0.00  0.00    +0.008 A 
ATOM     27  C   UNL     1       2.652 -10.945  -4.161  0.00  0.00    +0.046 A 
ATOM     28  C   UNL     1       1.857 -12.058  -4.391  0.00  0.00    +0.120 A 
ATOM     29  C   UNL     1       0.507 -12.021  -4.071  0.00  0.00    +0.046 A 
ATOM     30  C   UNL     1      -0.040 -10.879  -3.519  0.00  0.00    +0.008 A 
BRANCH  28  31
ATOM     31  O   UNL     1       2.398 -13.182  -4.930  0.00  0.00    -0.495 OA
ATOM     32  C   UNL     1       1.520 -14.289  -5.140  0.00  0.00    +0.277 C 
ENDBRANCH  28  31
ENDBRANCH  24  25
ENDBRANCH  13  24
TORSDOF 4
