REMARK  Name = ZINC08905061
REMARK  12 active torsions:
REMARK  status: ('A' for Active; 'I' for Inactive)
REMARK    1  A    between atoms: C_1  and  N_59
REMARK    2  A    between atoms: C_2  and  N_59
REMARK    3  A    between atoms: C_3  and  C_4
REMARK    4  A    between atoms: C_3  and  N_59
REMARK    5  A    between atoms: C_4  and  C_5
REMARK    6  A    between atoms: C_5  and  N_6
REMARK    7  A    between atoms: C_7  and  C_26
REMARK    8  A    between atoms: C_10  and  C_11
REMARK    9  A    between atoms: C_10  and  O_21
REMARK   10  A    between atoms: C_14  and  O_17
REMARK   11  A    between atoms: O_17  and  C_18
REMARK   12  A    between atoms: C_18  and  C_19
REMARK                            x       y       z     vdW  Elec       q    Type
REMARK                         _______ _______ _______ _____ _____    ______ ____
ROOT
ATOM      1  N   UNL     1       1.047   2.238  -0.330  0.00  0.00    -0.284 N 
ATOM      2  C   UNL     1      -0.132   1.389  -0.137  0.00  0.00    +0.144 C 
ATOM      3  C   UNL     1      -0.799   1.857   1.136  0.00  0.00    +0.071 C 
ATOM      4  C   UNL     1      -1.947   1.345   1.708  0.00  0.00    +0.133 C 
ATOM      5  C   UNL     1      -0.018   2.917   1.618  0.00  0.00    +0.249 C 
ATOM      6  O   UNL     1      -0.232   3.560   2.631  0.00  0.00    -0.282 OA
ATOM      7  C   UNL     1       1.118   3.122   0.680  0.00  0.00    +0.288 C 
ATOM      8  O   UNL     1       1.984   3.963   0.807  0.00  0.00    -0.266 OA
ENDROOT
BRANCH   2   9
ATOM      9  C   UNL     1      -1.076   1.543  -1.302  0.00  0.00    -0.021 A 
ATOM     10  C   UNL     1      -1.740   0.440  -1.805  0.00  0.00    +0.006 A 
ATOM     11  C   UNL     1      -2.606   0.581  -2.873  0.00  0.00    +0.001 A 
ATOM     12  C   UNL     1      -2.808   1.826  -3.439  0.00  0.00    +0.015 A 
ATOM     13  C   UNL     1      -2.144   2.930  -2.936  0.00  0.00    +0.018 A 
ATOM     14  C   UNL     1      -1.282   2.789  -1.864  0.00  0.00    +0.021 A 
ATOM     15 BR   UNL     1      -2.421   4.633  -3.710  0.00  0.00    -0.050 Br
ENDBRANCH   2   9
BRANCH   4  16
ATOM     16  C   UNL     1      -2.385   1.819   3.030  0.00  0.00    +0.017 A 
ATOM     17  C   UNL     1      -1.489   1.827   4.106  0.00  0.00    +0.015 A 
ATOM     18  C   UNL     1      -1.902   2.276   5.339  0.00  0.00    +0.046 A 
ATOM     19  C   UNL     1      -3.210   2.712   5.521  0.00  0.00    +0.121 A 
ATOM     20  C   UNL     1      -4.106   2.702   4.456  0.00  0.00    +0.046 A 
ATOM     21  C   UNL     1      -3.701   2.259   3.218  0.00  0.00    +0.015 A 
BRANCH  19  22
ATOM     22  O   UNL     1      -3.615   3.149   6.740  0.00  0.00    -0.488 OA
BRANCH  22  23
ATOM     23  C   UNL     1      -2.644   3.133   7.789  0.00  0.00    +0.256 C 
BRANCH  23  24
ATOM     24  C   UNL     1      -3.270   3.649   9.060  0.00  0.00    +0.006 C 
ATOM     25  C   UNL     1      -3.068   3.020  10.191  0.00  0.00    +0.007 C 
ENDBRANCH  23  24
ENDBRANCH  22  23
ENDBRANCH  19  22
ENDBRANCH   4  16
BRANCH   4  26
ATOM     26  O   UNL     1      -2.668   0.408   1.054  0.00  0.00    -0.506 OA
ATOM     27  H   UNL     1      -3.460   0.151   1.608  0.00  0.00    +0.292 HD
ENDBRANCH   4  26
BRANCH   1  28
ATOM     28  C   UNL     1       1.994   2.139  -1.443  0.00  0.00    +0.107 C 
BRANCH  28  29
ATOM     29  C   UNL     1       1.528   3.037  -2.591  0.00  0.00    +0.000 C 
BRANCH  29  30
ATOM     30  C   UNL     1       2.517   2.933  -3.753  0.00  0.00    -0.078 C 
BRANCH  30  33
ATOM     31  C   UNL     1       3.106   3.908  -5.890  0.00  0.00    -0.097 C 
ATOM     32  C   UNL     1       0.807   3.308  -5.426  0.00  0.00    -0.097 C 
ATOM     33  N   UNL     1       2.065   3.822  -4.845  0.00  0.00    +0.376 N 
ATOM     34  H   UNL     1       1.897   4.760  -4.463  0.00  0.00    -0.083 HD
ENDBRANCH  30  33
ENDBRANCH  29  30
ENDBRANCH  28  29
ENDBRANCH   1  28
TORSDOF 10
