REMARK  Name = ZINC38643189
REMARK  7 active torsions:
REMARK  status: ('A' for Active; 'I' for Inactive)
REMARK    1  A    between atoms: C_6  and  C_7
REMARK    2  A    between atoms: C_7  and  N_8
REMARK    3  A    between atoms: N_8  and  C_9
REMARK    4  A    between atoms: C_9  and  C_10
REMARK    5  A    between atoms: C_16  and  C_18
REMARK    6  A    between atoms: C_18  and  N_19
REMARK    7  A    between atoms: C_23  and  C_24
REMARK                            x       y       z     vdW  Elec       q    Type
REMARK                         _______ _______ _______ _____ _____    ______ ____
ROOT
ATOM      1  N   UNL     1      -1.853  -2.166  -3.454  0.00  0.00    -0.293 N 
ATOM      2  C   UNL     1      -2.620  -1.099  -3.756  0.00  0.00    +0.234 C 
ATOM      3  O   UNL     1      -2.563  -0.099  -3.074  0.00  0.00    -0.274 OA
ENDROOT
BRANCH   1   4
ATOM      4  C   UNL     1      -0.951  -2.116  -2.302  0.00  0.00    +0.143 C 
BRANCH   4  10
ATOM      5  C   UNL     1       0.648  -0.233  -2.704  0.00  0.00    +0.006 A 
ATOM      6  C   UNL     1       1.881   0.249  -3.103  0.00  0.00    +0.020 A 
ATOM      7  C   UNL     1       2.858  -0.628  -3.538  0.00  0.00    +0.041 A 
ATOM      8  C   UNL     1       2.602  -1.988  -3.572  0.00  0.00    +0.020 A 
ATOM      9  C   UNL     1       1.370  -2.468  -3.172  0.00  0.00    +0.006 A 
ATOM     10  C   UNL     1       0.393  -1.591  -2.738  0.00  0.00    -0.030 A 
ATOM     11 CL   UNL     1       4.406  -0.024  -4.040  0.00  0.00    -0.084 Cl
ENDBRANCH   4  10
ENDBRANCH   1   4
BRANCH   1  12
ATOM     12  C   UNL     1      -1.923  -3.375  -4.279  0.00  0.00    +0.139 C 
BRANCH  12  13
ATOM     13  C   UNL     1      -2.997  -4.311  -3.722  0.00  0.00    +0.136 C 
ATOM     14  C   UNL     1      -2.994  -5.639  -4.510  0.00  0.00    +0.035 C 
ATOM     15  C   UNL     1      -4.510  -5.959  -4.621  0.00  0.00    +0.031 C 
ATOM     16  C   UNL     1      -5.104  -4.532  -4.737  0.00  0.00    +0.160 C 
ATOM     17  O   UNL     1      -4.290  -3.715  -3.878  0.00  0.00    -0.375 OA
ENDBRANCH  12  13
ENDBRANCH   1  12
BRANCH   2  18
ATOM     18  C   UNL     1      -3.549  -1.150  -4.942  0.00  0.00    +0.210 C 
BRANCH  18  19
ATOM     19  N   UNL     1      -4.265   0.122  -5.056  0.00  0.00    -0.246 N 
ATOM     20  C   UNL     1      -5.419   0.273  -4.427  0.00  0.00    +0.259 C 
ATOM     21  O   UNL     1      -5.902  -0.619  -3.755  0.00  0.00    -0.269 OA
ATOM     22  C   UNL     1      -6.091   1.580  -4.582  0.00  0.00    +0.077 C 
ATOM     23  C   UNL     1      -7.266   2.015  -4.062  0.00  0.00    +0.028 C 
ATOM     24  S   UNL     1      -4.930   2.429  -5.644  0.00  0.00    -0.061 S 
ATOM     25  C   UNL     1      -3.731   1.115  -5.796  0.00  0.00    +0.121 C 
ATOM     26  S   UNL     1      -2.260   1.115  -6.672  0.00  0.00    -0.027 S 
BRANCH  23  27
ATOM     27  C   UNL     1      -7.836   3.295  -4.505  0.00  0.00    -0.024 A 
ATOM     28  C   UNL     1      -7.275   3.977  -5.591  0.00  0.00    +0.009 A 
ATOM     29  C   UNL     1      -7.816   5.176  -6.001  0.00  0.00    +0.020 A 
ATOM     30  C   UNL     1      -8.912   5.708  -5.341  0.00  0.00    +0.041 A 
ATOM     31  C   UNL     1      -9.473   5.039  -4.264  0.00  0.00    +0.020 A 
ATOM     32  C   UNL     1      -8.947   3.836  -3.847  0.00  0.00    +0.009 A 
ATOM     33 CL   UNL     1      -9.586   7.219  -5.864  0.00  0.00    -0.084 Cl
ENDBRANCH  23  27
ENDBRANCH  18  19
ENDBRANCH   2  18
TORSDOF 7
