REMARK  Name = ZINC20532107
REMARK  3 active torsions:
REMARK  status: ('A' for Active; 'I' for Inactive)
REMARK    1  A    between atoms: N_9  and  C_11
REMARK    2  A    between atoms: C_11  and  C_12
REMARK    3  A    between atoms: N_21  and  C_22
REMARK                            x       y       z     vdW  Elec       q    Type
REMARK                         _______ _______ _______ _____ _____    ______ ____
ROOT
ATOM      1  C   UNL     1      -4.340  -2.935  -1.393  0.00  0.00    -0.010 C 
ATOM      2  C   UNL     1      -5.723  -2.292  -1.274  0.00  0.00    +0.005 C 
ATOM      3  C   UNL     1      -5.585  -0.768  -1.308  0.00  0.00    +0.019 C 
ATOM      4  C   UNL     1      -4.735  -0.310  -0.119  0.00  0.00    +0.109 C 
ATOM      5  N   UNL     1      -3.456  -1.033  -0.145  0.00  0.00    -0.285 N 
ATOM      6  C   UNL     1      -3.476  -2.501  -0.211  0.00  0.00    +0.111 C 
ATOM      7  C   UNL     1      -2.287  -0.362  -0.116  0.00  0.00    +0.307 C 
ATOM      8  O   UNL     1      -1.238  -0.964  -0.235  0.00  0.00    -0.252 OA
ATOM      9  N   UNL     1      -2.282   0.976   0.046  0.00  0.00    -0.267 N 
ATOM     10  H   UNL     1      -3.224   1.510   0.242  0.00  0.00    +0.156 HD
ENDROOT
BRANCH   9  11
ATOM     11  C   UNL     1      -1.077   1.686  -0.035  0.00  0.00    +0.070 A 
ATOM     12  C   UNL     1      -0.009   1.164  -0.750  0.00  0.00    +0.027 A 
ATOM     13  C   UNL     1       1.176   1.869  -0.833  0.00  0.00    +0.017 A 
ATOM     14  C   UNL     1       1.301   3.093  -0.200  0.00  0.00    +0.021 A 
ATOM     15  C   UNL     1       0.241   3.615   0.519  0.00  0.00    +0.055 A 
ATOM     16  C   UNL     1      -0.948   2.913   0.606  0.00  0.00    +0.146 A 
ATOM     17  F   UNL     1      -1.984   3.423   1.308  0.00  0.00    -0.204 F 
ATOM     18 BR   UNL     1       2.926   4.054  -0.317  0.00  0.00    -0.050 Br
ENDBRANCH   9  11
BRANCH   1  19
ATOM     19  C   UNL     1      -4.482  -4.458  -1.392  0.00  0.00    -0.073 C 
BRANCH  19  28
ATOM     20  C   UNL     1       0.505  -8.392  -2.373  0.00  0.00    +0.000 A 
ATOM     21  C   UNL     1      -0.462  -9.070  -1.655  0.00  0.00    +0.000 A 
ATOM     22  C   UNL     1      -1.664  -8.454  -1.370  0.00  0.00    +0.002 A 
ATOM     23  C   UNL     1      -1.907  -7.158  -1.799  0.00  0.00    -0.061 A 
ATOM     24  C   UNL     1      -0.941  -6.481  -2.512  0.00  0.00    -0.048 A 
ATOM     25  C   UNL     1       0.265  -7.101  -2.800  0.00  0.00    +0.004 A 
ATOM     26  C   UNL     1      -1.155  -5.068  -2.990  0.00  0.00    +0.017 C 
ATOM     27  C   UNL     1      -2.644  -4.723  -2.949  0.00  0.00    -0.074 C 
ATOM     28  N   UNL     1      -3.167  -5.073  -1.619  0.00  0.00    +0.383 N 
ATOM     29  C   UNL     1      -3.236  -6.530  -1.467  0.00  0.00    -0.043 C 
ATOM     30  H   UNL     1      -2.479  -4.679  -0.856  0.00  0.00    -0.081 HD
ENDBRANCH  19  28
ENDBRANCH   1  19
TORSDOF 3
