REMARK  Name = ZINC32879145
REMARK  4 active torsions:
REMARK  status: ('A' for Active; 'I' for Inactive)
REMARK    1  A    between atoms: C_8  and  C_26
REMARK    2  A    between atoms: N_10  and  C_12
REMARK    3  A    between atoms: C_12  and  C_13
REMARK    4  A    between atoms: N_15  and  C_16
REMARK                            x       y       z     vdW  Elec       q    Type
REMARK                         _______ _______ _______ _____ _____    ______ ____
ROOT
ATOM      1  C   UNL     1       1.894   1.471  -0.462  0.00  0.00    +0.000 A 
ATOM      2  C   UNL     1       0.647   1.956  -0.114  0.00  0.00    +0.000 A 
ATOM      3  C   UNL     1      -0.397   1.079   0.102  0.00  0.00    +0.002 A 
ATOM      4  C   UNL     1      -0.202  -0.288  -0.031  0.00  0.00    -0.061 A 
ATOM      5  C   UNL     1       1.040  -0.771  -0.381  0.00  0.00    -0.047 A 
ATOM      6  C   UNL     1       2.088   0.111  -0.596  0.00  0.00    +0.004 A 
ATOM      7  C   UNL     1       1.298  -2.247  -0.543  0.00  0.00    +0.029 C 
ATOM      8  C   UNL     1       0.180  -3.049   0.123  0.00  0.00    +0.024 C 
ATOM      9  N   UNL     1      -1.113  -2.532  -0.352  0.00  0.00    +0.396 N 
ATOM     10  C   UNL     1      -1.370  -1.206   0.219  0.00  0.00    -0.041 C 
ATOM     11  H   UNL     1      -1.070  -2.433  -1.447  0.00  0.00    -0.080 HD
ENDROOT
BRANCH   8  12
ATOM     12  C   UNL     1       0.309  -4.505  -0.242  0.00  0.00    +0.197 C 
ATOM     13  O   UNL     1      -0.167  -4.914  -1.281  0.00  0.00    -0.278 OA
ATOM     14  N   UNL     1       0.952  -5.354   0.584  0.00  0.00    -0.331 N 
ATOM     15  H   UNL     1       1.046  -6.417   0.317  0.00  0.00    +0.145 HD
ATOM     16  H   UNL     1       1.383  -4.983   1.526  0.00  0.00    +0.145 HD
ENDBRANCH   8  12
BRANCH   9  17
ATOM     17  C   UNL     1      -2.202  -3.463  -0.032  0.00  0.00    +0.020 C 
BRANCH  17  18
ATOM     18  C   UNL     1      -3.436  -3.079  -0.807  0.00  0.00    +0.201 C 
ATOM     19  O   UNL     1      -3.411  -2.123  -1.552  0.00  0.00    -0.278 OA
ATOM     20  N   UNL     1      -4.568  -3.797  -0.671  0.00  0.00    -0.286 N 
ATOM     21  H   UNL     1      -4.618  -4.611   0.068  0.00  0.00    +0.155 HD
BRANCH  20  22
ATOM     22  C   UNL     1      -5.677  -3.509  -1.467  0.00  0.00    +0.043 A 
ATOM     23  C   UNL     1      -5.524  -2.814  -2.648  0.00  0.00    +0.024 A 
ATOM     24  C   UNL     1      -6.625  -2.523  -3.447  0.00  0.00    +0.004 A 
ATOM     25  C   UNL     1      -7.879  -2.915  -3.089  0.00  0.00    +0.028 A 
ATOM     26  C   UNL     1      -8.080  -3.625  -1.893  0.00  0.00    +0.073 A 
ATOM     27  C   UNL     1      -6.964  -3.931  -1.075  0.00  0.00    +0.022 A 
ATOM     28  C   UNL     1      -7.169  -4.637   0.123  0.00  0.00    +0.013 A 
ATOM     29  C   UNL     1      -8.445  -5.009   0.443  0.00  0.00    +0.020 A 
ATOM     30  C   UNL     1      -9.498  -4.681  -0.408  0.00  0.00    +0.111 A 
ATOM     31  N   UNL     1      -9.303  -4.018  -1.522  0.00  0.00    -0.255 NA
ENDBRANCH  20  22
ENDBRANCH  17  18
ENDBRANCH   9  17
TORSDOF 4
