REMARK  Name = ZINC15792100
REMARK  5 active torsions:
REMARK  status: ('A' for Active; 'I' for Inactive)
REMARK    1  A    between atoms: C_1  and  C_2
REMARK    2  A    between atoms: C_7  and  N_12
REMARK    3  A    between atoms: C_9  and  C_11
REMARK    4  A    between atoms: C_13  and  C_15
REMARK    5  A    between atoms: C_16  and  C_17
REMARK                            x       y       z     vdW  Elec       q    Type
REMARK                         _______ _______ _______ _____ _____    ______ ____
ROOT
ATOM      1  N   UNL     1       1.397   3.520   0.008  0.00  0.00    -0.309 N 
ATOM      2  C   UNL     1       2.441   4.211  -0.492  0.00  0.00    +0.237 C 
ATOM      3  O   UNL     1       3.401   3.618  -0.950  0.00  0.00    -0.271 OA
ATOM      4  H   UNL     1       0.632   3.993   0.372  0.00  0.00    +0.149 HD
ENDROOT
BRANCH   1  10
ATOM      5  C   UNL     1      -1.433  -0.534   0.013  0.00  0.00    +0.008 C 
ATOM      6  C   UNL     1       0.002  -0.004   0.002  0.00  0.00    -0.009 C 
ATOM      7  C   UNL     1       0.742  -0.511   1.242  0.00  0.00    +0.003 C 
ATOM      8  C   UNL     1       2.178   0.019   1.231  0.00  0.00    +0.002 C 
ATOM      9  C   UNL     1       2.157   1.548   1.239  0.00  0.00    +0.022 C 
ATOM     10  C   UNL     1       1.417   2.055  -0.000  0.00  0.00    +0.076 C 
ATOM     11  C   UNL     1      -0.019   1.526   0.010  0.00  0.00    +0.009 C 
ATOM     12  C   UNL     1      -0.735   2.019   1.269  0.00  0.00    +0.009 C 
ENDBRANCH   1  10
BRANCH   2  13
ATOM     13  C   UNL     1       2.421   5.626  -0.484  0.00  0.00    +0.071 C 
ATOM     14  C   UNL     1       3.473   6.321  -0.987  0.00  0.00    +0.051 C 
BRANCH  14  15
ATOM     15  C   UNL     1       3.453   7.736  -0.979  0.00  0.00    +0.129 A 
ATOM     16  C   UNL     1       4.451   8.565  -1.451  0.00  0.00    +0.050 A 
ATOM     17  C   UNL     1       4.008   9.880  -1.245  0.00  0.00    +0.057 A 
ATOM     18  C   UNL     1       2.788   9.805  -0.662  0.00  0.00    +0.171 A 
ATOM     19  O   UNL     1       2.459   8.515  -0.504  0.00  0.00    -0.449 OA
ATOM     20 BR   UNL     1       1.722  11.281  -0.154  0.00  0.00    -0.008 Br
ENDBRANCH  14  15
ENDBRANCH   2  13
TORSDOF 3
