REMARK  Name = ZINC04863049
REMARK  4 active torsions:
REMARK  status: ('A' for Active; 'I' for Inactive)
REMARK    1  A    between atoms: C_1  and  C_2
REMARK    2  A    between atoms: C_5  and  C_7
REMARK    3  A    between atoms: N_8  and  N_9
REMARK    4  A    between atoms: C_18  and  C_20
REMARK                            x       y       z     vdW  Elec       q    Type
REMARK                         _______ _______ _______ _____ _____    ______ ____
ROOT
ATOM      1  N   UNL     1       1.840  -2.631  -1.554  0.00  0.00    -0.205 N 
ATOM      2  C   UNL     1       0.904  -1.998  -0.757  0.00  0.00    +0.236 A 
ATOM      3  N   UNL     1       0.076  -2.738  -0.044  0.00  0.00    -0.213 NA
ATOM      4  C   UNL     1      -0.845  -2.163   0.740  0.00  0.00    +0.077 A 
ATOM      5  C   UNL     1      -1.740  -2.920   1.510  0.00  0.00    +0.029 A 
ATOM      6  C   UNL     1      -2.659  -2.285   2.292  0.00  0.00    +0.017 A 
ATOM      7  C   UNL     1      -2.724  -0.894   2.338  0.00  0.00    +0.019 A 
ATOM      8  C   UNL     1      -1.868  -0.128   1.602  0.00  0.00    +0.027 A 
ATOM      9  C   UNL     1      -0.913  -0.748   0.789  0.00  0.00    +0.028 A 
ATOM     10  C   UNL     1       0.002  -0.004   0.002  0.00  0.00    +0.084 A 
ATOM     11  N   UNL     1       0.872  -0.668  -0.746  0.00  0.00    -0.213 NA
ATOM     12 BR   UNL     1      -4.015  -0.057   3.437  0.00  0.00    -0.050 Br
ATOM     13  H   UNL     1       2.459  -2.107  -2.087  0.00  0.00    +0.177 HD
ENDROOT
BRANCH  10  14
ATOM     14  C   UNL     1      -0.018   1.476   0.010  0.00  0.00    +0.001 A 
ATOM     15  C   UNL     1       0.086   2.185  -1.187  0.00  0.00    +0.010 A 
ATOM     16  C   UNL     1       0.062   3.564  -1.173  0.00  0.00    +0.001 A 
ATOM     17  C   UNL     1      -0.054   4.245   0.025  0.00  0.00    +0.000 A 
ATOM     18  C   UNL     1      -0.153   3.548   1.217  0.00  0.00    +0.001 A 
ATOM     19  C   UNL     1      -0.135   2.168   1.216  0.00  0.00    +0.010 A 
ENDBRANCH  10  14
BRANCH   1  21
ATOM     20  C   UNL     1       2.776  -4.627  -2.342  0.00  0.00    +0.176 C 
ATOM     21  N   UNL     1       1.895  -4.031  -1.593  0.00  0.00    -0.184 NA
BRANCH  20  26
ATOM     22  C   UNL     1       1.724  -9.436  -1.414  0.00  0.00    +0.086 C 
ATOM     23  C   UNL     1       2.378  -8.202  -1.981  0.00  0.00    +0.103 A 
ATOM     24  C   UNL     1       3.403  -8.188  -2.857  0.00  0.00    +0.045 A 
ATOM     25  C   UNL     1       3.700  -6.839  -3.126  0.00  0.00    +0.051 A 
ATOM     26  C   UNL     1       2.834  -6.091  -2.383  0.00  0.00    +0.148 A 
ATOM     27  O   UNL     1       2.037  -6.934  -1.696  0.00  0.00    -0.459 OA
ENDBRANCH  20  26
ENDBRANCH   1  21
TORSDOF 3
