REMARK  Name = ZINC20487772
REMARK  10 active torsions:
REMARK  status: ('A' for Active; 'I' for Inactive)
REMARK    1  A    between atoms: C_1  and  C_2
REMARK    2  A    between atoms: C_2  and  C_3
REMARK    3  A    between atoms: C_3  and  C_4
REMARK    4  A    between atoms: C_4  and  C_6
REMARK    5  A    between atoms: C_4  and  N_7
REMARK    6  A    between atoms: C_8  and  C_10
REMARK    7  A    between atoms: C_10  and  C_12
REMARK    8  A    between atoms: C_10  and  N_13
REMARK    9  A    between atoms: N_13  and  C_14
REMARK   10  A    between atoms: C_17  and  C_21
REMARK                            x       y       z     vdW  Elec       q    Type
REMARK                         _______ _______ _______ _____ _____    ______ ____
ROOT
ATOM      1  C   UNL     1       2.462   0.920  -0.017  0.00  0.00    +0.154 C 
ATOM      2  C   UNL     1       2.543   0.048  -1.271  0.00  0.00    +0.038 C 
ENDROOT
BRANCH   1   4
ATOM      3  N   UNL     1      -0.011   0.966   0.007  0.00  0.00    -0.311 N 
ATOM      4  C   UNL     1       1.147   1.655   0.000  0.00  0.00    +0.233 C 
ATOM      5  O   UNL     1       1.130   2.868   0.007  0.00  0.00    -0.274 OA
ATOM      6  H   UNL     1       0.004  -0.134   0.006  0.00  0.00    +0.149 HD
BRANCH   3   7
ATOM      7  C   UNL     1      -1.290   1.681   0.017  0.00  0.00    +0.070 C 
ATOM      8  C   UNL     1      -1.680   2.047  -1.416  0.00  0.00    +0.028 C 
BRANCH   7   9
ATOM      9  C   UNL     1      -2.370   0.786   0.627  0.00  0.00    +0.022 C 
BRANCH   9  11
ATOM     10  C   UNL     1      -3.123  -0.374   2.708  0.00  0.00    +0.004 C 
ATOM     11  C   UNL     1      -2.043   0.521   2.098  0.00  0.00    -0.002 C 
ENDBRANCH   9  11
ENDBRANCH   7   9
ENDBRANCH   3   7
ENDBRANCH   1   4
BRANCH   1  12
ATOM     12  N   UNL     1       3.565   1.890  -0.022  0.00  0.00    -0.331 N 
ATOM     13  H   UNL     1       3.405   2.903  -0.417  0.00  0.00    +0.147 HD
BRANCH  12  14
ATOM     14  C   UNL     1       4.728   1.329   0.516  0.00  0.00    +0.056 A 
ATOM     15  C   UNL     1       4.735   0.863   1.825  0.00  0.00    +0.040 A 
ATOM     16  C   UNL     1       5.884   0.304   2.351  0.00  0.00    +0.020 A 
ATOM     17  C   UNL     1       7.029   0.219   1.580  0.00  0.00    -0.048 A 
ATOM     18  C   UNL     1       7.027   0.687   0.279  0.00  0.00    +0.020 A 
ATOM     19  C   UNL     1       5.880   1.242  -0.256  0.00  0.00    +0.040 A 
ATOM     20 BR   UNL     1       5.878   1.881  -2.036  0.00  0.00    -0.048 Br
ATOM     21  C   UNL     1       8.283  -0.385   2.160  0.00  0.00    +0.044 C 
ATOM     22 BR   UNL     1       3.172   0.986   2.882  0.00  0.00    -0.048 Br
ENDBRANCH  12  14
ENDBRANCH   1  12
TORSDOF 6
