REMARK  Name = ZINC12377717
REMARK  6 active torsions:
REMARK  status: ('A' for Active; 'I' for Inactive)
REMARK    1  A    between atoms: C_4  and  N_7
REMARK    2  A    between atoms: N_9  and  C_30
REMARK    3  A    between atoms: C_12  and  C_15
REMARK    4  A    between atoms: C_15  and  C_16
REMARK    5  A    between atoms: N_18  and  C_19
REMARK    6  A    between atoms: C_20  and  C_28
REMARK                            x       y       z     vdW  Elec       q    Type
REMARK                         _______ _______ _______ _____ _____    ______ ____
ROOT
ATOM      1  N   UNL     1       3.713  -0.378   0.264  0.00  0.00    -0.225 NA
ATOM      2  C   UNL     1       3.884  -1.467   0.977  0.00  0.00    +0.168 C 
ATOM      3  N   UNL     1       2.955  -2.136   1.748  0.00  0.00    -0.218 N 
ATOM      4  C   UNL     1       3.253  -3.232   2.425  0.00  0.00    +0.239 C 
ATOM      5  O   UNL     1       2.432  -3.815   3.100  0.00  0.00    -0.274 OA
ATOM      6  C   UNL     1       4.689  -3.715   2.304  0.00  0.00    +0.149 C 
ATOM      7  S   UNL     1       5.373  -2.435   1.172  0.00  0.00    -0.076 S 
ENDROOT
BRANCH   1  11
ATOM      8  C   UNL     1       0.179   1.756   0.560  0.00  0.00    +0.000 A 
ATOM      9  C   UNL     1       1.062   1.735   1.625  0.00  0.00    +0.002 A 
ATOM     10  C   UNL     1       2.242   1.026   1.533  0.00  0.00    +0.028 A 
ATOM     11  C   UNL     1       2.543   0.327   0.362  0.00  0.00    +0.067 A 
ATOM     12  C   UNL     1       1.647   0.352  -0.709  0.00  0.00    +0.028 A 
ATOM     13  C   UNL     1       0.471   1.066  -0.603  0.00  0.00    +0.002 A 
ENDBRANCH   1  11
BRANCH   3  14
ATOM     14  C   UNL     1       1.647  -1.636   1.815  0.00  0.00    +0.043 A 
ATOM     15  C   UNL     1       0.783  -1.802   0.741  0.00  0.00    +0.024 A 
ATOM     16  C   UNL     1      -0.505  -1.308   0.810  0.00  0.00    +0.002 A 
ATOM     17  C   UNL     1      -0.934  -0.649   1.948  0.00  0.00    +0.000 A 
ATOM     18  C   UNL     1      -0.076  -0.482   3.019  0.00  0.00    +0.002 A 
ATOM     19  C   UNL     1       1.212  -0.979   2.958  0.00  0.00    +0.024 A 
ENDBRANCH   3  14
BRANCH   6  20
ATOM     20  C   UNL     1       5.396  -3.698   3.661  0.00  0.00    +0.120 C 
BRANCH  20  21
ATOM     21  C   UNL     1       6.771  -4.297   3.519  0.00  0.00    +0.219 C 
ATOM     22  O   UNL     1       7.149  -4.698   2.439  0.00  0.00    -0.275 OA
ATOM     23  N   UNL     1       7.581  -4.387   4.593  0.00  0.00    -0.279 N 
ATOM     24  H   UNL     1       7.279  -4.066   5.457  0.00  0.00    +0.155 HD
BRANCH  23  25
ATOM     25  C   UNL     1       8.848  -4.939   4.462  0.00  0.00    +0.090 A 
ATOM     26  C   UNL     1       9.806  -5.116   5.447  0.00  0.00    +0.084 A 
ATOM     27  C   UNL     1      11.063  -5.723   5.050  0.00  0.00    -0.018 A 
ATOM     28  C   UNL     1      11.133  -6.042   3.738  0.00  0.00    -0.004 A 
ATOM     29  S   UNL     1       9.569  -5.551   3.074  0.00  0.00    -0.077 S 
ATOM     30  C   UNL     1      12.289  -6.675   3.027  0.00  0.00    +0.043 C 
ATOM     31  C   UNL     1      13.528  -6.566   3.927  0.00  0.00    +0.005 C 
ATOM     32  C   UNL     1      13.155  -7.023   5.341  0.00  0.00    +0.005 C 
ATOM     33  C   UNL     1      12.226  -5.996   5.992  0.00  0.00    +0.037 C 
BRANCH  26  34
ATOM     34  C   UNL     1       9.565  -4.716   6.801  0.00  0.00    +0.102 C 
ATOM     35  N   UNL     1       9.375  -4.399   7.875  0.00  0.00    -0.191 NA
ENDBRANCH  26  34
ENDBRANCH  23  25
ENDBRANCH  20  21
ENDBRANCH   6  20
TORSDOF 6
