REMARK  Name = ZINC14981031
REMARK  5 active torsions:
REMARK  status: ('A' for Active; 'I' for Inactive)
REMARK    1  A    between atoms: C_7  and  C_14
REMARK    2  A    between atoms: N_9  and  C_10
REMARK    3  A    between atoms: C_10  and  C_11
REMARK    4  A    between atoms: C_14  and  N_54
REMARK    5  A    between atoms: C_15  and  N_54
REMARK                            x       y       z     vdW  Elec       q    Type
REMARK                         _______ _______ _______ _____ _____    ______ ____
ROOT
ATOM      1  N   UNL     1      -5.714   4.316   0.194  0.00  0.00    +0.385 N 
ATOM      2  H   UNL     1      -6.408   5.005  -0.119  0.00  0.00    -0.085 HD
ATOM      3  H   UNL     1      -5.705   3.521  -0.456  0.00  0.00    -0.085 HD
ENDROOT
BRANCH   1   4
ATOM      4  C   UNL     1      -4.379   4.942   0.214  0.00  0.00    -0.054 C 
ATOM      5  C   UNL     1      -4.273   5.939  -0.944  0.00  0.00    -0.013 C 
ATOM      6  C   UNL     1      -2.866   6.542  -0.961  0.00  0.00    +0.017 C 
ATOM      7  C   UNL     1      -1.836   5.417  -1.088  0.00  0.00    +0.107 C 
ATOM      8  N   UNL     1      -1.977   4.492   0.043  0.00  0.00    -0.311 N 
ATOM      9  C   UNL     1      -3.305   3.864   0.053  0.00  0.00    +0.091 C 
ATOM     10  C   UNL     1      -0.980   3.538   0.030  0.00  0.00    +0.162 A 
ATOM     11  N   UNL     1      -1.091   2.229   0.019  0.00  0.00    -0.225 NA
ATOM     12  C   UNL     1      -0.017   1.410   0.010  0.00  0.00    +0.080 A 
ATOM     13  C   UNL     1       0.002  -0.004   0.002  0.00  0.00    +0.029 A 
ATOM     14  C   UNL     1       1.190  -0.688  -0.013  0.00  0.00    +0.002 A 
ATOM     15  C   UNL     1       2.408  -0.025  -0.021  0.00  0.00    +0.001 A 
ATOM     16  C   UNL     1       2.426   1.358  -0.013  0.00  0.00    +0.017 A 
ATOM     17  C   UNL     1       1.242   2.051   0.001  0.00  0.00    +0.041 A 
ATOM     18  S   UNL     1       0.792   3.770   0.014  0.00  0.00    -0.052 S 
ENDBRANCH   1   4
BRANCH   1  19
ATOM     19  C   UNL     1      -6.077   3.838   1.542  0.00  0.00    -0.044 C 
BRANCH  19  26
ATOM     20  C   UNL     1      -7.608  -0.370   0.158  0.00  0.00    +0.001 A 
ATOM     21  C   UNL     1      -8.982  -0.517   0.292  0.00  0.00    +0.002 A 
ATOM     22  C   UNL     1      -9.752   0.508   0.795  0.00  0.00    +0.026 A 
ATOM     23  C   UNL     1      -9.151   1.708   1.163  0.00  0.00    +0.050 A 
ATOM     24  C   UNL     1      -7.758   1.852   1.022  0.00  0.00    +0.001 A 
ATOM     25  C   UNL     1      -6.996   0.797   0.517  0.00  0.00    +0.010 A 
ATOM     26  C   UNL     1      -7.442   3.204   1.490  0.00  0.00    -0.039 A 
ATOM     27  C   UNL     1      -8.601   3.772   1.860  0.00  0.00    +0.089 A 
ATOM     28  N   UNL     1      -9.633   2.893   1.671  0.00  0.00    -0.338 N 
BRANCH  28  29
ATOM     29  C   UNL     1     -11.040   3.172   1.966  0.00  0.00    +0.217 C 
BRANCH  29  30
ATOM     30  C   UNL     1     -11.375   2.662   3.344  0.00  0.00    +0.230 C 
ATOM     31  O   UNL     1     -10.522   2.120   4.014  0.00  0.00    -0.274 OA
ATOM     32  N   UNL     1     -12.623   2.809   3.833  0.00  0.00    -0.328 N 
ATOM     33  H   UNL     1     -13.305   3.243   3.297  0.00  0.00    +0.145 HD
ATOM     34  H   UNL     1     -12.838   2.481   4.720  0.00  0.00    +0.145 HD
ENDBRANCH  29  30
ENDBRANCH  28  29
ENDBRANCH  19  26
ENDBRANCH   1  19
TORSDOF 5
