REMARK  Name = ZINC18243861
REMARK  4 active torsions:
REMARK  status: ('A' for Active; 'I' for Inactive)
REMARK    1  A    between atoms: C_4  and  C_7
REMARK    2  A    between atoms: C_7  and  O_9
REMARK    3  A    between atoms: O_9  and  C_10
REMARK    4  A    between atoms: C_13  and  N_16
REMARK                            x       y       z     vdW  Elec       q    Type
REMARK                         _______ _______ _______ _____ _____    ______ ____
ROOT
ATOM      1  C   UNL     1       2.388   1.400  -0.006  0.00  0.00    +0.132 A 
ATOM      2  C   UNL     1       1.171   2.062  -0.080  0.00  0.00    +0.048 A 
ATOM      3  C   UNL     1      -0.008   1.343  -0.065  0.00  0.00    +0.027 A 
ATOM      4  C   UNL     1       0.025  -0.042   0.023  0.00  0.00    +0.044 A 
ATOM      5  C   UNL     1       1.244  -0.704   0.096  0.00  0.00    +0.027 A 
ATOM      6  C   UNL     1       2.422   0.016   0.082  0.00  0.00    +0.048 A 
ENDROOT
BRANCH   4   7
ATOM      7  N   UNL     1      -1.172  -0.774   0.038  0.00  0.00    -0.210 N 
ATOM      8  C   UNL     1      -2.399  -0.195  -0.024  0.00  0.00    +0.230 C 
ATOM      9  O   UNL     1      -2.646   0.959  -0.306  0.00  0.00    -0.274 OA
ATOM     10  C   UNL     1      -3.387  -1.265   0.322  0.00  0.00    +0.092 C 
ATOM     11  C   UNL     1      -4.726  -1.265  -0.384  0.00  0.00    +0.040 C 
ATOM     12  C   UNL     1      -5.366  -2.611  -0.115  0.00  0.00    -0.030 C 
ATOM     13  C   UNL     1      -4.719  -3.662   0.292  0.00  0.00    -0.030 C 
ATOM     14  C   UNL     1      -3.224  -3.705   0.532  0.00  0.00    +0.040 C 
ATOM     15  C   UNL     1      -2.626  -2.523  -0.200  0.00  0.00    +0.092 C 
ATOM     16  C   UNL     1      -1.216  -2.129   0.122  0.00  0.00    +0.230 C 
ATOM     17  O   UNL     1      -0.299  -2.871   0.401  0.00  0.00    -0.274 OA
ENDBRANCH   4   7
BRANCH   1  18
ATOM     18  O   UNL     1       3.548   2.109  -0.020  0.00  0.00    -0.422 OA
BRANCH  18  19
ATOM     19  C   UNL     1       4.323   1.992  -1.116  0.00  0.00    +0.344 C 
ATOM     20  O   UNL     1       3.927   1.363  -2.076  0.00  0.00    -0.245 OA
BRANCH  19  24
ATOM     21  C   UNL     1       8.153   3.824  -1.213  0.00  0.00    +0.000 A 
ATOM     22  C   UNL     1       7.704   3.108  -2.308  0.00  0.00    +0.001 A 
ATOM     23  C   UNL     1       6.461   2.510  -2.283  0.00  0.00    +0.015 A 
ATOM     24  C   UNL     1       5.655   2.629  -1.149  0.00  0.00    +0.059 A 
ATOM     25  C   UNL     1       6.112   3.358  -0.050  0.00  0.00    +0.015 A 
ATOM     26  C   UNL     1       7.360   3.946  -0.086  0.00  0.00    +0.001 A 
ENDBRANCH  19  24
ENDBRANCH  18  19
ENDBRANCH   1  18
TORSDOF 4
