REMARK  Name = ZINC12977791
REMARK  5 active torsions:
REMARK  status: ('A' for Active; 'I' for Inactive)
REMARK    1  A    between atoms: C_1  and  C_2
REMARK    2  A    between atoms: C_4  and  C_29
REMARK    3  A    between atoms: C_6  and  N_8
REMARK    4  A    between atoms: C_9  and  C_11
REMARK    5  A    between atoms: C_17  and  C_19
REMARK                            x       y       z     vdW  Elec       q    Type
REMARK                         _______ _______ _______ _____ _____    ______ ____
ROOT
ATOM      1  C   UNL     1       1.227  -4.125  -2.517  0.00  0.00    +0.162 C 
ATOM      2  C   UNL     1       1.879  -4.414  -3.886  0.00  0.00    +0.033 C 
ATOM      3  C   UNL     1       1.710  -3.071  -4.645  0.00  0.00    +0.021 C 
ATOM      4  C   UNL     1       1.882  -2.043  -3.499  0.00  0.00    +0.108 C 
ATOM      5  N   UNL     1       1.231  -2.666  -2.332  0.00  0.00    -0.289 N 
ATOM      6  C   UNL     1       0.728  -2.008  -1.269  0.00  0.00    +0.222 C 
ATOM      7  O   UNL     1       0.288  -2.629  -0.324  0.00  0.00    -0.275 OA
ENDROOT
BRANCH   6   8
ATOM      8  C   UNL     1       0.712  -0.501  -1.254  0.00  0.00    +0.048 C 
ATOM      9  C   UNL     1       0.184  -0.010   0.096  0.00  0.00    +0.019 C 
ATOM     10  C   UNL     1       0.168   1.520   0.111  0.00  0.00    -0.009 C 
ATOM     11  C   UNL     1       1.588   2.047  -0.103  0.00  0.00    +0.007 C 
ATOM     12  C   UNL     1       2.116   1.556  -1.452  0.00  0.00    -0.009 C 
ATOM     13  C   UNL     1       2.132   0.026  -1.468  0.00  0.00    +0.019 C 
ATOM     14  C   UNL     1       1.208   2.068  -2.572  0.00  0.00    +0.007 C 
ATOM     15  C   UNL     1      -0.212   1.541  -2.358  0.00  0.00    -0.009 C 
ATOM     16  C   UNL     1      -0.740   2.031  -1.009  0.00  0.00    +0.007 C 
ATOM     17  C   UNL     1      -0.196   0.011  -2.373  0.00  0.00    +0.019 C 
ENDBRANCH   6   8
BRANCH   1  19
ATOM     18  N   UNL     1       2.150  -6.124  -1.392  0.00  0.00    -0.284 N 
ATOM     19  C   UNL     1       2.021  -4.783  -1.419  0.00  0.00    +0.238 C 
ATOM     20  O   UNL     1       2.544  -4.106  -0.559  0.00  0.00    -0.273 OA
ATOM     21  H   UNL     1       1.790  -6.661  -2.114  0.00  0.00    +0.155 HD
BRANCH  18  27
ATOM     22  C   UNL     1       2.553  -9.929   1.696  0.00  0.00    +0.044 C 
ATOM     23  C   UNL     1       3.022  -8.586   1.196  0.00  0.00    -0.048 A 
ATOM     24  C   UNL     1       4.101  -7.964   1.797  0.00  0.00    +0.006 A 
ATOM     25  C   UNL     1       4.534  -6.733   1.341  0.00  0.00    -0.048 A 
ATOM     26  C   UNL     1       3.890  -6.120   0.284  0.00  0.00    +0.026 A 
ATOM     27  C   UNL     1       2.806  -6.742  -0.321  0.00  0.00    +0.034 A 
ATOM     28  C   UNL     1       2.369  -7.977   0.143  0.00  0.00    +0.026 A 
ATOM     29  C   UNL     1       5.710  -6.058   1.999  0.00  0.00    +0.044 C 
ENDBRANCH  18  27
ENDBRANCH   1  19
TORSDOF 3
