REMARK  Name = ZINC02283544
REMARK  7 active torsions:
REMARK  status: ('A' for Active; 'I' for Inactive)
REMARK    1  A    between atoms: C_1  and  C_2
REMARK    2  A    between atoms: C_2  and  C_3
REMARK    3  A    between atoms: C_2  and  C_4
REMARK    4  A    between atoms: C_2  and  C_5
REMARK    5  A    between atoms: C_14  and  N_20
REMARK    6  A    between atoms: C_16  and  S_18
REMARK    7  A    between atoms: S_18  and  C_19
REMARK                            x       y       z     vdW  Elec       q    Type
REMARK                         _______ _______ _______ _____ _____    ______ ____
ROOT
ATOM      1  C   UNL     1      -0.979   3.056   1.203  0.00  0.00    -0.000 C 
ATOM      2  C   UNL     1      -0.774   1.540   1.269  0.00  0.00    +0.009 C 
ATOM      3  C   UNL     1      -0.042   1.061   0.015  0.00  0.00    +0.037 C 
ATOM      4  C   UNL     1      -0.781   1.571  -1.219  0.00  0.00    -0.025 A 
ATOM      5  C   UNL     1      -1.650   2.602  -1.121  0.00  0.00    -0.004 A 
ATOM      6  S   UNL     1      -2.265   2.854  -2.768  0.00  0.00    -0.073 S 
ATOM      7  C   UNL     1      -1.359   1.581  -3.586  0.00  0.00    +0.115 A 
ATOM      8  C   UNL     1      -0.599   0.994  -2.541  0.00  0.00    +0.051 A 
ATOM      9  C   UNL     1       0.255  -0.089  -2.895  0.00  0.00    +0.139 A 
ATOM     10  N   UNL     1       0.249  -0.441  -4.177  0.00  0.00    -0.206 NA
ATOM     11  C   UNL     1      -0.488   0.154  -5.104  0.00  0.00    +0.191 A 
ATOM     12  N   UNL     1      -1.308   1.173  -4.837  0.00  0.00    -0.215 NA
ATOM     13  C   UNL     1      -2.015   3.368   0.114  0.00  0.00    +0.046 C 
ENDROOT
BRANCH   9  14
ATOM     14  N   UNL     1       1.044  -0.740  -1.957  0.00  0.00    -0.254 N 
ATOM     15  C   UNL     1       1.749  -1.833  -2.311  0.00  0.00    +0.302 C 
ATOM     16  O   UNL     1       1.692  -2.249  -3.452  0.00  0.00    -0.253 OA
ATOM     17  N   UNL     1       2.516  -2.465  -1.400  0.00  0.00    -0.313 N 
ATOM     18  H   UNL     1       1.089  -0.408  -1.047  0.00  0.00    +0.158 HD
ATOM     19  H   UNL     1       2.561  -2.132  -0.490  0.00  0.00    +0.146 HD
ATOM     20  H   UNL     1       3.022  -3.251  -1.655  0.00  0.00    +0.146 HD
ENDBRANCH   9  14
BRANCH   1  22
ATOM     21  C   UNL     1      -2.808   2.872   2.896  0.00  0.00    +0.011 C 
ATOM     22  C   UNL     1      -1.487   3.564   2.554  0.00  0.00    -0.035 C 
ATOM     23  C   UNL     1      -0.453   3.251   3.638  0.00  0.00    +0.011 C 
ATOM     24  C   UNL     1      -1.707   5.076   2.481  0.00  0.00    +0.011 C 
ENDBRANCH   1  22
BRANCH  11  25
ATOM     25  S   UNL     1      -0.383  -0.429  -6.763  0.00  0.00    -0.089 S 
ATOM     26  C   UNL     1      -1.551   0.697  -7.566  0.00  0.00    +0.093 C 
ENDBRANCH  11  25
TORSDOF 3
