REMARK  Name = ZINC39360366
REMARK  5 active torsions:
REMARK  status: ('A' for Active; 'I' for Inactive)
REMARK    1  A    between atoms: C_3  and  C_8
REMARK    2  A    between atoms: C_13  and  C_18
REMARK    3  A    between atoms: N_20  and  C_21
REMARK    4  A    between atoms: C_21  and  C_22
REMARK    5  A    between atoms: C_25  and  C_27
REMARK                            x       y       z     vdW  Elec       q    Type
REMARK                         _______ _______ _______ _____ _____    ______ ____
ROOT
ATOM      1  C   UNL     1       3.672   2.186  -0.021  0.00  0.00    +0.292 C 
ATOM      2  N   UNL     1       4.718   1.414  -0.705  0.00  0.00    -0.303 N 
ATOM      3  C   UNL     1       5.728   1.197   0.244  0.00  0.00    +0.073 A 
ATOM      4  C   UNL     1       6.938   0.531   0.144  0.00  0.00    +0.039 A 
ATOM      5  C   UNL     1       7.783   0.453   1.253  0.00  0.00    +0.039 A 
ATOM      6  C   UNL     1       7.402   1.048   2.458  0.00  0.00    +0.017 A 
ATOM      7  C   UNL     1       6.197   1.709   2.551  0.00  0.00    +0.048 A 
ATOM      8  C   UNL     1       5.352   1.790   1.448  0.00  0.00    +0.144 A 
ATOM      9  O   UNL     1       4.135   2.384   1.317  0.00  0.00    -0.465 OA
ATOM     10  H   UNL     1       4.711   1.114  -1.627  0.00  0.00    +0.150 HD
ENDROOT
BRANCH   1  13
ATOM     11  C   UNL     1      -0.017   1.377   0.010  0.00  0.00    +0.003 A 
ATOM     12  C   UNL     1       1.171   2.086   0.002  0.00  0.00    +0.009 A 
ATOM     13  C   UNL     1       2.378   1.413  -0.013  0.00  0.00    +0.014 A 
ATOM     14  C   UNL     1       2.399   0.030  -0.021  0.00  0.00    +0.047 A 
ATOM     15  C   UNL     1       1.211  -0.679  -0.013  0.00  0.00    +0.124 A 
ATOM     16  C   UNL     1       0.002  -0.004   0.002  0.00  0.00    +0.038 A 
ATOM     17  F   UNL     1       1.230  -2.030  -0.022  0.00  0.00    -0.205 F 
ENDBRANCH   1  13
BRANCH   5  18
ATOM     18  C   UNL     1       9.074  -0.256   1.153  0.00  0.00    +0.244 C 
ATOM     19  O   UNL     1       9.403  -0.774   0.103  0.00  0.00    -0.270 OA
ATOM     20  N   UNL     1       9.887  -0.330   2.225  0.00  0.00    -0.306 N 
ATOM     21  H   UNL     1       9.625   0.083   3.063  0.00  0.00    +0.149 HD
BRANCH  20  22
ATOM     22  C   UNL     1      11.168  -1.034   2.126  0.00  0.00    +0.157 C 
BRANCH  22  23
ATOM     23  C   UNL     1      11.881  -0.971   3.452  0.00  0.00    +0.064 C 
ATOM     24  N   UNL     1      11.462  -0.402   4.534  0.00  0.00    -0.157 NA
ATOM     25  N   UNL     1      12.365  -0.529   5.584  0.00  0.00    -0.158 NA
ATOM     26  C   UNL     1      13.425  -1.187   5.247  0.00  0.00    +0.050 C 
ATOM     27  C   UNL     1      13.232  -1.567   3.792  0.00  0.00    +0.107 C 
BRANCH  26  28
ATOM     28  C   UNL     1      14.607  -1.514   6.122  0.00  0.00    +0.036 C 
ATOM     29  C   UNL     1      14.362  -2.420   7.331  0.00  0.00    +0.010 C 
ATOM     30  C   UNL     1      14.625  -0.926   7.535  0.00  0.00    +0.010 C 
ENDBRANCH  26  28
ENDBRANCH  22  23
ENDBRANCH  20  22
ENDBRANCH   5  18
TORSDOF 5
