REMARK  Name = ZINC16701382
REMARK  13 active torsions:
REMARK  status: ('A' for Active; 'I' for Inactive)
REMARK    1  A    between atoms: C_1  and  C_2
REMARK    2  A    between atoms: C_4  and  N_24
REMARK    3  A    between atoms: C_7  and  S_8
REMARK    4  A    between atoms: S_8  and  N_11
REMARK    5  A    between atoms: N_11  and  C_12
REMARK    6  A    between atoms: C_13  and  C_21
REMARK    7  A    between atoms: C_17  and  C_18
REMARK    8  A    between atoms: C_18  and  C_19
REMARK    9  A    between atoms: C_18  and  C_20
REMARK   10  A    between atoms: C_21  and  C_22
REMARK   11  A    between atoms: C_21  and  C_23
REMARK   12  A    between atoms: C_27  and  C_32
REMARK   13  A    between atoms: C_27  and  C_33
REMARK                            x       y       z     vdW  Elec       q    Type
REMARK                         _______ _______ _______ _____ _____    ______ ____
ROOT
ATOM      1  C   UNL     1      -5.813   1.945   2.072  0.00  0.00    +0.046 C 
ATOM      2  C   UNL     1      -6.025   3.273   2.751  0.00  0.00    -0.022 A 
ATOM      3  C   UNL     1      -6.871   3.365   3.839  0.00  0.00    +0.030 A 
ATOM      4  C   UNL     1      -7.066   4.589   4.464  0.00  0.00    +0.060 A 
ATOM      5  C   UNL     1      -6.409   5.719   3.993  0.00  0.00    +0.027 A 
ATOM      6  C   UNL     1      -5.561   5.620   2.908  0.00  0.00    +0.031 A 
ATOM      7  C   UNL     1      -5.373   4.399   2.284  0.00  0.00    +0.111 A 
ENDROOT
BRANCH   4   8
ATOM      8  N   UNL     1      -7.923   4.685   5.566  0.00  0.00    -0.143 N 
ATOM      9  C   UNL     1      -8.950   3.868   5.841  0.00  0.00    +0.246 C 
ATOM     10  O   UNL     1      -9.198   2.921   5.125  0.00  0.00    -0.273 OA
ATOM     11  C   UNL     1      -9.783   4.149   7.056  0.00  0.00    +0.064 C 
ATOM     12  C   UNL     1      -8.981   5.078   8.004  0.00  0.00    +0.205 C 
ATOM     13  S   UNL     1      -7.851   5.846   6.771  0.00  0.00    +0.053 S 
ATOM     14  O   UNL     1      -6.509   5.834   7.237  0.00  0.00    -0.155 OA
ATOM     15  O   UNL     1      -8.430   7.017   6.213  0.00  0.00    -0.155 OA
ATOM     16  C   UNL     1     -10.109   2.838   7.774  0.00  0.00    +0.022 C 
ATOM     17  C   UNL     1     -11.080   4.840   6.632  0.00  0.00    +0.022 C 
ENDBRANCH   4   8
BRANCH   7  18
ATOM     18  S   UNL     1      -4.295   4.279   0.896  0.00  0.00    +0.073 S 
ATOM     19  O   UNL     1      -3.771   5.581   0.673  0.00  0.00    -0.150 OA
ATOM     20  O   UNL     1      -5.002   3.561  -0.106  0.00  0.00    -0.150 OA
BRANCH  18  21
ATOM     21  N   UNL     1      -3.018   3.326   1.349  0.00  0.00    -0.216 N 
ATOM     22  H   UNL     1      -2.957   2.413   1.028  0.00  0.00    +0.174 HD
BRANCH  21  23
ATOM     23  C   UNL     1      -2.030   3.838   2.193  0.00  0.00    +0.055 A 
ATOM     24  C   UNL     1      -1.115   4.766   1.712  0.00  0.00    -0.022 A 
ATOM     25  C   UNL     1      -0.136   5.266   2.547  0.00  0.00    +0.006 A 
ATOM     26  C   UNL     1      -0.069   4.848   3.864  0.00  0.00    +0.001 A 
ATOM     27  C   UNL     1      -0.982   3.928   4.348  0.00  0.00    +0.006 A 
ATOM     28  C   UNL     1      -1.963   3.425   3.517  0.00  0.00    -0.022 A 
BRANCH  28  29
ATOM     29  C   UNL     1      -2.957   2.423   4.046  0.00  0.00    +0.015 C 
ATOM     30  C   UNL     1      -3.634   2.987   5.297  0.00  0.00    +0.012 C 
ATOM     31  C   UNL     1      -2.232   1.123   4.401  0.00  0.00    +0.012 C 
ENDBRANCH  28  29
BRANCH  24  32
ATOM     32  C   UNL     1      -1.188   5.222   0.277  0.00  0.00    +0.015 C 
ATOM     33  C   UNL     1      -1.253   6.750   0.230  0.00  0.00    +0.012 C 
ATOM     34  C   UNL     1       0.056   4.742  -0.474  0.00  0.00    +0.012 C 
ENDBRANCH  24  32
ENDBRANCH  21  23
ENDBRANCH  18  21
ENDBRANCH   7  18
TORSDOF 6
