REMARK  Name = ZINC04846596
REMARK  3 active torsions:
REMARK  status: ('A' for Active; 'I' for Inactive)
REMARK    1  A    between atoms: N_9  and  C_13
REMARK    2  A    between atoms: C_13  and  C_14
REMARK    3  A    between atoms: N_19  and  C_20
REMARK                            x       y       z     vdW  Elec       q    Type
REMARK                         _______ _______ _______ _____ _____    ______ ____
ROOT
ATOM      1  C   UNL     1      -7.192   1.201   2.099  0.00  0.00    +0.240 C 
ATOM      2  O   UNL     1      -6.796   1.898   3.008  0.00  0.00    -0.274 OA
ATOM      3  N   UNL     1      -6.368   0.892   1.079  0.00  0.00    -0.239 N 
ATOM      4  C   UNL     1      -5.103   1.358   1.069  0.00  0.00    +0.306 C 
ATOM      5  O   UNL     1      -4.707   2.057   1.980  0.00  0.00    -0.252 OA
ATOM      6  N   UNL     1      -4.279   1.049   0.049  0.00  0.00    -0.294 N 
ATOM      7  H   UNL     1      -6.684   0.334   0.351  0.00  0.00    +0.159 HD
ATOM      8  H   UNL     1      -4.595   0.491  -0.679  0.00  0.00    +0.151 HD
ENDROOT
BRANCH   6   9
ATOM      9  C   UNL     1      -2.904   1.556   0.038  0.00  0.00    +0.037 C 
ATOM     10  C   UNL     1      -2.188   1.063  -1.221  0.00  0.00    +0.029 C 
ATOM     11  C   UNL     1      -0.753   1.593  -1.232  0.00  0.00    -0.008 C 
ATOM     12  C   UNL     1      -0.013   1.086   0.008  0.00  0.00    +0.007 C 
ATOM     13  C   UNL     1      -0.729   1.579   1.267  0.00  0.00    -0.008 C 
ATOM     14  C   UNL     1      -2.164   1.050   1.278  0.00  0.00    +0.029 C 
ATOM     15  C   UNL     1      -0.750   3.109   1.275  0.00  0.00    +0.007 C 
ATOM     16  C   UNL     1      -1.490   3.616   0.036  0.00  0.00    -0.008 C 
ATOM     17  C   UNL     1      -0.773   3.123  -1.223  0.00  0.00    +0.007 C 
ATOM     18  C   UNL     1      -2.925   3.086   0.047  0.00  0.00    +0.029 C 
ENDBRANCH   6   9
BRANCH   1  19
ATOM     19  C   UNL     1      -8.606   0.679   2.110  0.00  0.00    +0.230 C 
BRANCH  19  28
ATOM     20  C   UNL     1     -11.763   3.767   6.509  0.00  0.00    +0.001 A 
ATOM     21  C   UNL     1     -11.587   2.706   7.380  0.00  0.00    +0.002 A 
ATOM     22  C   UNL     1     -10.888   1.584   6.959  0.00  0.00    +0.029 A 
ATOM     23  C   UNL     1     -10.382   1.538   5.691  0.00  0.00    +0.121 A 
ATOM     24  C   UNL     1     -10.544   2.595   4.786  0.00  0.00    +0.065 A 
ATOM     25  C   UNL     1     -11.255   3.724   5.231  0.00  0.00    +0.015 A 
ATOM     26  C   UNL     1      -9.919   2.325   3.485  0.00  0.00    +0.268 C 
ATOM     27  O   UNL     1      -9.968   3.143   2.586  0.00  0.00    -0.268 OA
ATOM     28  N   UNL     1      -9.292   1.151   3.315  0.00  0.00    -0.159 N 
ATOM     29  S   UNL     1      -9.463   0.338   4.767  0.00  0.00    +0.078 S 
ATOM     30  O   UNL     1     -10.314  -0.778   4.538  0.00  0.00    -0.150 OA
ATOM     31  O   UNL     1      -8.176   0.233   5.358  0.00  0.00    -0.150 OA
ENDBRANCH  19  28
ENDBRANCH   1  19
TORSDOF 3
