REMARK  Name = ZINC15957568
REMARK  5 active torsions:
REMARK  status: ('A' for Active; 'I' for Inactive)
REMARK    1  A    between atoms: C_1  and  C_2
REMARK    2  A    between atoms: C_2  and  C_3
REMARK    3  A    between atoms: C_17  and  C_20
REMARK    4  A    between atoms: C_20  and  C_21
REMARK    5  A    between atoms: N_29  and  C_32
REMARK                            x       y       z     vdW  Elec       q    Type
REMARK                         _______ _______ _______ _____ _____    ______ ____
ROOT
ATOM      1  C   UNL     1      -1.412  -0.526   0.013  0.00  0.00    -0.026 A 
ATOM      2  C   UNL     1      -2.011  -0.863   1.209  0.00  0.00    +0.005 A 
ATOM      3  C   UNL     1      -3.308  -1.342   1.229  0.00  0.00    +0.001 A 
ATOM      4  C   UNL     1      -4.008  -1.485   0.044  0.00  0.00    +0.008 A 
ATOM      5  C   UNL     1      -3.414  -1.151  -1.152  0.00  0.00    +0.004 A 
ATOM      6  C   UNL     1      -2.111  -0.661  -1.184  0.00  0.00    +0.042 A 
ATOM      7  N   UNL     1      -1.731  -0.384  -2.499  0.00  0.00    -0.283 N 
ATOM      8  C   UNL     1      -2.714  -0.655  -3.380  0.00  0.00    +0.243 C 
ATOM      9  O   UNL     1      -2.668  -0.511  -4.583  0.00  0.00    -0.273 OA
ATOM     10  C   UNL     1      -3.874  -1.184  -2.582  0.00  0.00    +0.136 C 
ATOM     11  C   UNL     1      -5.123  -0.321  -2.792  0.00  0.00    +0.122 C 
ATOM     12  C   UNL     1      -5.958  -1.091  -3.853  0.00  0.00    +0.107 C 
ATOM     13  C   UNL     1      -5.122  -2.348  -4.178  0.00  0.00    +0.072 C 
ATOM     14  N   UNL     1      -4.251  -2.549  -2.997  0.00  0.00    -0.295 NA
ATOM     15  C   UNL     1      -5.958  -0.157  -5.042  0.00  0.00    +0.227 C 
ATOM     16  O   UNL     1      -6.505  -0.372  -6.102  0.00  0.00    -0.275 OA
ATOM     17  N   UNL     1      -5.260   0.945  -4.742  0.00  0.00    -0.238 N 
ATOM     18  C   UNL     1      -4.744   0.965  -3.492  0.00  0.00    +0.228 C 
ATOM     19  O   UNL     1      -4.085   1.859  -3.006  0.00  0.00    -0.275 OA
ATOM     20  H   UNL     1      -0.861  -0.037  -2.749  0.00  0.00    +0.155 HD
ATOM     21  H   UNL     1      -3.435  -3.093  -3.233  0.00  0.00    +0.124 HD
ENDROOT
BRANCH  17  22
ATOM     22  C   UNL     1      -5.073   2.046  -5.689  0.00  0.00    +0.084 C 
ATOM     23  C   UNL     1      -6.449   2.658  -6.022  0.00  0.00    +0.023 C 
ATOM     24  C   UNL     1      -6.238   4.050  -6.553  0.00  0.00    +0.002 C 
ATOM     25  C   UNL     1      -6.167   4.090  -8.092  0.00  0.00    +0.000 C 
ATOM     26  C   UNL     1      -5.345   2.928  -8.682  0.00  0.00    +0.000 C 
ATOM     27  C   UNL     1      -4.091   2.652  -7.898  0.00  0.00    +0.002 C 
ATOM     28  C   UNL     1      -4.390   1.541  -6.871  0.00  0.00    +0.023 C 
ENDBRANCH  17  22
BRANCH   1  30
ATOM     29  C   UNL     1      -0.019   1.526   0.010  0.00  0.00    +0.009 C 
ATOM     30  C   UNL     1       0.002  -0.004   0.002  0.00  0.00    +0.033 C 
ENDBRANCH   1  30
BRANCH  13  31
ATOM     31  C   UNL     1      -6.037  -3.554  -4.398  0.00  0.00    +0.054 C 
BRANCH  31  32
ATOM     32  C   UNL     1      -5.212  -4.738  -4.833  0.00  0.00    -0.046 A 
ATOM     33  C   UNL     1      -4.974  -4.958  -6.176  0.00  0.00    +0.004 A 
ATOM     34  C   UNL     1      -4.217  -6.044  -6.575  0.00  0.00    +0.000 A 
ATOM     35  C   UNL     1      -3.698  -6.909  -5.630  0.00  0.00    +0.000 A 
ATOM     36  C   UNL     1      -3.936  -6.688  -4.286  0.00  0.00    +0.000 A 
ATOM     37  C   UNL     1      -4.689  -5.600  -3.887  0.00  0.00    +0.004 A 
ENDBRANCH  31  32
ENDBRANCH  13  31
TORSDOF 4
