REMARK  Name = ZINC09488551
REMARK  11 active torsions:
REMARK  status: ('A' for Active; 'I' for Inactive)
REMARK    1  A    between atoms: C_1  and  C_2
REMARK    2  A    between atoms: N_5  and  S_11
REMARK    3  A    between atoms: C_7  and  C_10
REMARK    4  A    between atoms: S_11  and  C_14
REMARK    5  A    between atoms: C_17  and  C_20
REMARK    6  A    between atoms: C_20  and  N_22
REMARK    7  A    between atoms: N_24  and  C_36
REMARK    8  A    between atoms: C_27  and  O_34
REMARK    9  A    between atoms: C_28  and  O_32
REMARK   10  A    between atoms: O_32  and  C_33
REMARK   11  A    between atoms: O_34  and  C_35
REMARK                            x       y       z     vdW  Elec       q    Type
REMARK                         _______ _______ _______ _____ _____    ______ ____
ROOT
ATOM      1  C   UNL     1       2.378   1.418  -0.013  0.00  0.00    +0.106 A 
ATOM      2  C   UNL     1       1.170   2.094   0.002  0.00  0.00    +0.029 A 
ATOM      3  C   UNL     1      -0.017   1.391   0.010  0.00  0.00    +0.015 A 
ATOM      4  C   UNL     1       0.002  -0.004   0.002  0.00  0.00    +0.039 A 
ATOM      5  C   UNL     1       1.222  -0.679  -0.013  0.00  0.00    +0.015 A 
ATOM      6  C   UNL     1       2.403   0.035  -0.021  0.00  0.00    +0.029 A 
ENDROOT
BRANCH   1   7
ATOM      7  S   UNL     1       3.889   2.324  -0.023  0.00  0.00    +0.061 S 
ATOM      8  O   UNL     1       3.603   3.598   0.537  0.00  0.00    -0.153 OA
ATOM      9  O   UNL     1       4.883   1.461   0.513  0.00  0.00    -0.153 OA
BRANCH   7  13
ATOM     10  C   UNL     1       2.877   4.580  -4.492  0.00  0.00    +0.039 C 
ATOM     11  C   UNL     1       3.193   3.346  -3.644  0.00  0.00    +0.131 C 
ATOM     12  C   UNL     1       3.830   3.785  -2.321  0.00  0.00    +0.140 C 
ATOM     13  N   UNL     1       4.294   2.584  -1.608  0.00  0.00    -0.172 NA
ATOM     14  C   UNL     1       5.132   1.623  -2.343  0.00  0.00    +0.140 C 
ATOM     15  C   UNL     1       4.427   1.288  -3.667  0.00  0.00    +0.131 C 
ATOM     16  O   UNL     1       4.106   2.502  -4.349  0.00  0.00    -0.371 OA
ATOM     17  C   UNL     1       3.142   0.507  -3.382  0.00  0.00    +0.039 C 
ENDBRANCH   7  13
ENDBRANCH   1   7
BRANCH   4  18
ATOM     18  C   UNL     1      -1.269  -0.765   0.011  0.00  0.00    +0.269 C 
ATOM     19  O   UNL     1      -2.334  -0.173   0.024  0.00  0.00    -0.268 OA
BRANCH  18  20
ATOM     20  N   UNL     1      -1.248  -2.101   0.003  0.00  0.00    -0.152 NA
ATOM     21  C   UNL     1      -2.388  -2.784   0.011  0.00  0.00    +0.166 A 
ATOM     22  N   UNL     1      -2.563  -4.133  -0.000  0.00  0.00    -0.324 N 
ATOM     23  C   UNL     1      -3.841  -4.666   0.014  0.00  0.00    +0.061 A 
ATOM     24  C   UNL     1      -4.218  -6.019   0.010  0.00  0.00    +0.076 A 
ATOM     25  C   UNL     1      -5.547  -6.380   0.021  0.00  0.00    +0.164 A 
ATOM     26  C   UNL     1      -6.554  -5.416   0.036  0.00  0.00    +0.163 A 
ATOM     27  C   UNL     1      -6.204  -4.075   0.040  0.00  0.00    +0.066 A 
ATOM     28  C   UNL     1      -4.875  -3.720   0.029  0.00  0.00    +0.043 A 
ATOM     29  S   UNL     1      -4.009  -2.170   0.030  0.00  0.00    -0.052 S 
ATOM     30  C   UNL     1      -1.399  -5.022  -0.023  0.00  0.00    +0.151 C 
BRANCH  26  31
ATOM     31  O   UNL     1      -7.863  -5.787   0.047  0.00  0.00    -0.491 OA
ATOM     32  C   UNL     1      -8.834  -4.739   0.062  0.00  0.00    +0.277 C 
ENDBRANCH  26  31
BRANCH  25  33
ATOM     33  O   UNL     1      -5.882  -7.698   0.017  0.00  0.00    -0.491 OA
ATOM     34  C   UNL     1      -4.808  -8.641   0.001  0.00  0.00    +0.277 C 
ENDBRANCH  25  33
ENDBRANCH  18  20
ENDBRANCH   4  18
TORSDOF 6
