REMARK  Name = ZINC59489996
REMARK  7 active torsions:
REMARK  status: ('A' for Active; 'I' for Inactive)
REMARK    1  A    between atoms: C_1  and  N_2
REMARK    2  A    between atoms: N_6  and  N_7
REMARK    3  A    between atoms: N_7  and  C_8
REMARK    4  A    between atoms: C_11  and  N_29
REMARK    5  A    between atoms: C_13  and  S_14
REMARK    6  A    between atoms: S_14  and  N_17
REMARK    7  A    between atoms: C_20  and  C_23
REMARK                            x       y       z     vdW  Elec       q    Type
REMARK                         _______ _______ _______ _____ _____    ______ ____
ROOT
ATOM      1  C   UNL     1       3.700  -4.615   1.179  0.00  0.00    +0.075 A 
ATOM      2  C   UNL     1       4.345  -4.846  -0.030  0.00  0.00    +0.029 A 
ATOM      3  C   UNL     1       5.371  -5.767  -0.099  0.00  0.00    +0.035 A 
ATOM      4  C   UNL     1       5.757  -6.460   1.034  0.00  0.00    +0.128 A 
ATOM      5  C   UNL     1       5.117  -6.233   2.239  0.00  0.00    +0.063 A 
ATOM      6  C   UNL     1       4.094  -5.309   2.316  0.00  0.00    +0.130 A 
ENDROOT
BRANCH   6   7
ATOM      7  S   UNL     1       3.285  -5.016   3.854  0.00  0.00    +0.063 S 
ATOM      8  O   UNL     1       3.286  -3.608   4.051  0.00  0.00    -0.153 OA
ATOM      9  O   UNL     1       2.088  -5.782   3.836  0.00  0.00    -0.153 OA
BRANCH   7  10
ATOM     10  N   UNL     1       4.242  -5.660   5.042  0.00  0.00    -0.176 NA
ATOM     11  C   UNL     1       3.988  -7.013   5.555  0.00  0.00    +0.110 C 
ATOM     12  C   UNL     1       5.280  -7.830   5.454  0.00  0.00    +0.025 C 
ATOM     13  C   UNL     1       6.407  -7.085   6.174  0.00  0.00    +0.022 C 
ATOM     14  C   UNL     1       6.637  -5.730   5.500  0.00  0.00    +0.025 C 
ATOM     15  C   UNL     1       5.364  -4.893   5.598  0.00  0.00    +0.110 C 
BRANCH  13  16
ATOM     16  C   UNL     1       7.672  -7.902   6.105  0.00  0.00    -0.044 A 
ATOM     17  C   UNL     1       8.221  -8.223   4.878  0.00  0.00    +0.004 A 
ATOM     18  C   UNL     1       9.382  -8.972   4.815  0.00  0.00    +0.000 A 
ATOM     19  C   UNL     1       9.993  -9.398   5.979  0.00  0.00    +0.000 A 
ATOM     20  C   UNL     1       9.444  -9.076   7.207  0.00  0.00    +0.000 A 
ATOM     21  C   UNL     1       8.286  -8.323   7.269  0.00  0.00    +0.004 A 
ENDBRANCH  13  16
ENDBRANCH   7  10
ENDBRANCH   6   7
BRANCH   4  22
ATOM     22  N   UNL     1       6.858  -7.447   0.957  0.00  0.00    +0.056 N 
ATOM     23  O   UNL     1       7.418  -7.646  -0.096  0.00  0.00    -0.126 OA
ATOM     24  O   UNL     1       7.197  -8.053   1.947  0.00  0.00    -0.126 OA
ENDBRANCH   4  22
BRANCH   1  25
ATOM     25  N   UNL     1       2.662  -3.684   1.252  0.00  0.00    -0.236 N 
ATOM     26  H   UNL     1       2.258  -3.475   2.109  0.00  0.00    +0.174 HD
BRANCH  25  32
ATOM     27  C   UNL     1       0.016   1.843   0.679  0.00  0.00    -0.096 C 
ATOM     28  N   UNL     1       0.115   0.393   0.465  0.00  0.00    +0.378 N 
ATOM     29  C   UNL     1       0.914   0.133  -0.738  0.00  0.00    -0.073 C 
ATOM     30  C   UNL     1       0.876  -1.365  -1.063  0.00  0.00    +0.034 C 
ATOM     31  C   UNL     1       1.324  -2.127   0.167  0.00  0.00    +0.033 C 
ATOM     32  N   UNL     1       2.204  -3.053   0.088  0.00  0.00    -0.192 NA
ATOM     33  C   UNL     1       0.693  -1.755   1.492  0.00  0.00    +0.034 C 
ATOM     34  C   UNL     1       0.744  -0.229   1.635  0.00  0.00    -0.073 C 
ATOM     35  H   UNL     1      -0.810   0.010   0.339  0.00  0.00    -0.082 HD
ENDBRANCH  25  32
ENDBRANCH   1  25
TORSDOF 6
