REMARK  Name = ZINC32604447
REMARK  5 active torsions:
REMARK  status: ('A' for Active; 'I' for Inactive)
REMARK    1  A    between atoms: C_1  and  C_2
REMARK    2  A    between atoms: C_2  and  C_27
REMARK    3  A    between atoms: N_3  and  N_4
REMARK    4  A    between atoms: N_4  and  C_5
REMARK    5  A    between atoms: N_20  and  C_21
REMARK                            x       y       z     vdW  Elec       q    Type
REMARK                         _______ _______ _______ _____ _____    ______ ____
ROOT
ATOM      1  C   UNL     1       4.801  -3.382   2.917  0.00  0.00    +0.274 C 
ATOM      2  N   UNL     1       5.082  -2.053   2.339  0.00  0.00    -0.303 N 
ATOM      3  C   UNL     1       4.167  -1.585   1.431  0.00  0.00    +0.081 A 
ATOM      4  C   UNL     1       2.825  -1.995   1.429  0.00  0.00    +0.069 A 
ATOM      5  C   UNL     1       1.983  -1.423   0.386  0.00  0.00    -0.023 A 
ATOM      6  C   UNL     1       2.603  -0.561  -0.450  0.00  0.00    -0.005 A 
ATOM      7  S   UNL     1       4.282  -0.488   0.123  0.00  0.00    -0.078 S 
ATOM      8  C   UNL     1       2.015   0.164  -1.619  0.00  0.00    +0.043 C 
ATOM      9  C   UNL     1       0.699   0.829  -1.194  0.00  0.00    +0.005 C 
ATOM     10  C   UNL     1      -0.437  -0.162  -1.425  0.00  0.00    +0.001 C 
ATOM     11  C   UNL     1       0.056  -1.589  -1.193  0.00  0.00    +0.005 C 
ATOM     12  C   UNL     1       0.504  -1.769   0.253  0.00  0.00    +0.037 C 
ATOM     13  C   UNL     1       2.402  -2.946   2.483  0.00  0.00    +0.256 C 
ATOM     14  O   UNL     1       1.226  -3.179   2.693  0.00  0.00    -0.269 OA
ATOM     15  N   UNL     1       3.379  -3.544   3.199  0.00  0.00    -0.231 N 
ATOM     16  H   UNL     1       5.982  -1.499   2.644  0.00  0.00    +0.150 HD
ENDROOT
BRANCH  15  17
ATOM     17  C   UNL     1       3.006  -4.364   4.269  0.00  0.00    +0.040 A 
ATOM     18  C   UNL     1       2.777  -5.718   4.062  0.00  0.00    +0.023 A 
ATOM     19  C   UNL     1       2.413  -6.525   5.122  0.00  0.00    +0.002 A 
ATOM     20  C   UNL     1       2.267  -5.984   6.387  0.00  0.00    +0.000 A 
ATOM     21  C   UNL     1       2.490  -4.636   6.596  0.00  0.00    +0.002 A 
ATOM     22  C   UNL     1       2.859  -3.824   5.541  0.00  0.00    +0.023 A 
ENDBRANCH  15  17
BRANCH   1  23
ATOM     23  N   UNL     1       5.223  -4.416   1.970  0.00  0.00    -0.232 N 
ATOM     24  H   UNL     1       4.599  -4.750   1.306  0.00  0.00    +0.172 HD
BRANCH  23  27
ATOM     25  C   UNL     1       5.927  -6.346   0.163  0.00  0.00    +0.062 C 
ATOM     26  C   UNL     1       6.897  -5.828   1.193  0.00  0.00    +0.030 C 
ATOM     27  N   UNL     1       6.528  -4.924   2.021  0.00  0.00    -0.194 NA
ATOM     28  C   UNL     1       8.300  -6.374   1.249  0.00  0.00    +0.062 C 
ENDBRANCH  23  27
ENDBRANCH   1  23
TORSDOF 3
