REMARK  Name = ZINC06907088
REMARK  5 active torsions:
REMARK  status: ('A' for Active; 'I' for Inactive)
REMARK    1  A    between atoms: C_1  and  C_2
REMARK    2  A    between atoms: C_2  and  C_4
REMARK    3  A    between atoms: C_2  and  S_10
REMARK    4  A    between atoms: S_10  and  C_11
REMARK    5  A    between atoms: N_20  and  C_21
REMARK                            x       y       z     vdW  Elec       q    Type
REMARK                         _______ _______ _______ _____ _____    ______ ____
ROOT
ATOM      1  C   UNL     1       3.555   3.488  -0.118  0.00  0.00    +0.178 A 
ATOM      2  N   UNL     1       4.670   4.189  -0.128  0.00  0.00    -0.216 NA
ATOM      3  C   UNL     1       5.853   3.591  -0.043  0.00  0.00    +0.116 A 
ATOM      4  C   UNL     1       5.977   2.193   0.059  0.00  0.00    +0.073 A 
ATOM      5  C   UNL     1       7.343   1.704   0.142  0.00  0.00    +0.023 A 
ATOM      6  C   UNL     1       8.356   2.582   0.117  0.00  0.00    +0.048 A 
ATOM      7  S   UNL     1       7.534   4.158  -0.024  0.00  0.00    -0.077 S 
ATOM      8  C   UNL     1       4.750   1.458   0.072  0.00  0.00    +0.267 A 
ATOM      9  O   UNL     1       4.760   0.242   0.163  0.00  0.00    -0.267 OA
ATOM     10  N   UNL     1       3.585   2.125  -0.021  0.00  0.00    -0.255 N 
ENDROOT
BRANCH  10  11
ATOM     11  C   UNL     1       2.381   1.409  -0.013  0.00  0.00    +0.052 A 
ATOM     12  C   UNL     1       1.740   1.139   1.188  0.00  0.00    +0.026 A 
ATOM     13  C   UNL     1       0.552   0.434   1.192  0.00  0.00    +0.002 A 
ATOM     14  C   UNL     1       0.002  -0.004   0.002  0.00  0.00    +0.000 A 
ATOM     15  C   UNL     1       0.639   0.262  -1.197  0.00  0.00    +0.002 A 
ATOM     16  C   UNL     1       1.826   0.967  -1.208  0.00  0.00    +0.026 A 
ENDBRANCH  10  11
BRANCH   1  17
ATOM     17  S   UNL     1       2.005   4.317  -0.231  0.00  0.00    -0.079 S 
BRANCH  17  19
ATOM     18  C   UNL     1       3.265   6.418   0.978  0.00  0.00    +0.024 C 
ATOM     19  C   UNL     1       2.573   6.033  -0.331  0.00  0.00    +0.081 C 
BRANCH  19  20
ATOM     20  C   UNL     1       1.392   6.941  -0.561  0.00  0.00    -0.034 A 
ATOM     21  C   UNL     1       0.360   6.979   0.358  0.00  0.00    +0.005 A 
ATOM     22  C   UNL     1      -0.721   7.815   0.149  0.00  0.00    +0.000 A 
ATOM     23  C   UNL     1      -0.774   8.605  -0.984  0.00  0.00    +0.000 A 
ATOM     24  C   UNL     1       0.255   8.564  -1.905  0.00  0.00    +0.000 A 
ATOM     25  C   UNL     1       1.339   7.731  -1.694  0.00  0.00    +0.005 A 
ENDBRANCH  19  20
ENDBRANCH  17  19
ENDBRANCH   1  17
TORSDOF 4
