REMARK  Name = ZINC08864607
REMARK  3 active torsions:
REMARK  status: ('A' for Active; 'I' for Inactive)
REMARK    1  A    between atoms: C_1  and  C_2
REMARK    2  A    between atoms: C_5  and  S_8
REMARK    3  A    between atoms: S_8  and  N_11
REMARK                            x       y       z     vdW  Elec       q    Type
REMARK                         _______ _______ _______ _____ _____    ______ ____
ROOT
ATOM      1  N   UNL     1       0.002  -0.004   0.002  0.00  0.00    -0.194 N 
ATOM      2  C   UNL     1       0.527  -0.693   1.077  0.00  0.00    +0.179 A 
ATOM      3  N   UNL     1       1.054  -0.218   2.182  0.00  0.00    -0.222 NA
ATOM      4  C   UNL     1       1.529  -1.018   3.162  0.00  0.00    +0.100 A 
ATOM      5  C   UNL     1       1.435  -2.407   2.918  0.00  0.00    +0.042 A 
ATOM      6  S   UNL     1       0.669  -2.459   1.315  0.00  0.00    -0.051 S 
ATOM      7  C   UNL     1       1.877  -3.349   3.812  0.00  0.00    +0.019 A 
ATOM      8  C   UNL     1       2.443  -2.944   5.007  0.00  0.00    +0.023 A 
ATOM      9  C   UNL     1       2.552  -1.588   5.282  0.00  0.00    +0.061 A 
ATOM     10  C   UNL     1       2.112  -0.639   4.393  0.00  0.00    +0.086 A 
ATOM     11 CL   UNL     1       2.272   1.045   4.785  0.00  0.00    -0.080 Cl
ATOM     12 CL   UNL     1       3.262  -1.080   6.783  0.00  0.00    -0.082 Cl
ATOM     13  H   UNL     1      -0.354  -0.490  -0.759  0.00  0.00    +0.176 HD
ENDROOT
BRANCH   1  14
ATOM     14  S   UNL     1      -0.020   1.652   0.011  0.00  0.00    +0.074 S 
ATOM     15  O   UNL     1      -0.589   2.057  -1.227  0.00  0.00    -0.150 OA
ATOM     16  O   UNL     1      -0.565   2.044   1.264  0.00  0.00    -0.150 OA
BRANCH  14  21
ATOM     17  C   UNL     1       5.718   3.515  -0.034  0.00  0.00    +0.044 C 
ATOM     18  C   UNL     1       4.285   3.050  -0.022  0.00  0.00    -0.050 A 
ATOM     19  C   UNL     1       3.616   2.842  -1.214  0.00  0.00    +0.005 A 
ATOM     20  C   UNL     1       2.301   2.415  -1.204  0.00  0.00    +0.029 A 
ATOM     21  C   UNL     1       1.655   2.196  -0.002  0.00  0.00    +0.109 A 
ATOM     22  C   UNL     1       2.323   2.408   1.190  0.00  0.00    +0.029 A 
ATOM     23  C   UNL     1       3.639   2.830   1.180  0.00  0.00    +0.005 A 
ENDBRANCH  14  21
ENDBRANCH   1  14
TORSDOF 2
