REMARK  Name = ZINC27930783
REMARK  15 active torsions:
REMARK  status: ('A' for Active; 'I' for Inactive)
REMARK    1  A    between atoms: C_1  and  C_2
REMARK    2  A    between atoms: C_2  and  C_3
REMARK    3  A    between atoms: C_3  and  C_4
REMARK    4  A    between atoms: C_5  and  C_35
REMARK    5  A    between atoms: C_6  and  C_14
REMARK    6  A    between atoms: C_14  and  O_16
REMARK    7  A    between atoms: O_16  and  C_17
REMARK    8  A    between atoms: C_17  and  C_19
REMARK    9  A    between atoms: C_17  and  C_20
REMARK   10  A    between atoms: N_22  and  C_23
REMARK   11  A    between atoms: C_23  and  C_24
REMARK   12  A    between atoms: C_24  and  C_25
REMARK   13  A    between atoms: C_28  and  S_31
REMARK   14  A    between atoms: S_31  and  N_34
REMARK   15  A    between atoms: C_35  and  C_36
REMARK                            x       y       z     vdW  Elec       q    Type
REMARK                         _______ _______ _______ _____ _____    ______ ____
ROOT
ATOM      1  C   UNL     1      -1.327   1.667  -3.665  0.00  0.00    +0.259 C 
ATOM      2  C   UNL     1      -2.798   1.270  -3.809  0.00  0.00    +0.062 C 
ENDROOT
BRANCH   1   3
ATOM      3  C   UNL     1      -0.751   1.020  -2.432  0.00  0.00    +0.254 C 
ATOM      4  O   UNL     1       0.189   0.260  -2.529  0.00  0.00    -0.272 OA
ATOM      5  N   UNL     1      -1.280   1.286  -1.221  0.00  0.00    -0.312 N 
ATOM      6  H   UNL     1      -2.132   1.976  -1.133  0.00  0.00    +0.149 HD
BRANCH   5   7
ATOM      7  C   UNL     1      -0.719   0.657  -0.023  0.00  0.00    +0.109 C 
BRANCH   7   8
ATOM      8  C   UNL     1      -1.496   1.125   1.210  0.00  0.00    +0.054 C 
BRANCH   8   9
ATOM      9  C   UNL     1      -0.920   0.478   2.442  0.00  0.00    -0.046 A 
ATOM     10  C   UNL     1      -1.416  -0.734   2.883  0.00  0.00    +0.005 A 
ATOM     11  C   UNL     1      -0.885  -1.330   4.011  0.00  0.00    +0.029 A 
ATOM     12  C   UNL     1       0.137  -0.708   4.705  0.00  0.00    +0.105 A 
ATOM     13  C   UNL     1       0.629   0.507   4.267  0.00  0.00    +0.029 A 
ATOM     14  C   UNL     1       0.101   1.101   3.136  0.00  0.00    +0.005 A 
BRANCH  12  15
ATOM     15  S   UNL     1       0.812  -1.465   6.146  0.00  0.00    +0.056 S 
ATOM     16  O   UNL     1       0.550  -2.857   6.033  0.00  0.00    -0.153 OA
ATOM     17  O   UNL     1       2.126  -0.947   6.299  0.00  0.00    -0.153 OA
BRANCH  15  18
ATOM     18  N   UNL     1      -0.066  -0.922   7.441  0.00  0.00    -0.204 NA
ATOM     19  H   UNL     1       0.326  -1.373   8.364  0.00  0.00    +0.144 HD
ATOM     20  H   UNL     1      -1.121  -1.205   7.313  0.00  0.00    +0.144 HD
ENDBRANCH  15  18
ENDBRANCH  12  15
ENDBRANCH   8   9
ENDBRANCH   7   8
ENDBRANCH   5   7
ENDBRANCH   1   3
BRANCH   1  21
ATOM     21  O   UNL     1      -0.590   1.223  -4.834  0.00  0.00    -0.449 OA
BRANCH  21  22
ATOM     22  C   UNL     1      -0.508   2.082  -5.869  0.00  0.00    +0.341 C 
ATOM     23  O   UNL     1      -1.038   3.172  -5.796  0.00  0.00    -0.245 OA
BRANCH  22  26
ATOM     24  C   UNL     1       2.244   1.591  -8.396  0.00  0.00    +0.046 A 
ATOM     25  C   UNL     1       1.583   1.967  -7.229  0.00  0.00    -0.012 A 
ATOM     26  C   UNL     1       0.227   1.698  -7.092  0.00  0.00    +0.073 A 
ATOM     27  C   UNL     1      -0.427   1.037  -8.163  0.00  0.00    +0.015 A 
ATOM     28  C   UNL     1      -1.794   0.735  -8.107  0.00  0.00    +0.011 A 
ATOM     29  C   UNL     1      -2.389   0.106  -9.160  0.00  0.00    +0.001 A 
ATOM     30  C   UNL     1      -1.655  -0.236 -10.294  0.00  0.00    +0.002 A 
ATOM     31  C   UNL     1      -0.327   0.047 -10.383  0.00  0.00    +0.028 A 
ATOM     32  C   UNL     1       0.321   0.696  -9.317  0.00  0.00    +0.072 A 
ATOM     33  N   UNL     1       1.623   0.987  -9.379  0.00  0.00    -0.251 NA
BRANCH  25  34
ATOM     34  C   UNL     1       2.334   2.662  -6.122  0.00  0.00    +0.034 C 
ATOM     35  C   UNL     1       2.937   1.617  -5.181  0.00  0.00    +0.009 C 
ENDBRANCH  25  34
BRANCH  24  36
ATOM     36  C   UNL     1       3.715   1.888  -8.533  0.00  0.00    +0.055 C 
BRANCH  36  38
ATOM     37  C   UNL     1       5.392   3.531  -9.387  0.00  0.00    +0.004 C 
ATOM     38  C   UNL     1       3.900   3.254  -9.198  0.00  0.00    +0.003 C 
ENDBRANCH  36  38
ENDBRANCH  24  36
ENDBRANCH  22  26
ENDBRANCH  21  22
ENDBRANCH   1  21
TORSDOF 12
