REMARK  Name = ZINC15946912
REMARK  9 active torsions:
REMARK  status: ('A' for Active; 'I' for Inactive)
REMARK    1  A    between atoms: C_1  and  C_2
REMARK    2  A    between atoms: C_9  and  N_22
REMARK    3  A    between atoms: C_10  and  C_11
REMARK    4  A    between atoms: N_13  and  C_14
REMARK    5  A    between atoms: C_19  and  O_20
REMARK    6  A    between atoms: O_20  and  C_21
REMARK    7  A    between atoms: C_23  and  C_25
REMARK    8  A    between atoms: C_25  and  N_65
REMARK    9  A    between atoms: C_30  and  C_32
REMARK                            x       y       z     vdW  Elec       q    Type
REMARK                         _______ _______ _______ _____ _____    ______ ____
ROOT
ATOM      1  C   UNL     1       2.991  -1.414  10.571  0.00  0.00    +0.008 C 
ATOM      2  C   UNL     1       1.655  -1.243   9.845  0.00  0.00    -0.009 C 
ATOM      3  C   UNL     1       0.821  -0.170  10.551  0.00  0.00    +0.008 C 
ATOM      4  C   UNL     1      -0.603  -0.165   9.991  0.00  0.00    +0.037 C 
ATOM      5  C   UNL     1      -0.531  -0.058   8.472  0.00  0.00    -0.023 A 
ATOM      6  C   UNL     1       0.607  -0.350   7.807  0.00  0.00    -0.004 A 
ATOM      7  S   UNL     1       0.216  -0.083   6.101  0.00  0.00    -0.077 S 
ATOM      8  C   UNL     1      -1.437   0.409   6.267  0.00  0.00    +0.084 A 
ATOM      9  C   UNL     1      -1.645   0.361   7.638  0.00  0.00    +0.069 A 
ATOM     10  C   UNL     1       1.908  -0.800   8.397  0.00  0.00    +0.046 C 
ENDROOT
BRANCH   9  11
ATOM     11  C   UNL     1      -2.942   0.715   8.224  0.00  0.00    +0.251 C 
ATOM     12  O   UNL     1      -3.792  -0.142   8.384  0.00  0.00    -0.270 OA
ATOM     13  N   UNL     1      -3.193   1.989   8.584  0.00  0.00    -0.278 N 
ATOM     14  H   UNL     1      -2.495   2.659   8.515  0.00  0.00    +0.155 HD
BRANCH  13  15
ATOM     15  C   UNL     1      -4.463   2.346   9.058  0.00  0.00    +0.076 A 
ATOM     16  C   UNL     1      -5.199   1.448   9.817  0.00  0.00    +0.027 A 
ATOM     17  C   UNL     1      -6.451   1.802  10.284  0.00  0.00    +0.002 A 
ATOM     18  C   UNL     1      -6.972   3.050   9.995  0.00  0.00    +0.004 A 
ATOM     19  C   UNL     1      -6.245   3.950   9.238  0.00  0.00    +0.047 A 
ATOM     20  C   UNL     1      -4.986   3.605   8.772  0.00  0.00    +0.141 A 
BRANCH  20  21
ATOM     21  O   UNL     1      -4.267   4.490   8.032  0.00  0.00    -0.493 OA
ATOM     22  C   UNL     1      -4.867   5.762   7.779  0.00  0.00    +0.277 C 
ENDBRANCH  20  21
ENDBRANCH  13  15
ENDBRANCH   9  11
BRANCH   8  23
ATOM     23  N   UNL     1      -2.333   0.770   5.272  0.00  0.00    -0.281 N 
ATOM     24  C   UNL     1      -1.945   0.763   3.981  0.00  0.00    +0.201 C 
ATOM     25  O   UNL     1      -0.813   0.441   3.690  0.00  0.00    -0.278 OA
ATOM     26  H   UNL     1      -3.238   1.028   5.505  0.00  0.00    +0.155 HD
BRANCH  24  27
ATOM     27  C   UNL     1      -2.918   1.155   2.900  0.00  0.00    +0.019 C 
BRANCH  27  34
ATOM     28  C   UNL     1      -1.935  -0.468   1.396  0.00  0.00    -0.078 C 
ATOM     29  C   UNL     1      -1.430  -0.678  -0.033  0.00  0.00    -0.019 C 
ATOM     30  C   UNL     1      -0.215   0.221  -0.278  0.00  0.00    -0.003 C 
ATOM     31  C   UNL     1      -0.610   1.679  -0.029  0.00  0.00    -0.016 C 
ATOM     32  C   UNL     1      -1.138   1.822   1.401  0.00  0.00    -0.071 C 
ATOM     33  C   UNL     1      -1.553   3.273   1.648  0.00  0.00    -0.013 C 
ATOM     34  N   UNL     1      -2.321   0.950   1.564  0.00  0.00    +0.387 N 
ATOM     35  H   UNL     1      -3.016   1.193   0.848  0.00  0.00    -0.081 HD
ENDBRANCH  27  34
ENDBRANCH  24  27
ENDBRANCH   8  23
TORSDOF 6
