REMARK  Name = ZINC13734844
REMARK  11 active torsions:
REMARK  status: ('A' for Active; 'I' for Inactive)
REMARK    1  A    between atoms: C_1  and  C_2
REMARK    2  A    between atoms: C_2  and  N_3
REMARK    3  A    between atoms: N_3  and  C_4
REMARK    4  A    between atoms: C_4  and  C_5
REMARK    5  A    between atoms: C_5  and  C_6
REMARK    6  A    between atoms: C_6  and  N_7
REMARK    7  A    between atoms: N_7  and  C_8
REMARK    8  A    between atoms: C_8  and  C_9
REMARK    9  A    between atoms: C_18  and  O_19
REMARK   10  A    between atoms: O_19  and  C_20
REMARK   11  A    between atoms: C_20  and  C_21
REMARK                            x       y       z     vdW  Elec       q    Type
REMARK                         _______ _______ _______ _____ _____    ______ ____
ROOT
ATOM      1  C   UNL     1       2.978  -6.412   4.863  0.00  0.00    +0.016 A 
ATOM      2  C   UNL     1       4.369  -6.605   4.825  0.00  0.00    -0.010 A 
ATOM      3  C   UNL     1       5.105  -6.376   3.650  0.00  0.00    +0.009 A 
ATOM      4  C   UNL     1       6.452  -6.572   3.649  0.00  0.00    +0.001 A 
ATOM      5  C   UNL     1       7.115  -6.999   4.798  0.00  0.00    +0.001 A 
ATOM      6  C   UNL     1       6.435  -7.231   5.954  0.00  0.00    +0.008 A 
ATOM      7  C   UNL     1       5.044  -7.039   5.994  0.00  0.00    -0.017 A 
ATOM      8  C   UNL     1       4.309  -7.268   7.171  0.00  0.00    +0.012 A 
ATOM      9  C   UNL     1       2.964  -7.072   7.175  0.00  0.00    +0.046 A 
ATOM     10  C   UNL     1       2.297  -6.639   6.025  0.00  0.00    +0.126 A 
ENDROOT
BRANCH   1  11
ATOM     11  C   UNL     1       2.244  -5.951   3.631  0.00  0.00    +0.120 C 
BRANCH  11  12
ATOM     12  N   UNL     1       2.204  -4.483   3.605  0.00  0.00    -0.312 NA
ATOM     13  H   UNL     1       3.134  -4.095   3.655  0.00  0.00    +0.122 HD
BRANCH  12  14
ATOM     14  C   UNL     1       1.493  -3.996   2.415  0.00  0.00    +0.079 C 
BRANCH  14  15
ATOM     15  C   UNL     1       1.472  -2.466   2.424  0.00  0.00    -0.004 C 
BRANCH  15  16
ATOM     16  C   UNL     1       0.733  -1.960   1.184  0.00  0.00    -0.081 C 
BRANCH  16  17
ATOM     17  N   UNL     1       0.713  -0.491   1.192  0.00  0.00    +0.379 N 
ATOM     18  H   UNL     1       1.659  -0.141   1.185  0.00  0.00    -0.086 HD
ATOM     19  H   UNL     1       0.240  -0.165   2.022  0.00  0.00    -0.086 HD
BRANCH  17  21
ATOM     20  C   UNL     1      -0.019   1.526   0.010  0.00  0.00    -0.017 C 
ATOM     21  C   UNL     1       0.002  -0.004   0.002  0.00  0.00    -0.086 C 
ENDBRANCH  17  21
ENDBRANCH  16  17
ENDBRANCH  15  16
ENDBRANCH  14  15
ENDBRANCH  12  14
ENDBRANCH  11  12
ENDBRANCH   1  11
BRANCH  10  22
ATOM     22  O   UNL     1       0.952  -6.447   6.061  0.00  0.00    -0.487 OA
BRANCH  22  23
ATOM     23  C   UNL     1       0.294  -6.701   7.304  0.00  0.00    +0.266 C 
BRANCH  23  24
ATOM     24  C   UNL     1      -1.182  -6.436   7.155  0.00  0.00    +0.008 A 
ATOM     25  C   UNL     1      -1.689  -6.019   5.939  0.00  0.00    +0.010 A 
ATOM     26  C   UNL     1      -3.043  -5.776   5.801  0.00  0.00    +0.020 A 
ATOM     27  C   UNL     1      -3.891  -5.949   6.880  0.00  0.00    +0.042 A 
ATOM     28  C   UNL     1      -3.383  -6.366   8.098  0.00  0.00    +0.040 A 
ATOM     29  C   UNL     1      -2.029  -6.614   8.234  0.00  0.00    +0.049 A 
ATOM     30 CL   UNL     1      -1.392  -7.144   9.760  0.00  0.00    -0.083 Cl
ATOM     31 CL   UNL     1      -5.590  -5.643   6.707  0.00  0.00    -0.083 Cl
ENDBRANCH  23  24
ENDBRANCH  22  23
ENDBRANCH  10  22
TORSDOF 10
