REMARK  Name = ZINC09886693
REMARK  10 active torsions:
REMARK  status: ('A' for Active; 'I' for Inactive)
REMARK    1  A    between atoms: C_1  and  C_2
REMARK    2  A    between atoms: C_2  and  C_3
REMARK    3  A    between atoms: C_2  and  C_4
REMARK    4  A    between atoms: C_4  and  C_6
REMARK    5  A    between atoms: C_4  and  N_26
REMARK    6  A    between atoms: N_8  and  N_9
REMARK    7  A    between atoms: C_10  and  C_11
REMARK    8  A    between atoms: C_13  and  N_23
REMARK    9  A    between atoms: C_16  and  N_17
REMARK   10  A    between atoms: C_27  and  C_29
REMARK                            x       y       z     vdW  Elec       q    Type
REMARK                         _______ _______ _______ _____ _____    ______ ____
ROOT
ATOM      1  C   UNL     1      -1.145   1.968  -2.084  0.00  0.00    +0.253 C 
ATOM      2  O   UNL     1      -1.330   3.162  -2.189  0.00  0.00    -0.272 OA
ATOM      3  N   UNL     1       0.041   1.506  -1.640  0.00  0.00    -0.205 N 
ATOM      4  H   UNL     1       0.215   0.552  -1.625  0.00  0.00    +0.177 HD
ENDROOT
BRANCH   3   5
ATOM      5  N   UNL     1       1.024   2.405  -1.206  0.00  0.00    -0.188 NA
ATOM      6  C   UNL     1       2.115   1.960  -0.660  0.00  0.00    +0.140 C 
BRANCH   6   7
ATOM      7  C   UNL     1       2.232   0.535  -0.304  0.00  0.00    +0.018 A 
ATOM      8  C   UNL     1       1.090  -0.209  -0.001  0.00  0.00    +0.044 A 
ATOM      9  C   UNL     1       1.207  -1.543   0.331  0.00  0.00    +0.127 A 
ATOM     10  C   UNL     1       2.452  -2.148   0.365  0.00  0.00    +0.034 A 
ATOM     11  C   UNL     1       3.590  -1.424   0.068  0.00  0.00    +0.026 A 
ATOM     12  C   UNL     1       3.492  -0.083  -0.273  0.00  0.00    +0.039 A 
BRANCH  12  13
ATOM     13  N   UNL     1       4.638   0.648  -0.578  0.00  0.00    -0.329 N 
ATOM     14  C   UNL     1       5.224   0.201  -1.848  0.00  0.00    +0.105 C 
ATOM     15  C   UNL     1       6.391   1.117  -2.223  0.00  0.00    +0.019 C 
ATOM     16  C   UNL     1       7.444   1.076  -1.111  0.00  0.00    +0.003 C 
ATOM     17  C   UNL     1       6.795   1.500   0.210  0.00  0.00    +0.019 C 
ATOM     18  C   UNL     1       5.617   0.572   0.514  0.00  0.00    +0.105 C 
ENDBRANCH  12  13
BRANCH   9  19
ATOM     19  N   UNL     1      -0.005  -2.331   0.651  0.00  0.00    +0.056 N 
ATOM     20  O   UNL     1      -1.101  -1.801   0.621  0.00  0.00    -0.126 OA
ATOM     21  O   UNL     1       0.095  -3.509   0.945  0.00  0.00    -0.126 OA
ENDBRANCH   9  19
ENDBRANCH   6   7
ENDBRANCH   3   5
BRANCH   1  22
ATOM     22  C   UNL     1      -2.240   1.000  -2.450  0.00  0.00    +0.163 C 
BRANCH  22  23
ATOM     23  N   UNL     1      -3.343   1.728  -3.083  0.00  0.00    -0.300 N 
ATOM     24  C   UNL     1      -4.102   1.122  -4.018  0.00  0.00    +0.245 C 
ATOM     25  O   UNL     1      -3.932  -0.055  -4.269  0.00  0.00    -0.270 OA
ATOM     26  H   UNL     1      -3.527   2.646  -2.829  0.00  0.00    +0.150 HD
BRANCH  24  27
ATOM     27  C   UNL     1      -5.142   1.889  -4.737  0.00  0.00    +0.038 A 
ATOM     28  C   UNL     1      -5.929   1.264  -5.705  0.00  0.00    +0.013 A 
ATOM     29  C   UNL     1      -6.898   1.984  -6.373  0.00  0.00    +0.002 A 
ATOM     30  C   UNL     1      -7.091   3.324  -6.084  0.00  0.00    +0.020 A 
ATOM     31  C   UNL     1      -6.314   3.950  -5.125  0.00  0.00    +0.042 A 
ATOM     32  C   UNL     1      -5.344   3.238  -4.446  0.00  0.00    +0.033 A 
ATOM     33 CL   UNL     1      -6.564   5.630  -4.768  0.00  0.00    -0.084 Cl
ENDBRANCH  24  27
ENDBRANCH  22  23
BRANCH  22  35
ATOM     34  C   UNL     1      -3.414   1.331  -0.269  0.00  0.00    +0.009 C 
ATOM     35  C   UNL     1      -2.748   0.303  -1.187  0.00  0.00    +0.012 C 
ATOM     36  C   UNL     1      -3.766  -0.772  -1.571  0.00  0.00    +0.009 C 
ENDBRANCH  22  35
ENDBRANCH   1  22
TORSDOF 8
