REMARK  Name = ZINC23593279
REMARK  9 active torsions:
REMARK  status: ('A' for Active; 'I' for Inactive)
REMARK    1  A    between atoms: C_4  and  C_11
REMARK    2  A    between atoms: C_6  and  S_7
REMARK    3  A    between atoms: S_7  and  N_10
REMARK    4  A    between atoms: C_11  and  O_13
REMARK    5  A    between atoms: O_13  and  C_14
REMARK    6  A    between atoms: C_14  and  C_15
REMARK    7  A    between atoms: N_17  and  C_18
REMARK    8  A    between atoms: C_18  and  C_19
REMARK    9  A    between atoms: C_19  and  C_20
REMARK                            x       y       z     vdW  Elec       q    Type
REMARK                         _______ _______ _______ _____ _____    ______ ____
ROOT
ATOM      1  C   UNL     1      -3.547   0.495   3.732  0.00  0.00    +0.341 C 
ATOM      2  O   UNL     1      -4.172   0.832   4.718  0.00  0.00    -0.245 OA
ENDROOT
BRANCH   1   6
ATOM      3  C   UNL     1      -0.716   3.146   2.003  0.00  0.00    +0.029 A 
ATOM      4  C   UNL     1      -1.429   3.537   3.122  0.00  0.00    +0.018 A 
ATOM      5  C   UNL     1      -2.350   2.680   3.691  0.00  0.00    +0.032 A 
ATOM      6  C   UNL     1      -2.563   1.418   3.130  0.00  0.00    +0.075 A 
ATOM      7  C   UNL     1      -1.843   1.033   1.997  0.00  0.00    +0.044 A 
ATOM      8  C   UNL     1      -0.927   1.900   1.439  0.00  0.00    +0.106 A 
ATOM      9 BR   UNL     1      -3.319   3.212   5.225  0.00  0.00    -0.049 Br
BRANCH   8  10
ATOM     10  S   UNL     1      -0.017   1.417   0.010  0.00  0.00    +0.056 S 
ATOM     11  O   UNL     1       0.002  -0.004   0.002  0.00  0.00    -0.153 OA
ATOM     12  O   UNL     1       1.172   2.195   0.003  0.00  0.00    -0.153 OA
BRANCH  10  13
ATOM     13  N   UNL     1      -0.897   1.885  -1.312  0.00  0.00    -0.204 NA
ATOM     14  H   UNL     1      -0.361   1.601  -2.229  0.00  0.00    +0.144 HD
ATOM     15  H   UNL     1      -1.036   2.977  -1.292  0.00  0.00    +0.144 HD
ENDBRANCH  10  13
ENDBRANCH   8  10
ENDBRANCH   1   6
BRANCH   1  16
ATOM     16  O   UNL     1      -3.751  -0.721   3.189  0.00  0.00    -0.452 OA
BRANCH  16  17
ATOM     17  C   UNL     1      -4.732  -1.575   3.833  0.00  0.00    +0.328 C 
BRANCH  17  18
ATOM     18  C   UNL     1      -4.824  -2.883   3.091  0.00  0.00    +0.251 C 
ATOM     19  O   UNL     1      -4.130  -3.077   2.116  0.00  0.00    -0.272 OA
ATOM     20  N   UNL     1      -5.676  -3.838   3.513  0.00  0.00    -0.312 N 
ATOM     21  H   UNL     1      -6.305  -3.663   4.398  0.00  0.00    +0.149 HD
BRANCH  20  22
ATOM     22  C   UNL     1      -5.765  -5.110   2.792  0.00  0.00    +0.108 C 
BRANCH  22  23
ATOM     23  C   UNL     1      -6.800  -6.010   3.471  0.00  0.00    +0.049 C 
BRANCH  23  24
ATOM     24  C   UNL     1      -6.891  -7.319   2.729  0.00  0.00    -0.072 C 
ATOM     25  C   UNL     1      -6.182  -8.312   3.160  0.00  0.00    -0.028 C 
ATOM     26  C   UNL     1      -6.161  -9.670   2.522  0.00  0.00    +0.027 C 
ATOM     27  C   UNL     1      -7.370  -9.837   1.599  0.00  0.00    +0.004 C 
ATOM     28  C   UNL     1      -7.453  -8.611   0.682  0.00  0.00    +0.005 C 
ATOM     29  C   UNL     1      -7.804  -7.391   1.540  0.00  0.00    +0.030 C 
ENDBRANCH  23  24
ENDBRANCH  22  23
ENDBRANCH  20  22
ENDBRANCH  17  18
ENDBRANCH  16  17
ENDBRANCH   1  16
TORSDOF 9
