REMARK  Name = ZINC38684069
REMARK  14 active torsions:
REMARK  status: ('A' for Active; 'I' for Inactive)
REMARK    1  A    between atoms: C_1  and  C_2
REMARK    2  A    between atoms: C_2  and  C_3
REMARK    3  A    between atoms: C_3  and  C_4
REMARK    4  A    between atoms: C_4  and  O_5
REMARK    5  A    between atoms: O_5  and  C_6
REMARK    6  A    between atoms: C_9  and  C_15
REMARK    7  A    between atoms: C_11  and  O_12
REMARK    8  A    between atoms: O_12  and  C_13
REMARK    9  A    between atoms: C_13  and  C_14
REMARK   10  A    between atoms: C_20  and  O_29
REMARK   11  A    between atoms: C_24  and  N_28
REMARK   12  A    between atoms: C_25  and  C_26
REMARK   13  A    between atoms: O_29  and  C_30
REMARK   14  A    between atoms: C_30  and  C_32
REMARK                            x       y       z     vdW  Elec       q    Type
REMARK                         _______ _______ _______ _____ _____    ______ ____
ROOT
ATOM      1  C   UNL     1      -3.443  -8.112   0.029  0.00  0.00    +0.098 C 
ATOM      2  C   UNL     1      -2.787  -8.707   1.247  0.00  0.00    +0.008 A 
ATOM      3  C   UNL     1      -3.369  -8.526   2.489  0.00  0.00    +0.012 A 
ATOM      4  C   UNL     1      -2.782  -9.064   3.617  0.00  0.00    +0.047 A 
ATOM      5  C   UNL     1      -1.604  -9.791   3.507  0.00  0.00    +0.135 A 
ATOM      6  C   UNL     1      -1.020  -9.974   2.265  0.00  0.00    +0.093 A 
ATOM      7  C   UNL     1      -1.611  -9.432   1.131  0.00  0.00    +0.138 A 
ATOM      8  O   UNL     1      -1.027  -9.620  -0.078  0.00  0.00    -0.441 OA
ATOM      9  C   UNL     1      -1.744  -9.457  -1.202  0.00  0.00    +0.199 C 
ATOM     10  C   UNL     1      -2.897  -8.753  -1.216  0.00  0.00    +0.098 C 
ENDROOT
BRANCH   1  14
ATOM     11  C   UNL     1      -2.662  -3.909  -0.087  0.00  0.00    +0.162 A 
ATOM     12  C   UNL     1      -1.612  -4.813  -0.116  0.00  0.00    +0.050 A 
ATOM     13  C   UNL     1      -1.868  -6.171  -0.078  0.00  0.00    +0.008 A 
ATOM     14  C   UNL     1      -3.170  -6.631  -0.012  0.00  0.00    -0.031 A 
ATOM     15  C   UNL     1      -4.222  -5.734   0.017  0.00  0.00    +0.054 A 
ATOM     16  C   UNL     1      -3.972  -4.372  -0.014  0.00  0.00    +0.162 A 
BRANCH  11  17
ATOM     17  O   UNL     1      -2.412  -2.573  -0.123  0.00  0.00    -0.488 OA
BRANCH  17  18
ATOM     18  C   UNL     1      -1.043  -2.171  -0.198  0.00  0.00    +0.229 C 
BRANCH  18  19
ATOM     19  C   UNL     1      -0.961  -0.643  -0.230  0.00  0.00    +0.041 C 
BRANCH  19  21
ATOM     20  C   UNL     1       0.587   1.315  -0.341  0.00  0.00    +0.004 C 
ATOM     21  C   UNL     1       0.505  -0.212  -0.309  0.00  0.00    -0.000 C 
ENDBRANCH  19  21
ENDBRANCH  18  19
ENDBRANCH  17  18
ENDBRANCH  11  17
BRANCH  16  22
ATOM     22  O   UNL     1      -5.006  -3.489   0.020  0.00  0.00    -0.489 OA
BRANCH  22  23
ATOM     23  C   UNL     1      -6.324  -4.035   0.094  0.00  0.00    +0.226 C 
ATOM     24  C   UNL     1      -7.347  -2.898   0.123  0.00  0.00    +0.048 C 
ENDBRANCH  22  23
ENDBRANCH  16  22
ENDBRANCH   1  14
BRANCH   9  25
ATOM     25  N   UNL     1      -1.292 -10.021  -2.369  0.00  0.00    -0.328 N 
ATOM     26  H   UNL     1      -0.465 -10.529  -2.373  0.00  0.00    +0.145 HD
ATOM     27  H   UNL     1      -1.799  -9.912  -3.188  0.00  0.00    +0.145 HD
ENDBRANCH   9  25
BRANCH  10  28
ATOM     28  C   UNL     1      -3.615  -8.617  -2.448  0.00  0.00    +0.101 C 
ATOM     29  N   UNL     1      -4.184  -8.508  -3.425  0.00  0.00    -0.191 NA
ENDBRANCH  10  28
BRANCH   5  30
ATOM     30  O   UNL     1      -1.025 -10.321   4.617  0.00  0.00    -0.422 OA
BRANCH  30  31
ATOM     31  C   UNL     1      -1.654 -11.342   5.231  0.00  0.00    +0.347 C 
ATOM     32  O   UNL     1      -2.649 -11.831   4.734  0.00  0.00    -0.244 OA
BRANCH  31  33
ATOM     33  C   UNL     1      -1.133 -11.868   6.508  0.00  0.00    +0.094 A 
ATOM     34  C   UNL     1       0.008 -11.305   7.086  0.00  0.00    +0.018 A 
ATOM     35  C   UNL     1       0.489 -11.801   8.279  0.00  0.00    +0.001 A 
ATOM     36  C   UNL     1      -0.155 -12.854   8.906  0.00  0.00    +0.003 A 
ATOM     37  C   UNL     1      -1.284 -13.417   8.343  0.00  0.00    +0.039 A 
ATOM     38  C   UNL     1      -1.782 -12.928   7.149  0.00  0.00    +0.137 A 
ATOM     39  F   UNL     1      -2.889 -13.475   6.601  0.00  0.00    -0.205 F 
ENDBRANCH  31  33
ENDBRANCH  30  31
ENDBRANCH   5  30
TORSDOF 12
