REMARK  Name = ZINC13998267
REMARK  7 active torsions:
REMARK  status: ('A' for Active; 'I' for Inactive)
REMARK    1  A    between atoms: C_1  and  C_2
REMARK    2  A    between atoms: C_7  and  C_8
REMARK    3  A    between atoms: C_15  and  C_16
REMARK    4  A    between atoms: C_15  and  N_56
REMARK    5  A    between atoms: C_16  and  C_18
REMARK    6  A    between atoms: C_16  and  O_25
REMARK    7  A    between atoms: C_27  and  O_29
REMARK                            x       y       z     vdW  Elec       q    Type
REMARK                         _______ _______ _______ _____ _____    ______ ____
ROOT
ATOM      1  C   UNL     1       6.580   2.463  -6.759  0.00  0.00    +0.044 C 
ATOM      2  C   UNL     1       5.727   2.780  -5.558  0.00  0.00    -0.047 A 
ATOM      3  C   UNL     1       6.258   2.677  -4.287  0.00  0.00    +0.013 A 
ATOM      4  C   UNL     1       5.479   2.966  -3.179  0.00  0.00    +0.023 A 
ATOM      5  C   UNL     1       4.163   3.361  -3.346  0.00  0.00    +0.127 A 
ATOM      6  C   UNL     1       3.632   3.463  -4.628  0.00  0.00    +0.049 A 
ATOM      7  C   UNL     1       4.412   3.173  -5.728  0.00  0.00    -0.044 A 
ATOM      8  C   UNL     1       3.832   3.285  -7.115  0.00  0.00    +0.044 C 
ATOM      9  O   UNL     1       3.364   3.658  -2.288  0.00  0.00    -0.485 OA
ATOM     10  C   UNL     1       3.777   3.217  -0.995  0.00  0.00    +0.110 C 
ATOM     11  C   UNL     1       2.917   3.883   0.080  0.00  0.00    +0.029 C 
ATOM     12  C   UNL     1       1.462   3.439  -0.088  0.00  0.00    -0.075 C 
ATOM     13  C   UNL     1       2.156   1.318  -1.032  0.00  0.00    -0.075 C 
ATOM     14  C   UNL     1       3.632   1.697  -0.894  0.00  0.00    +0.029 C 
ATOM     15  C   UNL     1       5.245   3.605  -0.790  0.00  0.00    +0.084 C 
ATOM     16  C   UNL     1       6.093   2.837  -1.808  0.00  0.00    +0.152 C 
ATOM     17  N   UNL     1       1.390   1.968   0.052  0.00  0.00    +0.382 N 
ATOM     18  H   UNL     1       1.798   1.700   0.955  0.00  0.00    -0.082 HD
ENDROOT
BRANCH  16  19
ATOM     19  O   UNL     1       7.416   3.374  -1.826  0.00  0.00    -0.387 OA
ATOM     20  H   UNL     1       8.011   2.933  -2.448  0.00  0.00    +0.210 HD
ENDBRANCH  16  19
BRANCH  17  21
ATOM     21  C   UNL     1      -0.019   1.526   0.010  0.00  0.00    -0.042 C 
BRANCH  21  22
ATOM     22  C   UNL     1      -0.061  -0.004   0.033  0.00  0.00    +0.128 C 
BRANCH  22  23
ATOM     23  C   UNL     1      -1.496  -0.466   0.048  0.00  0.00    -0.021 A 
ATOM     24  C   UNL     1      -2.209  -0.468   1.232  0.00  0.00    +0.007 A 
ATOM     25  C   UNL     1      -3.526  -0.887   1.246  0.00  0.00    +0.015 A 
ATOM     26  C   UNL     1      -4.127  -1.315   0.075  0.00  0.00    +0.018 A 
ATOM     27  C   UNL     1      -3.411  -1.318  -1.108  0.00  0.00    +0.015 A 
ATOM     28  C   UNL     1      -2.096  -0.893  -1.121  0.00  0.00    +0.007 A 
ATOM     29 BR   UNL     1      -5.926  -1.895   0.094  0.00  0.00    -0.050 Br
ENDBRANCH  22  23
BRANCH  22  30
ATOM     30  O   UNL     1       0.605  -0.481   1.204  0.00  0.00    -0.389 OA
ATOM     31  H   UNL     1       0.214  -0.172   2.032  0.00  0.00    +0.210 HD
ENDBRANCH  22  30
ENDBRANCH  21  22
ENDBRANCH  17  21
TORSDOF 5
