REMARK  Name = ZINC40841360
REMARK  4 active torsions:
REMARK  status: ('A' for Active; 'I' for Inactive)
REMARK    1  A    between atoms: C_1  and  C_2
REMARK    2  A    between atoms: N_12  and  C_20
REMARK    3  A    between atoms: C_20  and  C_21
REMARK    4  A    between atoms: C_23  and  C_26
REMARK                            x       y       z     vdW  Elec       q    Type
REMARK                         _______ _______ _______ _____ _____    ______ ____
ROOT
ATOM      1  C   UNL     1       0.001   1.570   0.129  0.00  0.00    +0.009 C 
ATOM      2  C   UNL     1       0.028   0.042   0.062  0.00  0.00    +0.003 C 
ATOM      3  C   UNL     1      -1.405  -0.493   0.016  0.00  0.00    +0.006 C 
ATOM      4  C   UNL     1      -1.378  -2.020  -0.084  0.00  0.00    +0.019 C 
ATOM      5  C   UNL     1      -0.687  -2.597   1.156  0.00  0.00    +0.106 C 
ATOM      6  N   UNL     1       0.639  -1.977   1.288  0.00  0.00    -0.311 N 
ATOM      7  C   UNL     1       0.736  -0.511   1.303  0.00  0.00    +0.110 C 
ATOM      8  C   UNL     1       1.775  -2.760   1.398  0.00  0.00    +0.188 A 
ATOM      9  C   UNL     1       1.651  -4.222   1.546  0.00  0.00    +0.292 A 
ATOM     10  O   UNL     1       0.554  -4.748   1.573  0.00  0.00    -0.264 OA
ATOM     11  N   UNL     1       2.771  -4.969   1.652  0.00  0.00    -0.295 N 
ATOM     12  C   UNL     1       4.003  -4.341   1.617  0.00  0.00    +0.071 A 
ATOM     13  C   UNL     1       5.173  -5.088   1.723  0.00  0.00    +0.028 A 
ATOM     14  C   UNL     1       6.396  -4.455   1.687  0.00  0.00    +0.002 A 
ATOM     15  C   UNL     1       6.471  -3.076   1.546  0.00  0.00    +0.002 A 
ATOM     16  C   UNL     1       5.337  -2.325   1.441  0.00  0.00    +0.030 A 
ATOM     17  C   UNL     1       4.080  -2.945   1.474  0.00  0.00    +0.090 A 
ATOM     18  N   UNL     1       2.958  -2.202   1.364  0.00  0.00    -0.225 NA
ENDROOT
BRANCH  11  19
ATOM     19  C   UNL     1       2.683  -6.424   1.801  0.00  0.00    +0.224 C 
BRANCH  19  20
ATOM     20  C   UNL     1       2.688  -7.070   0.440  0.00  0.00    +0.247 A 
ATOM     21  N   UNL     1       3.744  -7.463  -0.216  0.00  0.00    -0.194 NA
ATOM     22  C   UNL     1       3.384  -7.992  -1.391  0.00  0.00    +0.175 A 
ATOM     23  N   UNL     1       2.088  -7.941  -1.498  0.00  0.00    -0.061 NA
ATOM     24  O   UNL     1       1.607  -7.344  -0.302  0.00  0.00    -0.336 OA
BRANCH  22  25
ATOM     25  C   UNL     1       4.327  -8.554  -2.424  0.00  0.00    +0.060 C 
ATOM     26  C   UNL     1       3.740  -8.929  -3.787  0.00  0.00    +0.012 C 
ATOM     27  C   UNL     1       4.159 -10.026  -2.806  0.00  0.00    +0.012 C 
ENDBRANCH  22  25
ENDBRANCH  19  20
ENDBRANCH  11  19
TORSDOF 3
