REMARK  Name = ZINC20237200
REMARK  4 active torsions:
REMARK  status: ('A' for Active; 'I' for Inactive)
REMARK    1  A    between atoms: C_3  and  C_35
REMARK    2  A    between atoms: C_5  and  N_7
REMARK    3  A    between atoms: C_9  and  C_25
REMARK    4  A    between atoms: N_27  and  C_28
REMARK                            x       y       z     vdW  Elec       q    Type
REMARK                         _______ _______ _______ _____ _____    ______ ____
ROOT
ATOM      1  N   UNL     1       1.225  -2.054  -0.025  0.00  0.00    -0.213 NA
ATOM      2  C   UNL     1       0.439  -2.729   0.785  0.00  0.00    +0.233 A 
ATOM      3  C   UNL     1       0.448  -4.205   0.804  0.00  0.00    +0.099 A 
ATOM      4  C   UNL     1       0.043  -4.831   1.976  0.00  0.00    +0.030 A 
ATOM      5  C   UNL     1      -0.380  -4.018   3.056  0.00  0.00    +0.019 A 
ATOM      6  C   UNL     1      -0.611  -4.576   4.321  0.00  0.00    +0.017 A 
ATOM      7  C   UNL     1      -0.976  -3.778   5.369  0.00  0.00    -0.025 A 
ATOM      8  C   UNL     1      -1.130  -2.401   5.189  0.00  0.00    +0.040 A 
ATOM      9  C   UNL     1      -0.929  -1.834   3.936  0.00  0.00    +0.017 A 
ATOM     10  C   UNL     1      -0.566  -2.636   2.865  0.00  0.00    +0.142 A 
ATOM     11  O   UNL     1      -0.407  -2.092   1.636  0.00  0.00    -0.436 OA
ATOM     12  C   UNL     1      -1.103  -0.357   3.697  0.00  0.00    +0.042 C 
ATOM     13  C   UNL     1      -2.001   0.255   4.773  0.00  0.00    +0.024 C 
ATOM     14  C   UNL     1      -1.442  -0.136   6.147  0.00  0.00    +0.105 C 
ATOM     15  N   UNL     1      -1.500  -1.596   6.263  0.00  0.00    -0.329 N 
ATOM     16  C   UNL     1      -1.964  -2.205   7.514  0.00  0.00    +0.105 C 
ATOM     17  C   UNL     1      -1.054  -3.398   7.830  0.00  0.00    +0.024 C 
ATOM     18  C   UNL     1      -1.202  -4.428   6.710  0.00  0.00    +0.038 C 
ENDROOT
BRANCH   1  23
ATOM     19  C   UNL     1      -0.046   1.373  -0.002  0.00  0.00    +0.003 A 
ATOM     20  C   UNL     1       1.133   2.092  -0.010  0.00  0.00    +0.013 A 
ATOM     21  C   UNL     1       2.361   1.426  -0.023  0.00  0.00    +0.038 A 
ATOM     22  C   UNL     1       2.395   0.034  -0.028  0.00  0.00    +0.041 A 
ATOM     23  C   UNL     1       1.201  -0.687  -0.020  0.00  0.00    +0.068 A 
ATOM     24  C   UNL     1      -0.021  -0.007  -0.007  0.00  0.00    +0.028 A 
BRANCH  21  25
ATOM     25  C   UNL     1       3.622   2.199  -0.031  0.00  0.00    +0.242 C 
ATOM     26  O   UNL     1       4.690   1.618  -0.042  0.00  0.00    -0.270 OA
ATOM     27  N   UNL     1       3.587   3.546  -0.027  0.00  0.00    -0.325 N 
ATOM     28  H   UNL     1       2.735   4.009  -0.018  0.00  0.00    +0.145 HD
ATOM     29  H   UNL     1       4.414   4.053  -0.032  0.00  0.00    +0.145 HD
ENDBRANCH  21  25
ENDBRANCH   1  23
BRANCH   3  30
ATOM     30  C   UNL     1       0.870  -4.982  -0.371  0.00  0.00    +0.253 C 
ATOM     31  O   UNL     1       0.869  -6.198  -0.329  0.00  0.00    -0.270 OA
ATOM     32  N   UNL     1       1.258  -4.348  -1.495  0.00  0.00    -0.281 N 
ATOM     33  H   UNL     1       1.193  -3.381  -1.553  0.00  0.00    +0.155 HD
BRANCH  32  34
ATOM     34  C   UNL     1       1.753  -5.082  -2.578  0.00  0.00    +0.034 A 
ATOM     35  C   UNL     1       2.769  -4.559  -3.367  0.00  0.00    +0.025 A 
ATOM     36  C   UNL     1       3.257  -5.286  -4.435  0.00  0.00    +0.022 A 
ATOM     37  C   UNL     1       2.733  -6.535  -4.720  0.00  0.00    +0.041 A 
ATOM     38  C   UNL     1       1.720  -7.058  -3.936  0.00  0.00    +0.022 A 
ATOM     39  C   UNL     1       1.234  -6.338  -2.862  0.00  0.00    +0.025 A 
ATOM     40 CL   UNL     1       3.348  -7.446  -6.063  0.00  0.00    -0.084 Cl
ENDBRANCH  32  34
ENDBRANCH   3  30
TORSDOF 4
