REMARK  Name = ZINC27249975
REMARK  12 active torsions:
REMARK  status: ('A' for Active; 'I' for Inactive)
REMARK    1  A    between atoms: C_1  and  C_2
REMARK    2  A    between atoms: C_2  and  C_3
REMARK    3  A    between atoms: C_2  and  C_4
REMARK    4  A    between atoms: C_4  and  C_5
REMARK    5  A    between atoms: C_5  and  C_6
REMARK    6  A    between atoms: C_5  and  C_14
REMARK    7  A    between atoms: C_5  and  O_30
REMARK    8  A    between atoms: C_9  and  O_12
REMARK    9  A    between atoms: O_12  and  C_13
REMARK   10  A    between atoms: C_14  and  C_16
REMARK   11  A    between atoms: C_14  and  C_23
REMARK   12  A    between atoms: C_16  and  N_17
REMARK                            x       y       z     vdW  Elec       q    Type
REMARK                         _______ _______ _______ _____ _____    ______ ____
ROOT
ATOM      1  C   UNL     1       4.120   0.238   2.154  0.00  0.00    +0.039 C 
ENDROOT
BRANCH   1   2
ATOM      2  C   UNL     1       4.387  -0.033   0.695  0.00  0.00    -0.043 A 
ATOM      3  C   UNL     1       4.391  -1.333   0.224  0.00  0.00    +0.005 A 
ATOM      4  C   UNL     1       4.630  -1.581  -1.115  0.00  0.00    +0.020 A 
ATOM      5  C   UNL     1       4.877  -0.531  -1.980  0.00  0.00    +0.041 A 
ATOM      6  C   UNL     1       4.879   0.769  -1.506  0.00  0.00    +0.020 A 
ATOM      7  C   UNL     1       4.634   1.017  -0.169  0.00  0.00    +0.005 A 
ATOM      8 CL   UNL     1       5.185  -0.843  -3.660  0.00  0.00    -0.084 Cl
ENDBRANCH   1   2
BRANCH   1   9
ATOM      9  C   UNL     1       5.313  -0.234   2.987  0.00  0.00    +0.096 C 
BRANCH   9  10
ATOM     10  C   UNL     1       6.539   0.552   2.599  0.00  0.00    -0.015 A 
ATOM     11  C   UNL     1       6.410   1.850   2.140  0.00  0.00    +0.010 A 
ATOM     12  C   UNL     1       7.533   2.574   1.790  0.00  0.00    +0.046 A 
ATOM     13  C   UNL     1       8.789   1.995   1.887  0.00  0.00    +0.120 A 
ATOM     14  C   UNL     1       8.915   0.690   2.342  0.00  0.00    +0.046 A 
ATOM     15  C   UNL     1       7.790  -0.028   2.698  0.00  0.00    +0.010 A 
BRANCH  13  16
ATOM     16  O   UNL     1       9.895   2.703   1.537  0.00  0.00    -0.495 OA
ATOM     17  C   UNL     1       9.689   4.040   1.077  0.00  0.00    +0.277 C 
ENDBRANCH  13  16
ENDBRANCH   9  10
BRANCH   9  18
ATOM     18  O   UNL     1       5.542  -1.624   2.746  0.00  0.00    -0.383 OA
ATOM     19  H   UNL     1       5.773  -1.975   1.729  0.00  0.00    +0.211 HD
ENDBRANCH   9  18
BRANCH   9  20
ATOM     20  C   UNL     1       5.016  -0.017   4.472  0.00  0.00    +0.043 C 
BRANCH  20  22
ATOM     21  C   UNL     1       6.022   0.026   6.758  0.00  0.00    +0.007 C 
ATOM     22  C   UNL     1       6.260  -0.354   5.296  0.00  0.00    -0.014 C 
ATOM     23  C   UNL     1       6.545  -1.854   5.199  0.00  0.00    +0.007 C 
ENDBRANCH  20  22
ENDBRANCH   9  20
ENDBRANCH   1   9
BRANCH   1  24
ATOM     24  C   UNL     1       2.862  -0.516   2.591  0.00  0.00    -0.068 C 
BRANCH  24  25
ATOM     25  N   UNL     1       1.696   0.020   1.876  0.00  0.00    +0.380 N 
ATOM     26  C   UNL     1       0.515  -0.826   2.086  0.00  0.00    -0.079 C 
ATOM     27  C   UNL     1      -0.637  -0.322   1.215  0.00  0.00    -0.019 C 
ATOM     28  C   UNL     1      -0.953   1.130   1.585  0.00  0.00    -0.004 C 
ATOM     29  C   UNL     1       0.306   1.981   1.403  0.00  0.00    -0.019 C 
ATOM     30  C   UNL     1       1.431   1.409   2.269  0.00  0.00    -0.079 C 
ATOM     31  H   UNL     1       1.925   0.014   0.800  0.00  0.00    -0.082 HD
ENDBRANCH  24  25
ENDBRANCH   1  24
TORSDOF 9
