REMARK  Name = ZINC62944394
REMARK  4 active torsions:
REMARK  status: ('A' for Active; 'I' for Inactive)
REMARK    1  A    between atoms: N_10  and  C_12
REMARK    2  A    between atoms: C_12  and  C_14
REMARK    3  A    between atoms: C_12  and  C_16
REMARK    4  A    between atoms: C_14  and  N_15
REMARK                            x       y       z     vdW  Elec       q    Type
REMARK                         _______ _______ _______ _____ _____    ______ ____
ROOT
ATOM      1  C   UNL     1       5.340  -1.415   1.604  0.00  0.00    +0.106 C 
ENDROOT
BRANCH   1  11
ATOM      2  C   UNL     1      -0.017   1.379   0.010  0.00  0.00    +0.000 A 
ATOM      3  C   UNL     1       1.171   2.087   0.002  0.00  0.00    +0.000 A 
ATOM      4  C   UNL     1       2.379   1.415  -0.015  0.00  0.00    +0.005 A 
ATOM      5  C   UNL     1       2.393   0.032  -0.023  0.00  0.00    -0.030 A 
ATOM      6  C   UNL     1       1.213  -0.671  -0.013  0.00  0.00    -0.043 A 
ATOM      7  C   UNL     1       0.002  -0.004   0.002  0.00  0.00    +0.004 A 
ATOM      8  C   UNL     1       1.241  -2.185  -0.017  0.00  0.00    +0.037 C 
ATOM      9  C   UNL     1       1.783  -2.655   1.337  0.00  0.00    +0.020 C 
ATOM     10  C   UNL     1       3.298  -2.667   1.334  0.00  0.00    +0.086 C 
ATOM     11  N   UNL     1       3.913  -1.350   1.260  0.00  0.00    -0.290 NA
ATOM     12  C   UNL     1       3.715  -0.705  -0.045  0.00  0.00    +0.120 C 
ENDBRANCH   1  11
BRANCH   1  13
ATOM     13  C   UNL     1       6.088  -2.130   0.508  0.00  0.00    +0.123 A 
ATOM     14  C   UNL     1       7.083  -3.018   0.685  0.00  0.00    +0.062 A 
ATOM     15  C   UNL     1       7.493  -3.436  -0.603  0.00  0.00    +0.070 A 
ATOM     16  C   UNL     1       6.723  -2.777  -1.490  0.00  0.00    +0.184 A 
ATOM     17  O   UNL     1       5.871  -1.992  -0.811  0.00  0.00    -0.450 OA
ATOM     18 BR   UNL     1       6.821  -2.937  -3.372  0.00  0.00    -0.007 Br
ATOM     19 BR   UNL     1       8.860  -4.680  -1.001  0.00  0.00    -0.046 Br
ENDBRANCH   1  13
BRANCH   1  20
ATOM     20  C   UNL     1       5.893   0.003   1.758  0.00  0.00    -0.059 C 
BRANCH  20  21
ATOM     21  N   UNL     1       5.087   0.738   2.741  0.00  0.00    +0.379 N 
ATOM     22  H   UNL     1       5.451   1.673   2.844  0.00  0.00    -0.090 HD
ATOM     23  H   UNL     1       4.130   0.783   2.426  0.00  0.00    -0.090 HD
ATOM     24  H   UNL     1       5.125   0.263   3.631  0.00  0.00    -0.090 HD
ENDBRANCH  20  21
ENDBRANCH   1  20
TORSDOF 4
