REMARK  Name = ZINC12329746
REMARK  7 active torsions:
REMARK  status: ('A' for Active; 'I' for Inactive)
REMARK    1  A    between atoms: C_1  and  O_2
REMARK    2  A    between atoms: O_2  and  C_3
REMARK    3  A    between atoms: C_15  and  C_16
REMARK    4  A    between atoms: C_15  and  N_54
REMARK    5  A    between atoms: C_16  and  C_18
REMARK    6  A    between atoms: C_16  and  O_25
REMARK    7  A    between atoms: C_27  and  O_29
REMARK                            x       y       z     vdW  Elec       q    Type
REMARK                         _______ _______ _______ _____ _____    ______ ____
ROOT
ATOM      1  C   UNL     1       1.331   2.020  -0.436  0.00  0.00    +0.124 A 
ATOM      2  C   UNL     1       0.146   1.301  -0.511  0.00  0.00    +0.046 A 
ATOM      3  C   UNL     1      -1.064   1.964  -0.490  0.00  0.00    +0.013 A 
ATOM      4  C   UNL     1      -1.105   3.345  -0.384  0.00  0.00    +0.023 A 
ATOM      5  C   UNL     1       0.074   4.067  -0.312  0.00  0.00    +0.130 A 
ATOM      6  C   UNL     1       1.294   3.400  -0.337  0.00  0.00    +0.091 A 
ATOM      7  O   UNL     1       0.079   5.423  -0.224  0.00  0.00    -0.485 OA
ATOM      8  C   UNL     1      -1.133   6.072   0.159  0.00  0.00    +0.110 C 
ATOM      9  C   UNL     1      -1.418   5.808   1.638  0.00  0.00    +0.029 C 
ATOM     10  C   UNL     1      -0.303   6.425   2.486  0.00  0.00    -0.075 C 
ATOM     11  C   UNL     1       0.092   8.143   0.824  0.00  0.00    -0.075 C 
ATOM     12  C   UNL     1      -1.011   7.579  -0.076  0.00  0.00    +0.029 C 
ATOM     13  C   UNL     1      -2.279   5.513  -0.691  0.00  0.00    +0.084 C 
ATOM     14  C   UNL     1      -2.449   4.029  -0.354  0.00  0.00    +0.152 C 
ATOM     15  N   UNL     1      -0.261   7.882   2.236  0.00  0.00    +0.382 N 
ATOM     16  H   UNL     1      -1.187   8.280   2.427  0.00  0.00    -0.082 HD
ENDROOT
BRANCH   1  18
ATOM     17  C   UNL     1       2.485  -0.054  -0.564  0.00  0.00    +0.277 C 
ATOM     18  O   UNL     1       2.524   1.370  -0.460  0.00  0.00    -0.495 OA
ENDBRANCH   1  18
BRANCH  14  19
ATOM     19  O   UNL     1      -3.314   3.419  -1.314  0.00  0.00    -0.387 OA
ATOM     20  H   UNL     1      -3.470   2.478  -1.160  0.00  0.00    +0.210 HD
ENDBRANCH  14  19
BRANCH  15  21
ATOM     21  C   UNL     1       0.729   8.519   3.129  0.00  0.00    -0.042 C 
BRANCH  21  22
ATOM     22  C   UNL     1       2.041   7.731   3.126  0.00  0.00    +0.128 C 
BRANCH  22  23
ATOM     23  C   UNL     1       2.975   8.308   4.158  0.00  0.00    -0.021 A 
ATOM     24  C   UNL     1       3.704   9.446   3.871  0.00  0.00    +0.007 A 
ATOM     25  C   UNL     1       4.557   9.979   4.819  0.00  0.00    +0.020 A 
ATOM     26  C   UNL     1       4.690   9.366   6.052  0.00  0.00    +0.041 A 
ATOM     27  C   UNL     1       3.964   8.223   6.337  0.00  0.00    +0.020 A 
ATOM     28  C   UNL     1       3.107   7.694   5.390  0.00  0.00    +0.007 A 
ATOM     29 CL   UNL     1       5.766  10.030   7.241  0.00  0.00    -0.084 Cl
ENDBRANCH  22  23
BRANCH  22  30
ATOM     30  O   UNL     1       2.646   7.818   1.834  0.00  0.00    -0.389 OA
ATOM     31  H   UNL     1       2.854   8.721   1.558  0.00  0.00    +0.210 HD
ENDBRANCH  22  30
ENDBRANCH  21  22
ENDBRANCH  15  21
TORSDOF 6
