REMARK  Name = ZINC10336697
REMARK  4 active torsions:
REMARK  status: ('A' for Active; 'I' for Inactive)
REMARK    1  A    between atoms: C_1  and  O_2
REMARK    2  A    between atoms: O_2  and  C_3
REMARK    3  A    between atoms: C_6  and  C_9
REMARK    4  A    between atoms: C_20  and  C_22
REMARK                            x       y       z     vdW  Elec       q    Type
REMARK                         _______ _______ _______ _____ _____    ______ ____
ROOT
ATOM      1  C   UNL     1       2.580  -2.777   4.407  0.00  0.00    +0.160 C 
ATOM      2  C   UNL     1       1.468  -3.041   5.399  0.00  0.00    +0.027 C 
ATOM      3  C   UNL     1       1.242  -4.317   5.774  0.00  0.00    +0.083 C 
ATOM      4  C   UNL     1       0.142  -4.562   6.741  0.00  0.00    +0.042 A 
ATOM      5  C   UNL     1       0.033  -5.765   7.425  0.00  0.00    +0.013 A 
ATOM      6  C   UNL     1      -1.005  -5.950   8.319  0.00  0.00    +0.001 A 
ATOM      7  C   UNL     1      -1.930  -4.942   8.530  0.00  0.00    +0.004 A 
ATOM      8  C   UNL     1      -1.829  -3.742   7.851  0.00  0.00    +0.046 A 
ATOM      9  C   UNL     1      -0.795  -3.543   6.952  0.00  0.00    +0.131 A 
ATOM     10  O   UNL     1      -0.676  -2.378   6.268  0.00  0.00    -0.479 OA
ATOM     11  C   UNL     1       0.644  -1.921   5.963  0.00  0.00    +0.237 C 
ATOM     12  N   UNL     1       1.987  -5.342   5.289  0.00  0.00    -0.213 NA
ATOM     13  C   UNL     1       2.963  -5.199   4.432  0.00  0.00    +0.232 C 
ATOM     14  N   UNL     1       3.315  -3.958   3.945  0.00  0.00    -0.193 N 
ATOM     15  N   UNL     1       4.374  -4.183   3.065  0.00  0.00    -0.165 N 
ATOM     16  N   UNL     1       4.606  -5.452   3.053  0.00  0.00    -0.086 NA
ATOM     17  N   UNL     1       3.813  -6.078   3.833  0.00  0.00    -0.231 N 
ATOM     18  H   UNL     1       4.849  -3.509   2.555  0.00  0.00    +0.195 HD
ATOM     19  H   UNL     1       3.814  -7.037   3.975  0.00  0.00    +0.193 HD
ENDROOT
BRANCH  11  20
ATOM     20  C   UNL     1       1.296  -1.405   7.219  0.00  0.00    +0.032 A 
ATOM     21  C   UNL     1       0.903  -1.892   8.452  0.00  0.00    +0.010 A 
ATOM     22  C   UNL     1       1.501  -1.419   9.605  0.00  0.00    +0.001 A 
ATOM     23  C   UNL     1       2.492  -0.459   9.527  0.00  0.00    +0.003 A 
ATOM     24  C   UNL     1       2.887   0.029   8.296  0.00  0.00    +0.039 A 
ATOM     25  C   UNL     1       2.292  -0.448   7.139  0.00  0.00    +0.130 A 
ATOM     26  F   UNL     1       2.680   0.025   5.935  0.00  0.00    -0.205 F 
ENDBRANCH  11  20
BRANCH   1  30
ATOM     27  C   UNL     1       0.889  -0.837   0.995  0.00  0.00    +0.120 A 
ATOM     28  C   UNL     1       1.494  -0.086   1.992  0.00  0.00    +0.046 A 
ATOM     29  C   UNL     1       2.039  -0.716   3.095  0.00  0.00    +0.009 A 
ATOM     30  C   UNL     1       1.984  -2.093   3.204  0.00  0.00    -0.021 A 
ATOM     31  C   UNL     1       1.382  -2.844   2.211  0.00  0.00    +0.009 A 
ATOM     32  C   UNL     1       0.830  -2.219   1.109  0.00  0.00    +0.046 A 
BRANCH  27  34
ATOM     33  C   UNL     1       0.449   1.204  -0.142  0.00  0.00    +0.277 C 
ATOM     34  O   UNL     1       0.351  -0.221  -0.090  0.00  0.00    -0.495 OA
ENDBRANCH  27  34
ENDBRANCH   1  30
TORSDOF 3
