REMARK  Name = ZINC47629417
REMARK  7 active torsions:
REMARK  status: ('A' for Active; 'I' for Inactive)
REMARK    1  A    between atoms: C_1  and  C_2
REMARK    2  A    between atoms: C_5  and  N_9
REMARK    3  A    between atoms: C_10  and  C_12
REMARK    4  A    between atoms: C_12  and  N_13
REMARK    5  A    between atoms: N_13  and  C_14
REMARK    6  A    between atoms: N_13  and  C_15
REMARK    7  A    between atoms: C_15  and  C_16
REMARK                            x       y       z     vdW  Elec       q    Type
REMARK                         _______ _______ _______ _____ _____    ______ ____
ROOT
ATOM      1  N   UNL     1       0.059  -4.172  -0.021  0.00  0.00    -0.285 N 
ATOM      2  C   UNL     1       0.473  -4.846   1.070  0.00  0.00    +0.201 C 
ATOM      3  O   UNL     1       0.743  -4.245   2.088  0.00  0.00    -0.278 OA
ATOM      4  H   UNL     1      -0.225  -4.656  -0.812  0.00  0.00    +0.155 HD
ENDROOT
BRANCH   1   9
ATOM      5  C   UNL     1      -0.020   1.503   0.010  0.00  0.00    +0.044 C 
ATOM      6  C   UNL     1       0.001  -0.004   0.002  0.00  0.00    -0.048 A 
ATOM      7  C   UNL     1       1.143  -0.676  -0.396  0.00  0.00    +0.020 A 
ATOM      8  C   UNL     1       1.165  -2.058  -0.405  0.00  0.00    +0.040 A 
ATOM      9  C   UNL     1       0.040  -2.772  -0.013  0.00  0.00    +0.062 A 
ATOM     10  C   UNL     1      -1.105  -2.094   0.386  0.00  0.00    +0.040 A 
ATOM     11  C   UNL     1      -1.119  -0.712   0.397  0.00  0.00    +0.020 A 
ATOM     12 BR   UNL     1      -2.640  -3.060   0.920  0.00  0.00    -0.048 Br
ATOM     13 BR   UNL     1       2.727  -2.975  -0.950  0.00  0.00    -0.048 Br
ENDBRANCH   1   9
BRANCH   2  14
ATOM     14  C   UNL     1       0.601  -6.347   1.025  0.00  0.00    +0.019 C 
BRANCH  14  15
ATOM     15  N   UNL     1       1.066  -6.838   2.329  0.00  0.00    +0.389 N 
ATOM     16  C   UNL     1       0.043  -6.566   3.348  0.00  0.00    -0.095 C 
ATOM     17  H   UNL     1       1.923  -6.369   2.579  0.00  0.00    -0.081 HD
BRANCH  15  18
ATOM     18  C   UNL     1       1.306  -8.286   2.250  0.00  0.00    +0.019 C 
BRANCH  18  19
ATOM     19  C   UNL     1       1.898  -8.768   3.548  0.00  0.00    +0.194 C 
ATOM     20  O   UNL     1       2.101  -7.984   4.451  0.00  0.00    -0.278 OA
ATOM     21  N   UNL     1       2.202 -10.072   3.707  0.00  0.00    -0.331 N 
ATOM     22  H   UNL     1       2.040 -10.699   2.985  0.00  0.00    +0.145 HD
ATOM     23  H   UNL     1       2.584 -10.383   4.543  0.00  0.00    +0.145 HD
ENDBRANCH  18  19
ENDBRANCH  15  18
ENDBRANCH  14  15
ENDBRANCH   2  14
TORSDOF 5
