REMARK  Name = ZINC19326868
REMARK  5 active torsions:
REMARK  status: ('A' for Active; 'I' for Inactive)
REMARK    1  A    between atoms: C_1  and  C_2
REMARK    2  A    between atoms: C_12  and  C_17
REMARK    3  A    between atoms: C_12  and  C_18
REMARK    4  A    between atoms: C_14  and  C_16
REMARK    5  A    between atoms: N_24  and  C_25
REMARK                            x       y       z     vdW  Elec       q    Type
REMARK                         _______ _______ _______ _____ _____    ______ ____
ROOT
ATOM      1  C   UNL     1      -0.209  -3.570  -3.475  0.00  0.00    +0.044 C 
ATOM      2  C   UNL     1       0.358  -3.374  -2.093  0.00  0.00    -0.050 A 
ATOM      3  C   UNL     1       0.677  -4.484  -1.322  0.00  0.00    +0.009 A 
ATOM      4  C   UNL     1       1.195  -4.304  -0.065  0.00  0.00    -0.022 A 
ATOM      5  C   UNL     1       1.393  -3.006   0.408  0.00  0.00    +0.048 A 
ATOM      6  C   UNL     1       1.073  -1.903  -0.350  0.00  0.00    +0.033 A 
ATOM      7  C   UNL     1       0.553  -2.088  -1.612  0.00  0.00    +0.013 A 
ATOM      8  C   UNL     1       1.423  -0.715   0.511  0.00  0.00    +0.260 C 
ATOM      9  C   UNL     1       1.963  -1.322   1.795  0.00  0.00    +0.275 C 
ATOM     10  O   UNL     1       2.364  -0.712   2.763  0.00  0.00    -0.270 OA
ATOM     11  N   UNL     1       1.916  -2.651   1.661  0.00  0.00    -0.261 N 
ATOM     12  C   UNL     1       2.320  -3.710   2.602  0.00  0.00    +0.037 C 
ATOM     13  C   UNL     1       2.711  -4.951   1.792  0.00  0.00    +0.033 C 
ATOM     14  C   UNL     1       1.578  -5.418   0.873  0.00  0.00    +0.020 C 
ATOM     15  C   UNL     1       2.046  -6.628   0.062  0.00  0.00    +0.012 C 
ATOM     16  C   UNL     1       3.517  -3.236   3.429  0.00  0.00    +0.032 C 
ATOM     17  C   UNL     1       1.152  -4.048   3.531  0.00  0.00    +0.032 C 
ATOM     18  N   UNL     1       0.228   0.065   0.803  0.00  0.00    -0.212 NA
ATOM     19  C   UNL     1       0.238   1.363   0.807  0.00  0.00    +0.182 C 
ATOM     20  N   UNL     1       1.400   2.049   0.518  0.00  0.00    -0.260 N 
ATOM     21  C   UNL     1       2.434   1.384  -0.109  0.00  0.00    +0.189 C 
ATOM     22  N   UNL     1       2.459   0.086  -0.128  0.00  0.00    -0.212 NA
ATOM     23  N   UNL     1       3.442   2.099  -0.715  0.00  0.00    -0.287 N 
ATOM     24  N   UNL     1      -0.914   2.057   1.096  0.00  0.00    -0.331 N 
ATOM     25  H   UNL     1       1.493   3.111   0.786  0.00  0.00    +0.157 HD
ATOM     26  H   UNL     1       4.316   1.574  -1.130  0.00  0.00    +0.155 HD
ATOM     27  H   UNL     1      -0.907   3.157   1.101  0.00  0.00    +0.145 HD
ATOM     28  H   UNL     1      -1.842   1.512   1.323  0.00  0.00    +0.145 HD
ENDROOT
BRANCH  23  29
ATOM     29  C   UNL     1       3.356   3.492  -0.803  0.00  0.00    +0.033 A 
ATOM     30  C   UNL     1       2.134   4.099  -1.061  0.00  0.00    +0.023 A 
ATOM     31  C   UNL     1       2.051   5.475  -1.142  0.00  0.00    +0.002 A 
ATOM     32  C   UNL     1       3.186   6.248  -0.978  0.00  0.00    +0.000 A 
ATOM     33  C   UNL     1       4.406   5.647  -0.726  0.00  0.00    +0.002 A 
ATOM     34  C   UNL     1       4.494   4.271  -0.639  0.00  0.00    +0.023 A 
ENDBRANCH  23  29
TORSDOF 1
