REMARK  Name = ZINC67373913
REMARK  5 active torsions:
REMARK  status: ('A' for Active; 'I' for Inactive)
REMARK    1  A    between atoms: C_1  and  N_2
REMARK    2  A    between atoms: C_6  and  N_9
REMARK    3  A    between atoms: C_12  and  C_15
REMARK    4  A    between atoms: C_15  and  C_17
REMARK    5  A    between atoms: C_15  and  O_24
REMARK                            x       y       z     vdW  Elec       q    Type
REMARK                         _______ _______ _______ _____ _____    ______ ____
ROOT
ATOM      1  N   UNL     1       0.137  -4.126  -0.022  0.00  0.00    -0.327 N 
ATOM      2  C   UNL     1      -1.093  -4.923   0.084  0.00  0.00    +0.105 C 
ATOM      3  C   UNL     1      -0.939  -5.916   1.240  0.00  0.00    +0.025 C 
ATOM      4  C   UNL     1       0.331  -6.744   1.029  0.00  0.00    +0.025 C 
ATOM      5  C   UNL     1       1.550  -5.819   1.022  0.00  0.00    +0.025 C 
ATOM      6  C   UNL     1       1.423  -4.825  -0.142  0.00  0.00    +0.105 C 
ENDROOT
BRANCH   1  12
ATOM      7  C   UNL     1      -0.100   1.457   0.065  0.00  0.00    +0.176 C 
ATOM      8  N   UNL     1      -0.031  -0.005   0.023  0.00  0.00    -0.231 N 
ATOM      9  C   UNL     1       0.419  -0.621  -1.088  0.00  0.00    +0.287 A 
ATOM     10  O   UNL     1       0.768   0.036  -2.056  0.00  0.00    -0.265 OA
ATOM     11  C   UNL     1       0.484  -2.022  -1.125  0.00  0.00    +0.129 A 
ATOM     12  C   UNL     1       0.083  -2.742  -0.014  0.00  0.00    +0.074 A 
ATOM     13  C   UNL     1      -0.381  -2.054   1.127  0.00  0.00    +0.157 A 
ATOM     14  N   UNL     1      -0.427  -0.751   1.138  0.00  0.00    -0.175 NA
ATOM     15 CL   UNL     1       1.060  -2.840  -2.544  0.00  0.00    -0.076 Cl
ENDBRANCH   1  12
BRANCH   4  16
ATOM     16  C   UNL     1       0.470  -7.761   2.164  0.00  0.00    +0.148 C 
BRANCH  16  17
ATOM     17  C   UNL     1       1.720  -8.577   1.957  0.00  0.00    -0.019 A 
ATOM     18  C   UNL     1       1.719  -9.626   1.056  0.00  0.00    +0.007 A 
ATOM     19  C   UNL     1       2.866 -10.374   0.866  0.00  0.00    +0.020 A 
ATOM     20  C   UNL     1       4.014 -10.074   1.577  0.00  0.00    +0.041 A 
ATOM     21  C   UNL     1       4.014  -9.024   2.478  0.00  0.00    +0.020 A 
ATOM     22  C   UNL     1       2.869  -8.273   2.664  0.00  0.00    +0.007 A 
ATOM     23 CL   UNL     1       5.454 -11.014   1.339  0.00  0.00    -0.084 Cl
ENDBRANCH  16  17
BRANCH  16  24
ATOM     24  O   UNL     1      -0.668  -8.626   2.171  0.00  0.00    -0.387 OA
ATOM     25  H   UNL     1      -0.786  -9.127   1.352  0.00  0.00    +0.210 HD
ENDBRANCH  16  24
ENDBRANCH   4  16
TORSDOF 4
