REMARK  Name = ZINC47877704
REMARK  9 active torsions:
REMARK  status: ('A' for Active; 'I' for Inactive)
REMARK    1  A    between atoms: C_1  and  C_2
REMARK    2  A    between atoms: C_2  and  C_4
REMARK    3  A    between atoms: C_2  and  N_9
REMARK    4  A    between atoms: N_9  and  C_10
REMARK    5  A    between atoms: N_13  and  C_14
REMARK    6  A    between atoms: C_19  and  O_20
REMARK    7  A    between atoms: O_20  and  C_21
REMARK    8  A    between atoms: C_21  and  C_22
REMARK    9  A    between atoms: C_22  and  C_23
REMARK                            x       y       z     vdW  Elec       q    Type
REMARK                         _______ _______ _______ _____ _____    ______ ____
ROOT
ATOM      1  C   UNL     1       0.023  -2.584  -4.064  0.00  0.00    +0.077 A 
ATOM      2  C   UNL     1      -1.346  -2.494  -4.267  0.00  0.00    +0.027 A 
ATOM      3  C   UNL     1      -1.978  -3.376  -5.122  0.00  0.00    +0.002 A 
ATOM      4  C   UNL     1      -1.249  -4.351  -5.778  0.00  0.00    +0.004 A 
ATOM      5  C   UNL     1       0.116  -4.447  -5.581  0.00  0.00    +0.047 A 
ATOM      6  C   UNL     1       0.758  -3.562  -4.730  0.00  0.00    +0.142 A 
ENDROOT
BRANCH   1  11
ATOM      7  N   UNL     1       0.681  -0.462  -1.212  0.00  0.00    -0.281 N 
ATOM      8  C   UNL     1       2.075  -0.083  -1.457  0.00  0.00    +0.134 C 
ATOM      9  C   UNL     1       0.032  -1.250  -2.092  0.00  0.00    +0.307 C 
ATOM     10  O   UNL     1      -1.125  -1.564  -1.889  0.00  0.00    -0.252 OA
ATOM     11  N   UNL     1       0.666  -1.690  -3.197  0.00  0.00    -0.266 N 
ATOM     12  H   UNL     1       1.567  -1.388  -3.393  0.00  0.00    +0.156 HD
BRANCH   7  14
ATOM     13  C   UNL     1      -0.035   1.546  -0.014  0.00  0.00    +0.034 C 
ATOM     14  C   UNL     1      -0.007   0.017  -0.011  0.00  0.00    +0.111 C 
BRANCH  14  15
ATOM     15  C   UNL     1       0.723  -0.470   1.214  0.00  0.00    +0.010 A 
ATOM     16  C   UNL     1       0.215  -0.940   2.380  0.00  0.00    +0.013 A 
ATOM     17  C   UNL     1       1.086  -1.336   3.378  0.00  0.00    +0.008 A 
ATOM     18  C   UNL     1       2.421  -1.244   3.162  0.00  0.00    +0.045 A 
ATOM     19  S   UNL     1       2.481  -0.587   1.503  0.00  0.00    -0.100 S 
ENDBRANCH  14  15
ENDBRANCH   7  14
ENDBRANCH   1  11
BRANCH   6  20
ATOM     20  O   UNL     1       2.102  -3.652  -4.540  0.00  0.00    -0.490 OA
BRANCH  20  21
ATOM     21  C   UNL     1       2.791  -4.680  -5.255  0.00  0.00    +0.238 C 
BRANCH  21  22
ATOM     22  C   UNL     1       4.282  -4.625  -4.916  0.00  0.00    +0.136 C 
BRANCH  22  23
ATOM     23  C   UNL     1       5.008  -5.709  -5.670  0.00  0.00    +0.214 C 
ATOM     24  O   UNL     1       4.394  -6.452  -6.406  0.00  0.00    -0.276 OA
ATOM     25  N   UNL     1       6.341  -5.853  -5.527  0.00  0.00    -0.329 N 
ATOM     26  H   UNL     1       6.832  -5.258  -4.938  0.00  0.00    +0.145 HD
ATOM     27  H   UNL     1       6.808  -6.550  -6.012  0.00  0.00    +0.145 HD
ENDBRANCH  22  23
ENDBRANCH  21  22
ENDBRANCH  20  21
ENDBRANCH   6  20
TORSDOF 7
