REMARK  Name = ZINC17836182
REMARK  7 active torsions:
REMARK  status: ('A' for Active; 'I' for Inactive)
REMARK    1  A    between atoms: C_1  and  C_2
REMARK    2  A    between atoms: C_5  and  C_8
REMARK    3  A    between atoms: C_10  and  C_18
REMARK    4  A    between atoms: N_20  and  N_21
REMARK    5  A    between atoms: C_22  and  C_24
REMARK    6  A    between atoms: C_24  and  C_25
REMARK    7  A    between atoms: C_34  and  O_37
REMARK                            x       y       z     vdW  Elec       q    Type
REMARK                         _______ _______ _______ _____ _____    ______ ____
ROOT
ATOM      1  C   UNL     1       0.099  -7.090   2.476  0.00  0.00    +0.261 C 
ATOM      2  O   UNL     1       0.022  -8.303   2.455  0.00  0.00    -0.269 OA
ATOM      3  N   UNL     1       0.193  -6.442   3.654  0.00  0.00    -0.230 N 
ATOM      4  H   UNL     1       0.254  -5.474   3.671  0.00  0.00    +0.173 HD
ENDROOT
BRANCH   1   7
ATOM      5  C   UNL     1       0.046  -4.255  -0.021  0.00  0.00    +0.072 A 
ATOM      6  C   UNL     1       0.055  -4.939   1.204  0.00  0.00    +0.042 A 
ATOM      7  C   UNL     1       0.087  -6.326   1.210  0.00  0.00    +0.049 A 
ATOM      8  C   UNL     1       0.110  -7.003  -0.087  0.00  0.00    +0.013 A 
ATOM      9  C   UNL     1       0.143  -8.398  -0.184  0.00  0.00    +0.011 A 
ATOM     10  C   UNL     1       0.163  -8.988  -1.413  0.00  0.00    +0.001 A 
ATOM     11  C   UNL     1       0.152  -8.219  -2.574  0.00  0.00    +0.002 A 
ATOM     12  C   UNL     1       0.121  -6.859  -2.517  0.00  0.00    +0.028 A 
ATOM     13  C   UNL     1       0.099  -6.215  -1.266  0.00  0.00    +0.072 A 
ATOM     14  N   UNL     1       0.062  -4.884  -1.178  0.00  0.00    -0.247 NA
BRANCH   5  19
ATOM     15  C   UNL     1      -0.092   1.501   0.010  0.00  0.00    +0.044 C 
ATOM     16  C   UNL     1      -0.056  -0.005   0.002  0.00  0.00    -0.050 A 
ATOM     17  C   UNL     1      -0.038  -0.687  -1.201  0.00  0.00    +0.004 A 
ATOM     18  C   UNL     1      -0.005  -2.067  -1.215  0.00  0.00    +0.010 A 
ATOM     19  C   UNL     1       0.011  -2.773  -0.013  0.00  0.00    +0.000 A 
ATOM     20  C   UNL     1      -0.007  -2.080   1.196  0.00  0.00    +0.010 A 
ATOM     21  C   UNL     1      -0.036  -0.700   1.198  0.00  0.00    +0.004 A 
ENDBRANCH   5  19
ENDBRANCH   1   7
BRANCH   3  22
ATOM     22  N   UNL     1       0.204  -7.165   4.853  0.00  0.00    -0.234 N 
ATOM     23  C   UNL     1       0.298  -6.517   6.031  0.00  0.00    +0.230 C 
ATOM     24  O   UNL     1       0.374  -5.306   6.052  0.00  0.00    -0.274 OA
ATOM     25  H   UNL     1       0.143  -8.133   4.836  0.00  0.00    +0.173 HD
BRANCH  23  26
ATOM     26  C   UNL     1       0.310  -7.295   7.321  0.00  0.00    +0.104 C 
BRANCH  26  27
ATOM     27  C   UNL     1       0.425  -6.327   8.500  0.00  0.00    -0.018 C 
ATOM     28  C   UNL     1       1.722  -5.524   8.377  0.00  0.00    +0.011 C 
ATOM     29  C   UNL     1       1.836  -4.556   9.556  0.00  0.00    -0.007 C 
ATOM     30  C   UNL     1       0.642  -3.599   9.548  0.00  0.00    +0.007 C 
ATOM     31  C   UNL     1      -0.655  -4.402   9.671  0.00  0.00    -0.007 C 
ATOM     32  C   UNL     1      -0.769  -5.370   8.492  0.00  0.00    +0.011 C 
ATOM     33  C   UNL     1      -0.643  -5.192  10.981  0.00  0.00    +0.038 C 
ATOM     34  C   UNL     1       0.551  -6.149  10.989  0.00  0.00    +0.067 C 
ATOM     35  C   UNL     1       1.848  -5.346  10.866  0.00  0.00    +0.038 C 
ATOM     36  C   UNL     1       0.436  -7.117   9.810  0.00  0.00    +0.042 C 
BRANCH  34  37
ATOM     37  O   UNL     1       0.562  -6.887  12.213  0.00  0.00    -0.389 OA
ATOM     38  H   UNL     1       0.632  -6.335  13.004  0.00  0.00    +0.210 HD
ENDBRANCH  34  37
ENDBRANCH  26  27
ENDBRANCH  23  26
ENDBRANCH   3  22
TORSDOF 6
