REMARK  Name = ZINC14750700
REMARK  7 active torsions:
REMARK  status: ('A' for Active; 'I' for Inactive)
REMARK    1  A    between atoms: C_2  and  C_3
REMARK    2  A    between atoms: C_3  and  N_4
REMARK    3  A    between atoms: C_7  and  C_9
REMARK    4  A    between atoms: C_18  and  N_64
REMARK    5  A    between atoms: C_22  and  C_23
REMARK    6  A    between atoms: C_22  and  N_64
REMARK    7  A    between atoms: C_23  and  O_29
REMARK                            x       y       z     vdW  Elec       q    Type
REMARK                         _______ _______ _______ _____ _____    ______ ____
ROOT
ATOM      1  N   UNL     1       2.314   1.554   1.056  0.00  0.00    -0.264 N 
ATOM      2  C   UNL     1       2.986   0.391   1.079  0.00  0.00    +0.043 A 
ATOM      3  C   UNL     1       3.441   0.215   2.344  0.00  0.00    +0.004 A 
ATOM      4  C   UNL     1       3.005   1.337   3.070  0.00  0.00    +0.151 A 
ATOM      5  N   UNL     1       2.337   2.100   2.223  0.00  0.00    -0.166 NA
ATOM      6  C   UNL     1       4.244  -0.969   2.806  0.00  0.00    +0.023 C 
ATOM      7  C   UNL     1       4.102  -2.084   1.761  0.00  0.00    -0.067 C 
ATOM      8  C   UNL     1       4.377  -1.516   0.366  0.00  0.00    -0.009 C 
ATOM      9  C   UNL     1       3.231  -0.582  -0.045  0.00  0.00    +0.054 C 
ENDROOT
BRANCH   4  10
ATOM     10  C   UNL     1       3.251   1.612   4.500  0.00  0.00    +0.267 C 
ATOM     11  O   UNL     1       3.985   0.884   5.142  0.00  0.00    -0.268 OA
ATOM     12  N   UNL     1       2.663   2.669   5.094  0.00  0.00    -0.296 N 
ATOM     13  C   UNL     1       1.663   3.470   4.376  0.00  0.00    +0.108 C 
ATOM     14  C   UNL     1       0.390   3.545   5.232  0.00  0.00    +0.019 C 
ATOM     15  C   UNL     1       0.746   4.082   6.620  0.00  0.00    +0.003 C 
ATOM     16  C   UNL     1       1.729   3.128   7.301  0.00  0.00    +0.019 C 
ATOM     17  C   UNL     1       3.013   3.045   6.471  0.00  0.00    +0.108 C 
ENDBRANCH   4  10
BRANCH   7  18
ATOM     18  N   UNL     1       5.076  -3.152   2.058  0.00  0.00    +0.383 N 
ATOM     19  H   UNL     1       5.184  -3.239   3.076  0.00  0.00    -0.085 HD
ATOM     20  H   UNL     1       5.981  -2.912   1.637  0.00  0.00    -0.085 HD
BRANCH  18  21
ATOM     21  C   UNL     1       4.609  -4.438   1.507  0.00  0.00    -0.047 C 
BRANCH  21  22
ATOM     22  C   UNL     1       5.637  -5.524   1.830  0.00  0.00    +0.051 C 
ATOM     23  C   UNL     1       7.011  -5.096   1.312  0.00  0.00    +0.033 C 
ATOM     24  C   UNL     1       8.039  -6.183   1.635  0.00  0.00    +0.003 C 
ATOM     25  C   UNL     1       7.625  -7.493   0.961  0.00  0.00    +0.000 C 
ATOM     26  C   UNL     1       6.251  -7.921   1.479  0.00  0.00    +0.003 C 
ATOM     27  C   UNL     1       5.223  -6.834   1.156  0.00  0.00    +0.033 C 
BRANCH  22  28
ATOM     28  O   UNL     1       5.699  -5.715   3.245  0.00  0.00    -0.390 OA
ATOM     29  H   UNL     1       5.956  -4.924   3.737  0.00  0.00    +0.210 HD
ENDBRANCH  22  28
ENDBRANCH  21  22
ENDBRANCH  18  21
ENDBRANCH   7  18
BRANCH   1  30
ATOM     30  C   UNL     1       1.657   2.122  -0.124  0.00  0.00    +0.170 C 
BRANCH  30  32
ATOM     31  C   UNL     1      -0.752   2.490  -0.268  0.00  0.00    +0.006 C 
ATOM     32  C   UNL     1       0.234   1.631  -0.192  0.00  0.00    -0.012 C 
ENDBRANCH  30  32
ENDBRANCH   1  30
TORSDOF 7
