REMARK  Name = ZINC33911938
REMARK  11 active torsions:
REMARK  status: ('A' for Active; 'I' for Inactive)
REMARK    1  A    between atoms: C_1  and  C_2
REMARK    2  A    between atoms: C_6  and  C_15
REMARK    3  A    between atoms: C_13  and  C_14
REMARK    4  A    between atoms: C_15  and  C_17
REMARK    5  A    between atoms: C_15  and  N_29
REMARK    6  A    between atoms: N_21  and  C_22
REMARK    7  A    between atoms: C_22  and  C_23
REMARK    8  A    between atoms: N_29  and  C_30
REMARK    9  A    between atoms: N_29  and  C_37
REMARK   10  A    between atoms: C_30  and  C_31
REMARK   11  A    between atoms: C_37  and  C_38
REMARK                            x       y       z     vdW  Elec       q    Type
REMARK                         _______ _______ _______ _____ _____    ______ ____
ROOT
ATOM      1  C   UNL     1      -0.046  -5.172  -3.546  0.00  0.00    +0.040 C 
ENDROOT
BRANCH   1   7
ATOM      2  C   UNL     1      -1.359   0.628   0.954  0.00  0.00    +0.044 C 
ATOM      3  C   UNL     1      -0.989  -0.818   0.748  0.00  0.00    -0.047 A 
ATOM      4  C   UNL     1      -0.915  -1.324  -0.519  0.00  0.00    +0.013 A 
ATOM      5  C   UNL     1      -0.572  -2.666  -0.710  0.00  0.00    -0.001 A 
ATOM      6  C   UNL     1      -0.483  -3.242  -2.054  0.00  0.00    +0.017 A 
ATOM      7  C   UNL     1      -0.145  -4.549  -2.177  0.00  0.00    +0.011 A 
ATOM      8  C   UNL     1       0.113  -5.328  -1.030  0.00  0.00    +0.251 A 
ATOM      9  O   UNL     1       0.415  -6.501  -1.164  0.00  0.00    -0.268 OA
ATOM     10  N   UNL     1       0.035  -4.809   0.208  0.00  0.00    -0.322 N 
ATOM     11  H   UNL     1       0.220  -5.373   0.976  0.00  0.00    +0.169 HD
ATOM     12  C   UNL     1      -0.304  -3.487   0.402  0.00  0.00    +0.049 A 
ATOM     13  C   UNL     1      -0.386  -2.949   1.683  0.00  0.00    +0.030 A 
ATOM     14  C   UNL     1      -0.720  -1.622   1.847  0.00  0.00    -0.046 A 
ATOM     15  C   UNL     1      -0.801  -1.040   3.235  0.00  0.00    +0.044 C 
ENDBRANCH   1   7
BRANCH   1  16
ATOM     16  C   UNL     1      -1.147  -6.187  -3.717  0.00  0.00    +0.143 A 
ATOM     17  N   UNL     1      -1.203  -7.380  -3.177  0.00  0.00    -0.115 NA
ATOM     18  N   UNL     1      -2.297  -7.940  -3.562  0.00  0.00    -0.023 NA
ATOM     19  N   UNL     1      -2.941  -7.135  -4.334  0.00  0.00    -0.044 NA
ATOM     20  N   UNL     1      -2.267  -6.041  -4.450  0.00  0.00    -0.228 N 
BRANCH  20  21
ATOM     21  C   UNL     1      -2.647  -4.864  -5.234  0.00  0.00    +0.178 C 
BRANCH  21  22
ATOM     22  C   UNL     1      -2.098  -5.000  -6.656  0.00  0.00    +0.140 C 
ATOM     23  C   UNL     1      -2.565  -3.808  -7.529  0.00  0.00    +0.035 C 
ATOM     24  C   UNL     1      -1.451  -3.780  -8.611  0.00  0.00    +0.031 C 
ATOM     25  C   UNL     1      -0.206  -4.219  -7.810  0.00  0.00    +0.160 C 
ATOM     26  O   UNL     1      -0.664  -4.921  -6.647  0.00  0.00    -0.375 OA
ENDBRANCH  21  22
ENDBRANCH  20  21
ENDBRANCH   1  16
BRANCH   1  27
ATOM     27  N   UNL     1       1.257  -5.835  -3.688  0.00  0.00    +0.397 N 
ATOM     28  H   UNL     1       1.342  -6.563  -2.995  0.00  0.00    -0.079 HD
BRANCH  27  29
ATOM     29  C   UNL     1       2.331  -4.850  -3.499  0.00  0.00    -0.039 C 
BRANCH  29  30
ATOM     30  C   UNL     1       2.216  -3.773  -4.547  0.00  0.00    -0.046 A 
ATOM     31  C   UNL     1       2.792  -3.945  -5.796  0.00  0.00    +0.005 A 
ATOM     32  C   UNL     1       2.661  -2.928  -6.729  0.00  0.00    +0.020 A 
ATOM     33  C   UNL     1       1.965  -1.785  -6.385  0.00  0.00    +0.111 A 
ATOM     34  N   UNL     1       1.430  -1.655  -5.187  0.00  0.00    -0.263 NA
ATOM     35  C   UNL     1       1.530  -2.605  -4.277  0.00  0.00    +0.112 A 
ENDBRANCH  29  30
ENDBRANCH  27  29
BRANCH  27  36
ATOM     36  C   UNL     1       1.363  -6.423  -5.031  0.00  0.00    -0.001 C 
BRANCH  36  37
ATOM     37  C   UNL     1       2.618  -7.254  -5.117  0.00  0.00    +0.089 A 
ATOM     38  C   UNL     1       2.697  -8.581  -4.915  0.00  0.00    +0.042 A 
ATOM     39  C   UNL     1       4.052  -8.942  -5.096  0.00  0.00    +0.041 A 
ATOM     40  C   UNL     1       4.719  -7.814  -5.398  0.00  0.00    +0.195 A 
ATOM     41  O   UNL     1       3.844  -6.795  -5.415  0.00  0.00    -0.470 OA
ENDBRANCH  36  37
ENDBRANCH  27  36
ENDBRANCH   1  27
TORSDOF 9
