REMARK  Name = ZINC10534470
REMARK  10 active torsions:
REMARK  status: ('A' for Active; 'I' for Inactive)
REMARK    1  A    between atoms: C_1  and  C_2
REMARK    2  A    between atoms: N_13  and  C_29
REMARK    3  A    between atoms: C_14  and  S_16
REMARK    4  A    between atoms: S_16  and  C_17
REMARK    5  A    between atoms: C_17  and  C_19
REMARK    6  A    between atoms: C_17  and  C_20
REMARK    7  A    between atoms: N_25  and  C_26
REMARK    8  A    between atoms: C_29  and  C_30
REMARK    9  A    between atoms: C_30  and  C_31
REMARK   10  A    between atoms: C_30  and  C_32
REMARK                            x       y       z     vdW  Elec       q    Type
REMARK                         _______ _______ _______ _____ _____    ______ ____
ROOT
ATOM      1  C   UNL     1     -13.168  -5.586   0.432  0.00  0.00    +0.008 C 
ATOM      2  C   UNL     1     -12.347  -4.310   0.237  0.00  0.00    -0.009 C 
ATOM      3  C   UNL     1     -12.583  -3.362   1.417  0.00  0.00    +0.008 C 
ATOM      4  C   UNL     1     -11.969  -1.995   1.116  0.00  0.00    +0.037 C 
ATOM      5  C   UNL     1     -10.512  -2.188   0.706  0.00  0.00    -0.023 A 
ATOM      6  C   UNL     1     -10.065  -3.393   0.297  0.00  0.00    -0.004 A 
ATOM      7  S   UNL     1      -8.348  -3.147  -0.068  0.00  0.00    -0.073 S 
ATOM      8  C   UNL     1      -8.235  -1.421   0.330  0.00  0.00    +0.117 A 
ATOM      9  C   UNL     1      -9.539  -1.094   0.735  0.00  0.00    +0.076 A 
ATOM     10  C   UNL     1      -9.748   0.268   1.124  0.00  0.00    +0.263 A 
ATOM     11  O   UNL     1     -10.848   0.644   1.491  0.00  0.00    -0.267 OA
ATOM     12  N   UNL     1      -8.712   1.126   1.082  0.00  0.00    -0.287 N 
ATOM     13  C   UNL     1      -7.475   0.724   0.669  0.00  0.00    +0.173 A 
ATOM     14  N   UNL     1      -7.256  -0.524   0.307  0.00  0.00    -0.216 NA
ATOM     15  C   UNL     1     -10.854  -4.661   0.178  0.00  0.00    +0.046 C 
ENDROOT
BRANCH  13  16
ATOM     16  S   UNL     1      -6.152   1.887   0.625  0.00  0.00    -0.075 S 
BRANCH  16  17
ATOM     17  C   UNL     1      -4.816   0.821   0.029  0.00  0.00    +0.137 C 
ATOM     18  C   UNL     1      -5.133   0.352  -1.392  0.00  0.00    +0.029 C 
BRANCH  17  19
ATOM     19  C   UNL     1      -3.522   1.592   0.027  0.00  0.00    +0.233 C 
ATOM     20  O   UNL     1      -3.538   2.804   0.034  0.00  0.00    -0.274 OA
ATOM     21  N   UNL     1      -2.345   0.934   0.018  0.00  0.00    -0.239 N 
ATOM     22  C   UNL     1      -1.187   1.624   0.017  0.00  0.00    +0.306 C 
ATOM     23  O   UNL     1      -1.204   2.839   0.023  0.00  0.00    -0.252 OA
ATOM     24  N   UNL     1      -0.011   0.966   0.007  0.00  0.00    -0.296 N 
ATOM     25  H   UNL     1      -2.332  -0.036   0.013  0.00  0.00    +0.159 HD
ATOM     26  H   UNL     1       0.002  -0.004   0.002  0.00  0.00    +0.151 HD
BRANCH  24  27
ATOM     27  C   UNL     1       1.248   1.716  -0.001  0.00  0.00    +0.075 C 
ATOM     28  C   UNL     1       2.347   1.240  -0.952  0.00  0.00    +0.024 C 
ATOM     29  C   UNL     1       2.490   1.016   0.555  0.00  0.00    +0.024 C 
ENDBRANCH  24  27
ENDBRANCH  17  19
ENDBRANCH  16  17
ENDBRANCH  13  16
BRANCH  12  30
ATOM     30  C   UNL     1      -8.917   2.520   1.484  0.00  0.00    +0.130 C 
BRANCH  30  31
ATOM     31  C   UNL     1      -9.332   3.346   0.265  0.00  0.00    +0.003 C 
ATOM     32  C   UNL     1     -10.695   2.865  -0.238  0.00  0.00    +0.009 C 
ATOM     33  C   UNL     1      -9.425   4.822   0.657  0.00  0.00    +0.009 C 
ENDBRANCH  30  31
ENDBRANCH  12  30
TORSDOF 6
