REMARK  Name = ZINC67007081
REMARK  4 active torsions:
REMARK  status: ('A' for Active; 'I' for Inactive)
REMARK    1  A    between atoms: C_5  and  C_6
REMARK    2  A    between atoms: C_6  and  N_7
REMARK    3  A    between atoms: C_10  and  C_17
REMARK    4  A    between atoms: C_12  and  C_14
REMARK                            x       y       z     vdW  Elec       q    Type
REMARK                         _______ _______ _______ _____ _____    ______ ____
ROOT
ATOM      1  N   UNL     1      -1.545  -1.274  -1.370  0.00  0.00    -0.224 N 
ATOM      2  C   UNL     1      -0.971  -2.317  -1.999  0.00  0.00    +0.279 A 
ATOM      3  O   UNL     1      -0.137  -3.000  -1.425  0.00  0.00    -0.266 OA
ATOM      4  C   UNL     1      -1.343  -2.614  -3.328  0.00  0.00    +0.122 A 
ATOM      5  C   UNL     1      -2.282  -1.817  -3.919  0.00  0.00    +0.043 A 
ATOM      6  C   UNL     1      -2.818  -0.754  -3.174  0.00  0.00    +0.065 A 
ATOM      7  N   UNL     1      -2.429  -0.543  -1.948  0.00  0.00    -0.173 NA
ENDROOT
BRANCH   4   8
ATOM      8  C   UNL     1      -0.726  -3.772  -4.069  0.00  0.00    +0.423 C 
ATOM      9  F   UNL     1       0.479  -3.364  -4.650  0.00  0.00    -0.166 F 
ATOM     10  F   UNL     1      -0.483  -4.821  -3.177  0.00  0.00    -0.166 F 
ATOM     11  F   UNL     1      -1.603  -4.205  -5.070  0.00  0.00    -0.166 F 
ENDBRANCH   4   8
BRANCH   6  12
ATOM     12  C   UNL     1      -3.856   0.146  -3.795  0.00  0.00    +0.040 C 
ATOM     13  C   UNL     1      -3.490   1.620  -3.985  0.00  0.00    +0.010 C 
ATOM     14  C   UNL     1      -4.490   1.214  -2.901  0.00  0.00    +0.010 C 
ENDBRANCH   6  12
BRANCH   1  15
ATOM     15  C   UNL     1      -1.156  -0.969   0.009  0.00  0.00    +0.189 C 
BRANCH  15  20
ATOM     16  C   UNL     1      -0.016   1.351   0.009  0.00  0.00    +0.014 A 
ATOM     17  C   UNL     1       1.183   2.038   0.002  0.00  0.00    +0.023 A 
ATOM     18  C   UNL     1       2.343   1.335  -0.013  0.00  0.00    +0.055 A 
ATOM     19  S   UNL     1       1.753  -0.350  -0.017  0.00  0.00    -0.085 S 
ATOM     20  C   UNL     1       0.002  -0.004   0.002  0.00  0.00    +0.012 A 
ATOM     21 BR   UNL     1       4.123   1.974  -0.027  0.00  0.00    -0.043 Br
ENDBRANCH  15  20
ENDBRANCH   1  15
TORSDOF 4
