REMARK  Name = ZINC36027408
REMARK  6 active torsions:
REMARK  status: ('A' for Active; 'I' for Inactive)
REMARK    1  A    between atoms: C_1  and  C_2
REMARK    2  A    between atoms: C_5  and  S_8
REMARK    3  A    between atoms: S_8  and  N_11
REMARK    4  A    between atoms: C_18  and  C_24
REMARK    5  A    between atoms: N_22  and  C_23
REMARK    6  A    between atoms: C_24  and  C_25
REMARK                            x       y       z     vdW  Elec       q    Type
REMARK                         _______ _______ _______ _____ _____    ______ ____
ROOT
ATOM      1  N   UNL     1       1.648  -5.072  -0.423  0.00  0.00    -0.177 NA
ATOM      2  C   UNL     1       2.497  -5.293  -1.600  0.00  0.00    +0.109 C 
ATOM      3  C   UNL     1       3.127  -6.679  -1.516  0.00  0.00    +0.023 C 
ATOM      4  C   UNL     1       3.780  -6.958  -0.165  0.00  0.00    +0.005 C 
ATOM      5  C   UNL     1       2.841  -6.652   0.998  0.00  0.00    +0.023 C 
ATOM      6  C   UNL     1       2.247  -5.249   0.905  0.00  0.00    +0.109 C 
ATOM      7  N   UNL     1       4.056  -8.424  -0.128  0.00  0.00    +0.401 N 
ATOM      8  C   UNL     1       5.375  -8.544   0.521  0.00  0.00    +0.023 C 
ATOM      9  C   UNL     1       5.999  -7.173   0.426  0.00  0.00    +0.201 C 
ATOM     10  O   UNL     1       7.148  -6.893   0.698  0.00  0.00    -0.277 OA
ATOM     11  N   UNL     1       5.067  -6.295  -0.013  0.00  0.00    -0.317 N 
ATOM     12  C   UNL     1       5.383  -4.886  -0.278  0.00  0.00    +0.130 C 
ATOM     13  H   UNL     1       3.341  -8.891   0.411  0.00  0.00    -0.082 HD
ATOM     14  H   UNL     1       4.080  -8.787  -1.070  0.00  0.00    -0.082 HD
ENDROOT
BRANCH   1  15
ATOM     15  S   UNL     1       0.060  -4.636  -0.589  0.00  0.00    +0.061 S 
ATOM     16  O   UNL     1      -0.599  -5.039   0.604  0.00  0.00    -0.153 OA
ATOM     17  O   UNL     1      -0.351  -5.082  -1.874  0.00  0.00    -0.153 OA
BRANCH  15  22
ATOM     18  C   UNL     1      -0.136   1.393  -0.712  0.00  0.00    +0.044 C 
ATOM     19  C   UNL     1      -0.087  -0.113  -0.681  0.00  0.00    -0.050 A 
ATOM     20  C   UNL     1       0.056  -0.824  -1.858  0.00  0.00    +0.005 A 
ATOM     21  C   UNL     1       0.100  -2.205  -1.830  0.00  0.00    +0.029 A 
ATOM     22  C   UNL     1       0.004  -2.875  -0.625  0.00  0.00    +0.105 A 
ATOM     23  C   UNL     1      -0.138  -2.164   0.552  0.00  0.00    +0.029 A 
ATOM     24  C   UNL     1      -0.178  -0.783   0.524  0.00  0.00    +0.005 A 
ENDBRANCH  15  22
ENDBRANCH   1  15
BRANCH   8  25
ATOM     25  C   UNL     1       5.233  -8.976   1.982  0.00  0.00    +0.028 C 
BRANCH  25  26
ATOM     26  C   UNL     1       4.654 -10.366   2.040  0.00  0.00    -0.048 A 
ATOM     27  C   UNL     1       3.284 -10.543   2.090  0.00  0.00    +0.003 A 
ATOM     28  C   UNL     1       2.754 -11.818   2.144  0.00  0.00    +0.000 A 
ATOM     29  C   UNL     1       3.593 -12.916   2.147  0.00  0.00    +0.000 A 
ATOM     30  C   UNL     1       4.963 -12.740   2.096  0.00  0.00    +0.000 A 
ATOM     31  C   UNL     1       5.494 -11.465   2.038  0.00  0.00    +0.003 A 
ENDBRANCH  25  26
ENDBRANCH   8  25
TORSDOF 4
