REMARK  Name = ZINC62977160
REMARK  9 active torsions:
REMARK  status: ('A' for Active; 'I' for Inactive)
REMARK    1  A    between atoms: C_1  and  C_2
REMARK    2  A    between atoms: C_2  and  N_3
REMARK    3  A    between atoms: N_3  and  C_4
REMARK    4  A    between atoms: N_3  and  C_6
REMARK    5  A    between atoms: C_4  and  C_5
REMARK    6  A    between atoms: N_10  and  C_12
REMARK    7  A    between atoms: C_12  and  C_14
REMARK    8  A    between atoms: C_12  and  C_16
REMARK    9  A    between atoms: C_14  and  N_15
REMARK                            x       y       z     vdW  Elec       q    Type
REMARK                         _______ _______ _______ _____ _____    ______ ____
ROOT
ATOM      1  C   UNL     1      -3.496  -5.041  -0.788  0.00  0.00    +0.069 C 
ENDROOT
BRANCH   1   2
ATOM      2  C   UNL     1      -4.735  -4.678  -1.565  0.00  0.00    -0.032 A 
ATOM      3  C   UNL     1      -5.804  -4.080  -0.923  0.00  0.00    +0.006 A 
ATOM      4  C   UNL     1      -6.940  -3.747  -1.636  0.00  0.00    +0.015 A 
ATOM      5  C   UNL     1      -7.008  -4.011  -2.992  0.00  0.00    +0.018 A 
ATOM      6  C   UNL     1      -5.938  -4.608  -3.634  0.00  0.00    +0.015 A 
ATOM      7  C   UNL     1      -4.800  -4.937  -2.922  0.00  0.00    +0.006 A 
ATOM      8 BR   UNL     1      -8.562  -3.555  -3.968  0.00  0.00    -0.050 Br
ENDBRANCH   1   2
BRANCH   1  12
ATOM      9  C   UNL     1      -1.574  -2.189  -0.089  0.00  0.00    -0.053 C 
ATOM     10  C   UNL     1      -1.313  -2.940   1.244  0.00  0.00    +0.001 C 
ATOM     11  C   UNL     1      -1.992  -4.306   0.972  0.00  0.00    +0.083 C 
ATOM     12  N   UNL     1      -3.197  -3.978   0.181  0.00  0.00    -0.299 NA
ATOM     13  C   UNL     1      -2.974  -2.688  -0.505  0.00  0.00    +0.070 C 
BRANCH   9  14
ATOM     14  N   UNL     1      -1.583  -0.736   0.126  0.00  0.00    +0.382 N 
ATOM     15  H   UNL     1      -2.209  -0.513   0.885  0.00  0.00    -0.081 HD
BRANCH  14  17
ATOM     16  C   UNL     1      -0.259   1.208   0.806  0.00  0.00    -0.017 C 
ATOM     17  C   UNL     1      -0.227  -0.282   0.460  0.00  0.00    -0.082 C 
ENDBRANCH  14  17
BRANCH  14  18
ATOM     18  C   UNL     1      -2.038  -0.063  -1.098  0.00  0.00    -0.082 C 
ATOM     19  C   UNL     1      -1.086  -0.397  -2.247  0.00  0.00    -0.017 C 
ENDBRANCH  14  18
ENDBRANCH   9  14
ENDBRANCH   1  12
BRANCH   1  20
ATOM     20  C   UNL     1      -3.729  -6.357  -0.044  0.00  0.00    -0.063 C 
BRANCH  20  21
ATOM     21  N   UNL     1      -3.928  -7.441  -1.016  0.00  0.00    +0.379 N 
ATOM     22  H   UNL     1      -4.740  -7.241  -1.581  0.00  0.00    -0.090 HD
ATOM     23  H   UNL     1      -3.115  -7.513  -1.610  0.00  0.00    -0.090 HD
ATOM     24  H   UNL     1      -4.064  -8.312  -0.526  0.00  0.00    -0.090 HD
ENDBRANCH  20  21
ENDBRANCH   1  20
TORSDOF 7
