REMARK  Name = ZINC35606434
REMARK  8 active torsions:
REMARK  status: ('A' for Active; 'I' for Inactive)
REMARK    1  A    between atoms: C_1  and  O_2
REMARK    2  A    between atoms: O_2  and  C_3
REMARK    3  A    between atoms: C_5  and  C_12
REMARK    4  A    between atoms: C_7  and  O_10
REMARK    5  A    between atoms: C_8  and  O_9
REMARK    6  A    between atoms: O_10  and  C_11
REMARK    7  A    between atoms: C_13  and  N_21
REMARK    8  A    between atoms: N_21  and  C_22
REMARK                            x       y       z     vdW  Elec       q    Type
REMARK                         _______ _______ _______ _____ _____    ______ ____
ROOT
ATOM      1  C   UNL     1       2.392  -0.018   5.062  0.00  0.00    +0.087 A 
ATOM      2  C   UNL     1       3.724   0.134   4.735  0.00  0.00    +0.133 A 
ATOM      3  N   UNL     1       3.999   1.472   4.809  0.00  0.00    -0.289 N 
ATOM      4  C   UNL     1       5.143   2.190   4.591  0.00  0.00    +0.094 A 
ATOM      5  C   UNL     1       5.149   3.531   4.733  0.00  0.00    +0.018 A 
ATOM      6  C   UNL     1       3.977   4.211   5.109  0.00  0.00    +0.005 A 
ATOM      7  C   UNL     1       2.832   3.512   5.329  0.00  0.00    +0.045 A 
ATOM      8  C   UNL     1       2.837   2.109   5.177  0.00  0.00    +0.117 A 
ATOM      9  N   UNL     1       1.885   1.201   5.319  0.00  0.00    -0.338 N 
ATOM     10  H   UNL     1       0.966   1.385   5.571  0.00  0.00    +0.167 HD
ENDROOT
BRANCH   1  13
ATOM     11  C   UNL     1      -0.310  -2.593   4.590  0.00  0.00    +0.166 A 
ATOM     12  C   UNL     1       0.382  -1.396   4.540  0.00  0.00    +0.059 A 
ATOM     13  C   UNL     1       1.649  -1.299   5.115  0.00  0.00    +0.009 A 
ATOM     14  C   UNL     1       2.216  -2.410   5.738  0.00  0.00    +0.059 A 
ATOM     15  C   UNL     1       1.520  -3.606   5.786  0.00  0.00    +0.166 A 
ATOM     16  C   UNL     1       0.255  -3.698   5.218  0.00  0.00    +0.201 A 
BRANCH  11  18
ATOM     17  C   UNL     1      -2.065  -1.514   3.402  0.00  0.00    +0.277 C 
ATOM     18  O   UNL     1      -1.546  -2.688   4.030  0.00  0.00    -0.491 OA
ENDBRANCH  11  18
BRANCH  16  19
ATOM     19  O   UNL     1      -0.430  -4.873   5.271  0.00  0.00    -0.501 OA
ATOM     20  H   UNL     1      -0.263  -5.461   4.521  0.00  0.00    +0.292 HD
ENDBRANCH  16  19
BRANCH  15  21
ATOM     21  O   UNL     1       2.073  -4.690   6.394  0.00  0.00    -0.491 OA
ATOM     22  C   UNL     1       3.374  -4.522   6.961  0.00  0.00    +0.277 C 
ENDBRANCH  15  21
ENDBRANCH   1  13
BRANCH   2  23
ATOM     23  N   UNL     1       4.618  -0.882   4.396  0.00  0.00    -0.299 N 
ATOM     24  H   UNL     1       4.576  -1.292   3.518  0.00  0.00    +0.154 HD
BRANCH  23  25
ATOM     25  C   UNL     1       5.574  -1.310   5.322  0.00  0.00    +0.036 A 
ATOM     26  C   UNL     1       5.548  -0.825   6.623  0.00  0.00    +0.027 A 
ATOM     27  C   UNL     1       6.493  -1.247   7.538  0.00  0.00    +0.051 A 
ATOM     28  C   UNL     1       7.470  -2.157   7.162  0.00  0.00    +0.162 A 
ATOM     29  C   UNL     1       7.497  -2.647   5.861  0.00  0.00    +0.164 A 
ATOM     30  C   UNL     1       6.547  -2.226   4.944  0.00  0.00    +0.072 A 
ATOM     31  O   UNL     1       8.443  -3.546   5.476  0.00  0.00    -0.485 OA
ATOM     32  C   UNL     1       9.598  -3.666   6.314  0.00  0.00    +0.270 C 
ATOM     33  C   UNL     1       9.126  -3.751   7.772  0.00  0.00    +0.270 C 
ATOM     34  O   UNL     1       8.395  -2.559   8.077  0.00  0.00    -0.485 OA
ENDBRANCH  23  25
ENDBRANCH   2  23
TORSDOF 6
