REMARK  Name = ZINC08944177
REMARK  6 active torsions:
REMARK  status: ('A' for Active; 'I' for Inactive)
REMARK    1  A    between atoms: C_1  and  C_2
REMARK    2  A    between atoms: C_2  and  C_4
REMARK    3  A    between atoms: C_2  and  N_61
REMARK    4  A    between atoms: C_16  and  C_17
REMARK    5  A    between atoms: C_16  and  C_18
REMARK    6  A    between atoms: C_22  and  C_24
REMARK                            x       y       z     vdW  Elec       q    Type
REMARK                         _______ _______ _______ _____ _____    ______ ____
ROOT
ATOM      1  C   UNL     1      -0.031   0.586  -2.671  0.00  0.00    -0.004 C 
ATOM      2  C   UNL     1      -1.440   0.841  -2.131  0.00  0.00    +0.017 C 
ENDROOT
BRANCH   2   3
ATOM      3  C   UNL     1      -1.509   2.225  -1.539  0.00  0.00    +0.207 C 
ATOM      4  O   UNL     1      -2.341   2.483  -0.696  0.00  0.00    -0.277 OA
ATOM      5  N   UNL     1      -0.645   3.176  -1.947  0.00  0.00    -0.257 N 
ATOM      6  C   UNL     1      -0.465   4.356  -1.208  0.00  0.00    +0.058 A 
ATOM      7  C   UNL     1      -1.490   4.884  -0.445  0.00  0.00    +0.025 A 
ATOM      8  C   UNL     1      -1.282   6.050   0.270  0.00  0.00    +0.002 A 
ATOM      9  C   UNL     1      -0.055   6.687   0.221  0.00  0.00    +0.002 A 
ATOM     10  C   UNL     1       0.974   6.163  -0.540  0.00  0.00    +0.025 A 
ATOM     11  C   UNL     1       0.775   4.994  -1.257  0.00  0.00    +0.055 A 
ATOM     12  N   UNL     1       1.805   4.444  -2.028  0.00  0.00    -0.282 N 
ATOM     13  C   UNL     1       1.548   3.482  -2.934  0.00  0.00    +0.241 C 
ATOM     14  O   UNL     1       2.462   2.989  -3.560  0.00  0.00    -0.273 OA
ATOM     15  C   UNL     1       0.142   3.009  -3.178  0.00  0.00    +0.113 C 
ATOM     16  C   UNL     1       0.162   1.531  -3.576  0.00  0.00    +0.042 C 
ATOM     17  C   UNL     1      -0.484   3.835  -4.303  0.00  0.00    +0.042 C 
ATOM     18  H   UNL     1       2.715   4.758  -1.908  0.00  0.00    +0.155 HD
ENDBRANCH   2   3
BRANCH   2  23
ATOM     19  C   UNL     1      -3.187  -0.106  -0.734  0.00  0.00    -0.077 C 
ATOM     20  C   UNL     1      -3.226  -0.449   0.776  0.00  0.00    -0.020 C 
ATOM     21  C   UNL     1      -1.947   0.261   1.292  0.00  0.00    -0.013 C 
ATOM     22  C   UNL     1      -0.956   0.086   0.123  0.00  0.00    -0.037 C 
ATOM     23  N   UNL     1      -1.757  -0.169  -1.088  0.00  0.00    +0.392 N 
ATOM     24  H   UNL     1      -1.538  -1.105  -1.450  0.00  0.00    -0.080 HD
BRANCH  22  25
ATOM     25  C   UNL     1      -0.130   1.335  -0.042  0.00  0.00    -0.057 A 
ATOM     26  C   UNL     1      -0.715   2.577   0.125  0.00  0.00    +0.006 A 
ATOM     27  C   UNL     1       0.039   3.725  -0.025  0.00  0.00    +0.049 A 
ATOM     28  C   UNL     1       1.386   3.635  -0.344  0.00  0.00    +0.162 A 
ATOM     29  C   UNL     1       1.975   2.387  -0.509  0.00  0.00    +0.162 A 
ATOM     30  C   UNL     1       1.214   1.239  -0.352  0.00  0.00    +0.051 A 
ATOM     31  O   UNL     1       3.296   2.276  -0.818  0.00  0.00    -0.485 OA
ATOM     32  C   UNL     1       3.937   3.448  -1.332  0.00  0.00    +0.270 C 
ATOM     33  C   UNL     1       3.538   4.640  -0.450  0.00  0.00    +0.270 C 
ATOM     34  O   UNL     1       2.114   4.775  -0.497  0.00  0.00    -0.485 OA
ENDBRANCH  22  25
ENDBRANCH   2  23
TORSDOF 3
