REMARK  Name = ZINC00850730
REMARK  9 active torsions:
REMARK  status: ('A' for Active; 'I' for Inactive)
REMARK    1  A    between atoms: C_1  and  C_2
REMARK    2  A    between atoms: C_2  and  C_3
REMARK    3  A    between atoms: C_2  and  C_4
REMARK    4  A    between atoms: C_4  and  N_5
REMARK    5  A    between atoms: C_6  and  N_14
REMARK    6  A    between atoms: C_8  and  C_12
REMARK    7  A    between atoms: C_8  and  C_13
REMARK    8  A    between atoms: N_14  and  O_25
REMARK    9  A    between atoms: N_17  and  C_18
REMARK                            x       y       z     vdW  Elec       q    Type
REMARK                         _______ _______ _______ _____ _____    ______ ____
ROOT
ATOM      1  N   UNL     1       3.183  -1.223  -1.334  0.00  0.00    -0.145 N 
ATOM      2  C   UNL     1       3.785  -2.329  -0.852  0.00  0.00    +0.331 C 
ATOM      3  O   UNL     1       4.294  -2.312   0.252  0.00  0.00    -0.250 OA
ATOM      4  N   UNL     1       3.822  -3.453  -1.595  0.00  0.00    -0.268 N 
ATOM      5  H   UNL     1       3.456  -3.453  -2.493  0.00  0.00    +0.156 HD
ENDROOT
BRANCH   1   7
ATOM      6  N   UNL     1       4.193   0.912  -1.210  0.00  0.00    -0.297 N 
ATOM      7  C   UNL     1       3.240   0.030  -0.577  0.00  0.00    +0.209 C 
ATOM      8  C   UNL     1       1.820   0.626  -0.496  0.00  0.00    +0.054 C 
ATOM      9  S   UNL     1       2.082   2.254  -1.298  0.00  0.00    -0.093 S 
ATOM     10  C   UNL     1       3.820   2.117  -1.663  0.00  0.00    +0.111 C 
ATOM     11  S   UNL     1       4.808   3.283  -2.435  0.00  0.00    -0.028 S 
ATOM     12  C   UNL     1       1.372   0.791   0.957  0.00  0.00    +0.026 C 
ATOM     13  C   UNL     1       0.820  -0.223  -1.285  0.00  0.00    +0.026 C 
BRANCH   6  14
ATOM     14  C   UNL     1       5.586   0.483  -1.359  0.00  0.00    +0.111 C 
BRANCH  14  16
ATOM     15  C   UNL     1       7.786   0.259  -0.196  0.00  0.00    +0.009 C 
ATOM     16  C   UNL     1       6.351   0.776  -0.067  0.00  0.00    +0.000 C 
ATOM     17  C   UNL     1       6.373   2.285   0.182  0.00  0.00    +0.009 C 
ENDBRANCH  14  16
ENDBRANCH   6  14
ENDBRANCH   1   7
BRANCH   4  18
ATOM     18  C   UNL     1       4.390  -4.620  -1.070  0.00  0.00    +0.035 A 
ATOM     19  C   UNL     1       4.294  -4.890   0.288  0.00  0.00    +0.025 A 
ATOM     20  C   UNL     1       4.850  -6.045   0.803  0.00  0.00    +0.022 A 
ATOM     21  C   UNL     1       5.513  -6.927  -0.033  0.00  0.00    +0.041 A 
ATOM     22  C   UNL     1       5.616  -6.657  -1.386  0.00  0.00    +0.022 A 
ATOM     23  C   UNL     1       5.056  -5.506  -1.907  0.00  0.00    +0.025 A 
ATOM     24 CL   UNL     1       6.217  -8.374   0.618  0.00  0.00    -0.084 Cl
ENDBRANCH   4  18
BRANCH   1  25
ATOM     25  O   UNL     1       2.496  -1.272  -2.571  0.00  0.00    -0.290 OA
ATOM     26  H   UNL     1       2.445  -2.157  -2.957  0.00  0.00    +0.242 HD
ENDBRANCH   1  25
TORSDOF 5
