REMARK  Name = ZINC15822201
REMARK  7 active torsions:
REMARK  status: ('A' for Active; 'I' for Inactive)
REMARK    1  A    between atoms: C_1  and  C_2
REMARK    2  A    between atoms: C_7  and  C_8
REMARK    3  A    between atoms: C_8  and  N_57
REMARK    4  A    between atoms: C_11  and  C_14
REMARK    5  A    between atoms: C_14  and  N_15
REMARK    6  A    between atoms: N_15  and  S_16
REMARK    7  A    between atoms: S_16  and  C_19
REMARK                            x       y       z     vdW  Elec       q    Type
REMARK                         _______ _______ _______ _____ _____    ______ ____
ROOT
ATOM      1  N   UNL     1      -3.445   3.931  -1.697  0.00  0.00    -0.190 NA
ATOM      2  H   UNL     1      -3.638   4.592  -2.380  0.00  0.00    +0.148 HD
ENDROOT
BRANCH   1   3
ATOM      3  S   UNL     1      -2.636   4.374  -0.322  0.00  0.00    +0.060 S 
ATOM      4  O   UNL     1      -3.378   3.851   0.772  0.00  0.00    -0.153 OA
ATOM      5  O   UNL     1      -2.343   5.758  -0.451  0.00  0.00    -0.153 OA
BRANCH   3   6
ATOM      6  C   UNL     1      -1.090   3.528  -0.332  0.00  0.00    +0.127 A 
ATOM      7  C   UNL     1       0.088   4.247  -0.428  0.00  0.00    +0.077 A 
ATOM      8  C   UNL     1       1.302   3.584  -0.435  0.00  0.00    +0.144 A 
ATOM      9  C   UNL     1       1.334   2.192  -0.346  0.00  0.00    +0.077 A 
ATOM     10  C   UNL     1       0.152   1.478  -0.250  0.00  0.00    +0.049 A 
ATOM     11  C   UNL     1      -1.059   2.148  -0.249  0.00  0.00    +0.069 A 
ATOM     12 CL   UNL     1      -2.543   1.254  -0.136  0.00  0.00    -0.081 Cl
ATOM     13  N   UNL     1       2.571   1.533  -0.357  0.00  0.00    -0.280 N 
ATOM     14  C   UNL     1       3.696   2.248  -0.136  0.00  0.00    +0.255 C 
ATOM     15  O   UNL     1       4.779   1.704  -0.170  0.00  0.00    -0.272 OA
ATOM     16  C   UNL     1       3.599   3.724   0.155  0.00  0.00    +0.325 C 
ATOM     17  O   UNL     1       2.470   4.275  -0.528  0.00  0.00    -0.481 OA
ATOM     18  H   UNL     1       2.619   0.578  -0.521  0.00  0.00    +0.155 HD
ENDBRANCH   3   6
ENDBRANCH   1   3
BRANCH   1  19
ATOM     19  C   UNL     1      -3.870   2.541  -1.882  0.00  0.00    +0.109 C 
BRANCH  19  22
ATOM     20  C   UNL     1      -6.318   0.939  -4.383  0.00  0.00    -0.078 C 
ATOM     21  C   UNL     1      -5.247   1.003  -3.292  0.00  0.00    -0.014 C 
ATOM     22  C   UNL     1      -4.896   2.467  -3.014  0.00  0.00    +0.001 C 
ATOM     23  C   UNL     1      -6.165   3.219  -2.604  0.00  0.00    -0.014 C 
ATOM     24  C   UNL     1      -7.210   3.091  -3.716  0.00  0.00    -0.078 C 
ATOM     25  N   UNL     1      -7.521   1.660  -3.917  0.00  0.00    +0.382 N 
ATOM     26  H   UNL     1      -7.827   1.256  -3.024  0.00  0.00    -0.081 HD
BRANCH  25  27
ATOM     27  C   UNL     1      -8.610   1.515  -4.906  0.00  0.00    -0.043 C 
BRANCH  27  34
ATOM     28  C   UNL     1     -10.220   0.679  -2.657  0.00  0.00    +0.044 C 
ATOM     29  C   UNL     1     -10.555   1.951  -3.392  0.00  0.00    -0.049 A 
ATOM     30  C   UNL     1     -11.633   2.719  -2.989  0.00  0.00    +0.003 A 
ATOM     31  C   UNL     1     -11.940   3.886  -3.663  0.00  0.00    +0.000 A 
ATOM     32  C   UNL     1     -11.169   4.286  -4.739  0.00  0.00    +0.000 A 
ATOM     33  C   UNL     1     -10.089   3.522  -5.138  0.00  0.00    +0.002 A 
ATOM     34  C   UNL     1      -9.785   2.351  -4.467  0.00  0.00    -0.061 A 
ENDBRANCH  27  34
ENDBRANCH  25  27
ENDBRANCH  19  22
ENDBRANCH   1  19
TORSDOF 6
