REMARK  Name = ZINC16676575
REMARK  6 active torsions:
REMARK  status: ('A' for Active; 'I' for Inactive)
REMARK    1  A    between atoms: C_1  and  C_2
REMARK    2  A    between atoms: C_2  and  C_27
REMARK    3  A    between atoms: N_7  and  C_10
REMARK    4  A    between atoms: C_13  and  S_16
REMARK    5  A    between atoms: S_16  and  N_19
REMARK    6  A    between atoms: N_19  and  C_20
REMARK                            x       y       z     vdW  Elec       q    Type
REMARK                         _______ _______ _______ _____ _____    ______ ____
ROOT
ATOM      1  C   UNL     1       0.384  -3.021   3.552  0.00  0.00    +0.059 A 
ATOM      2  C   UNL     1       0.240  -1.889   4.343  0.00  0.00    +0.027 A 
ATOM      3  C   UNL     1      -0.433  -0.787   3.853  0.00  0.00    +0.030 A 
ATOM      4  C   UNL     1      -0.965  -0.811   2.577  0.00  0.00    +0.105 A 
ATOM      5  C   UNL     1      -0.828  -1.939   1.789  0.00  0.00    +0.030 A 
ATOM      6  C   UNL     1      -0.151  -3.042   2.271  0.00  0.00    +0.027 A 
ENDROOT
BRANCH   1  13
ATOM      7  C   UNL     1       2.866  -5.485   6.877  0.00  0.00    +0.022 C 
ATOM      8  C   UNL     1       1.948  -5.728   5.677  0.00  0.00    +0.064 C 
ATOM      9  C   UNL     1       2.796  -6.154   4.449  0.00  0.00    +0.205 C 
ATOM     10  S   UNL     1       1.831  -5.311   3.127  0.00  0.00    +0.053 S 
ATOM     11  O   UNL     1       0.796  -6.152   2.636  0.00  0.00    -0.155 OA
ATOM     12  O   UNL     1       2.692  -4.606   2.244  0.00  0.00    -0.155 OA
ATOM     13  N   UNL     1       1.065  -4.139   4.046  0.00  0.00    -0.143 N 
ATOM     14  C   UNL     1       1.216  -4.465   5.338  0.00  0.00    +0.246 C 
ATOM     15  O   UNL     1       0.770  -3.753   6.213  0.00  0.00    -0.273 OA
ATOM     16  C   UNL     1       0.943  -6.830   6.016  0.00  0.00    +0.022 C 
ENDBRANCH   1  13
BRANCH   4  17
ATOM     17  S   UNL     1      -1.824   0.596   1.956  0.00  0.00    +0.059 S 
ATOM     18  O   UNL     1      -2.292   1.318   3.087  0.00  0.00    -0.153 OA
ATOM     19  O   UNL     1      -2.697   0.123   0.940  0.00  0.00    -0.153 OA
BRANCH  17  20
ATOM     20  N   UNL     1      -0.706   1.562   1.208  0.00  0.00    -0.187 NA
ATOM     21  H   UNL     1      -0.510   2.443   1.563  0.00  0.00    +0.148 HD
BRANCH  20  22
ATOM     22  C   UNL     1      -0.013   1.086   0.008  0.00  0.00    +0.077 C 
ATOM     23  C   UNL     1      -0.719   1.589  -1.222  0.00  0.00    +0.020 C 
ATOM     24  C   UNL     1      -0.658   0.584  -2.389  0.00  0.00    +0.002 C 
ATOM     25  C   UNL     1       0.725  -0.078  -2.535  0.00  0.00    +0.000 C 
ATOM     26  C   UNL     1       1.854   0.899  -2.349  0.00  0.00    +0.000 C 
ATOM     27  C   UNL     1       2.305   0.852  -0.875  0.00  0.00    +0.002 C 
ATOM     28  C   UNL     1       1.433   1.624  -0.003  0.00  0.00    +0.020 C 
ENDBRANCH  20  22
ENDBRANCH  17  20
ENDBRANCH   4  17
TORSDOF 4
