REMARK  Name = ZINC64353844
REMARK  7 active torsions:
REMARK  status: ('A' for Active; 'I' for Inactive)
REMARK    1  A    between atoms: C_1  and  C_2
REMARK    2  A    between atoms: C_5  and  C_8
REMARK    3  A    between atoms: C_14  and  C_15
REMARK    4  A    between atoms: N_17  and  C_18
REMARK    5  A    between atoms: C_18  and  C_19
REMARK    6  A    between atoms: C_19  and  C_21
REMARK    7  A    between atoms: C_19  and  C_27
REMARK                            x       y       z     vdW  Elec       q    Type
REMARK                         _______ _______ _______ _____ _____    ______ ____
ROOT
ATOM      1  C   UNL     1      -0.235   5.365  -0.731  0.00  0.00    +0.238 C 
ATOM      2  O   UNL     1      -1.258   5.776  -1.248  0.00  0.00    -0.271 OA
ATOM      3  N   UNL     1       0.651   6.236  -0.208  0.00  0.00    -0.311 N 
ATOM      4  H   UNL     1       1.466   5.909   0.204  0.00  0.00    +0.149 HD
ENDROOT
BRANCH   1  11
ATOM      5  C   UNL     1      -0.013   1.086   0.008  0.00  0.00    +0.044 C 
ATOM      6  C   UNL     1      -0.753   1.593  -1.232  0.00  0.00    +0.162 C 
ATOM      7  C   UNL     1      -0.866   3.105  -1.200  0.00  0.00    +0.040 C 
ATOM      8  N   UNL     1      -2.056   3.405  -1.813  0.00  0.00    -0.317 N 
ATOM      9  C   UNL     1      -2.876   2.187  -1.839  0.00  0.00    +0.236 C 
ATOM     10  O   UNL     1      -2.118   1.134  -1.226  0.00  0.00    -0.346 OA
ATOM     11  C   UNL     1       0.022   3.976  -0.677  0.00  0.00    +0.088 C 
ATOM     12  H   UNL     1      -2.312   4.271  -2.168  0.00  0.00    +0.149 HD
BRANCH   9  13
ATOM     13  C   UNL     1      -4.151   2.414  -1.070  0.00  0.00    -0.001 A 
ATOM     14  C   UNL     1      -4.171   3.302  -0.010  0.00  0.00    +0.008 A 
ATOM     15  C   UNL     1      -5.341   3.510   0.696  0.00  0.00    +0.000 A 
ATOM     16  C   UNL     1      -6.492   2.831   0.342  0.00  0.00    +0.000 A 
ATOM     17  C   UNL     1      -6.473   1.944  -0.719  0.00  0.00    +0.000 A 
ATOM     18  C   UNL     1      -5.303   1.739  -1.427  0.00  0.00    +0.008 A 
ENDBRANCH   9  13
ENDBRANCH   1  11
BRANCH   3  19
ATOM     19  C   UNL     1       0.385   7.675  -0.263  0.00  0.00    +0.117 C 
BRANCH  19  20
ATOM     20  C   UNL     1       1.539   8.433   0.395  0.00  0.00    +0.064 C 
BRANCH  20  21
ATOM     21  C   UNL     1       1.325   9.916   0.230  0.00  0.00    -0.033 C 
ATOM     22  C   UNL     1       2.141  10.790  -0.403  0.00  0.00    -0.000 A 
ATOM     23  C   UNL     1       3.422  10.628  -1.100  0.00  0.00    +0.010 A 
ATOM     24  C   UNL     1       4.014  11.714  -1.647  0.00  0.00    +0.001 A 
ATOM     25  C   UNL     1       3.435  12.988  -1.563  0.00  0.00    +0.002 A 
ATOM     26  C   UNL     1       2.260  13.216  -0.940  0.00  0.00    +0.026 A 
ATOM     27  C   UNL     1       1.550  12.145  -0.330  0.00  0.00    +0.043 A 
ATOM     28  N   UNL     1       0.414  12.111   0.324  0.00  0.00    -0.380 N 
ATOM     29  C   UNL     1       0.152  10.727   0.734  0.00  0.00    +0.145 C 
ATOM     30  H   UNL     1      -0.159  12.872   0.502  0.00  0.00    +0.160 HD
ENDBRANCH  20  21
BRANCH  20  31
ATOM     31  C   UNL     1       1.592   8.093   1.862  0.00  0.00    -0.039 A 
ATOM     32  C   UNL     1       0.505   8.361   2.673  0.00  0.00    +0.004 A 
ATOM     33  C   UNL     1       0.554   8.049   4.019  0.00  0.00    +0.000 A 
ATOM     34  C   UNL     1       1.689   7.469   4.554  0.00  0.00    +0.000 A 
ATOM     35  C   UNL     1       2.775   7.200   3.742  0.00  0.00    +0.000 A 
ATOM     36  C   UNL     1       2.725   7.508   2.396  0.00  0.00    +0.004 A 
ENDBRANCH  20  31
ENDBRANCH  19  20
ENDBRANCH   3  19
TORSDOF 6
