REMARK  Name = ZINC09292305
REMARK  7 active torsions:
REMARK  status: ('A' for Active; 'I' for Inactive)
REMARK    1  A    between atoms: C_4  and  C_7
REMARK    2  A    between atoms: C_7  and  O_8
REMARK    3  A    between atoms: O_8  and  C_9
REMARK    4  A    between atoms: C_12  and  C_15
REMARK    5  A    between atoms: C_22  and  N_36
REMARK    6  A    between atoms: C_23  and  C_34
REMARK    7  A    between atoms: C_24  and  C_26
REMARK                            x       y       z     vdW  Elec       q    Type
REMARK                         _______ _______ _______ _____ _____    ______ ____
ROOT
ATOM      1  C   UNL     1       8.983  -3.663   1.970  0.00  0.00    +0.074 A 
ATOM      2  C   UNL     1       9.257  -4.620   2.889  0.00  0.00    +0.054 A 
ATOM      3  C   UNL     1      10.592  -5.031   2.708  0.00  0.00    +0.245 A 
ATOM      4  N   UNL     1      11.100  -4.348   1.721  0.00  0.00    -0.135 NA
ATOM      5  N   UNL     1      10.114  -3.481   1.226  0.00  0.00    -0.273 N 
ATOM      6  H   UNL     1      10.219  -2.860   0.488  0.00  0.00    +0.189 HD
ATOM      7  O   UNL     1      11.162  -5.990   3.486  0.00  0.00    -0.421 OA
ATOM      8  C   UNL     1      10.344  -6.733   4.257  0.00  0.00    +0.201 C 
ATOM      9  C   UNL     1       9.053  -6.433   4.512  0.00  0.00    +0.098 C 
ATOM     10  C   UNL     1       8.370  -5.209   3.956  0.00  0.00    +0.104 C 
ENDROOT
BRANCH  10  11
ATOM     11  C   UNL     1       8.158  -4.200   5.055  0.00  0.00    +0.002 A 
ATOM     12  C   UNL     1       9.246  -3.634   5.694  0.00  0.00    +0.046 A 
ATOM     13  C   UNL     1       9.051  -2.708   6.703  0.00  0.00    +0.020 A 
ATOM     14  C   UNL     1       7.769  -2.350   7.074  0.00  0.00    +0.003 A 
ATOM     15  C   UNL     1       6.681  -2.916   6.437  0.00  0.00    +0.020 A 
ATOM     16  C   UNL     1       6.875  -3.837   5.423  0.00  0.00    +0.046 A 
ATOM     17 CL   UNL     1       5.508  -4.541   4.617  0.00  0.00    -0.083 Cl
ATOM     18 CL   UNL     1      10.857  -4.085   5.228  0.00  0.00    -0.083 Cl
ENDBRANCH  10  11
BRANCH   1  22
ATOM     19  C   UNL     1       5.287  -1.623   1.477  0.00  0.00    +0.121 A 
ATOM     20  C   UNL     1       6.474  -0.905   1.518  0.00  0.00    +0.046 A 
ATOM     21  C   UNL     1       7.675  -1.563   1.677  0.00  0.00    +0.013 A 
ATOM     22  C   UNL     1       7.696  -2.953   1.799  0.00  0.00    +0.000 A 
ATOM     23  C   UNL     1       6.501  -3.672   1.758  0.00  0.00    +0.013 A 
ATOM     24  C   UNL     1       5.303  -3.006   1.602  0.00  0.00    +0.046 A 
BRANCH  19  25
ATOM     25  O   UNL     1       4.105  -0.971   1.319  0.00  0.00    -0.487 OA
BRANCH  25  26
ATOM     26  C   UNL     1       4.161   0.451   1.196  0.00  0.00    +0.264 C 
BRANCH  26  30
ATOM     27  C   UNL     1       0.206   1.998   0.726  0.00  0.00    +0.000 A 
ATOM     28  C   UNL     1       0.746   1.853   1.990  0.00  0.00    +0.000 A 
ATOM     29  C   UNL     1       2.026   1.353   2.143  0.00  0.00    +0.007 A 
ATOM     30  C   UNL     1       2.765   0.996   1.030  0.00  0.00    -0.010 A 
ATOM     31  C   UNL     1       2.225   1.140  -0.234  0.00  0.00    +0.007 A 
ATOM     32  C   UNL     1       0.946   1.642  -0.386  0.00  0.00    +0.000 A 
ENDBRANCH  26  30
ENDBRANCH  25  26
ENDBRANCH  19  25
ENDBRANCH   1  22
BRANCH   8  33
ATOM     33  N   UNL     1      10.858  -7.872   4.823  0.00  0.00    -0.328 N 
ATOM     34  H   UNL     1      11.783  -8.119   4.662  0.00  0.00    +0.145 HD
ATOM     35  H   UNL     1      10.298  -8.431   5.384  0.00  0.00    +0.145 HD
ENDBRANCH   8  33
BRANCH   9  36
ATOM     36  C   UNL     1       8.298  -7.317   5.348  0.00  0.00    +0.101 C 
ATOM     37  N   UNL     1       7.699  -8.018   6.011  0.00  0.00    -0.191 NA
ENDBRANCH   9  36
TORSDOF 7
