REMARK  Name = ZINC34785122
REMARK  8 active torsions:
REMARK  status: ('A' for Active; 'I' for Inactive)
REMARK    1  A    between atoms: C_1  and  C_2
REMARK    2  A    between atoms: C_5  and  C_9
REMARK    3  A    between atoms: C_6  and  C_8
REMARK    4  A    between atoms: C_9  and  N_10
REMARK    5  A    between atoms: N_18  and  C_19
REMARK    6  A    between atoms: C_20  and  C_30
REMARK    7  A    between atoms: C_26  and  C_28
REMARK    8  A    between atoms: C_26  and  C_29
REMARK                            x       y       z     vdW  Elec       q    Type
REMARK                         _______ _______ _______ _____ _____    ______ ____
ROOT
ATOM      1  N   UNL     1      -1.293  -4.785   0.216  0.00  0.00    -0.295 NA
ATOM      2  C   UNL     1      -2.198  -4.434  -0.887  0.00  0.00    +0.104 C 
ATOM      3  C   UNL     1      -3.632  -4.819  -0.510  0.00  0.00    +0.124 C 
ATOM      4  N   UNL     1      -3.647  -6.238  -0.121  0.00  0.00    -0.283 N 
ATOM      5  C   UNL     1      -2.674  -6.695   0.882  0.00  0.00    +0.124 C 
ATOM      6  C   UNL     1      -1.278  -6.236   0.450  0.00  0.00    +0.104 C 
ATOM      7  C   UNL     1      -4.531  -7.096  -0.669  0.00  0.00    +0.307 C 
ATOM      8  O   UNL     1      -5.387  -6.685  -1.428  0.00  0.00    -0.252 OA
ATOM      9  N   UNL     1      -4.465  -8.410  -0.376  0.00  0.00    -0.263 N 
ATOM     10  H   UNL     1      -3.830  -8.728   0.286  0.00  0.00    +0.157 HD
ENDROOT
BRANCH   9  11
ATOM     11  C   UNL     1      -5.303  -9.307  -1.020  0.00  0.00    +0.086 A 
ATOM     12  C   UNL     1      -5.378 -10.681  -0.844  0.00  0.00    +0.069 A 
ATOM     13  C   UNL     1      -6.349 -11.398  -1.647  0.00  0.00    -0.018 A 
ATOM     14  C   UNL     1      -7.068 -10.612  -2.482  0.00  0.00    +0.021 A 
ATOM     15  S   UNL     1      -6.465  -8.978  -2.188  0.00  0.00    -0.075 S 
ATOM     16  C   UNL     1      -8.133 -11.077  -3.425  0.00  0.00    +0.203 C 
ATOM     17  O   UNL     1      -8.035 -12.506  -3.528  0.00  0.00    -0.368 OA
ATOM     18  C   UNL     1      -7.955 -13.170  -2.264  0.00  0.00    +0.068 C 
ATOM     19  C   UNL     1      -6.596 -12.899  -1.610  0.00  0.00    +0.071 C 
ATOM     20  C   UNL     1      -8.127 -14.676  -2.470  0.00  0.00    +0.041 C 
ATOM     21  C   UNL     1      -9.069 -12.656  -1.350  0.00  0.00    +0.041 C 
BRANCH  12  22
ATOM     22  C   UNL     1      -4.513 -11.378   0.113  0.00  0.00    +0.244 C 
ATOM     23  O   UNL     1      -4.879 -11.531   1.264  0.00  0.00    -0.270 OA
ATOM     24  N   UNL     1      -3.314 -11.849  -0.282  0.00  0.00    -0.325 N 
ATOM     25  H   UNL     1      -3.023 -11.727  -1.199  0.00  0.00    +0.145 HD
ATOM     26  H   UNL     1      -2.742 -12.310   0.351  0.00  0.00    +0.145 HD
ENDBRANCH  12  22
ENDBRANCH   9  11
BRANCH   1  27
ATOM     27  C   UNL     1       0.062  -4.278  -0.033  0.00  0.00    +0.120 C 
BRANCH  27  32
ATOM     28  C   UNL     1      -0.012   1.500  -0.002  0.00  0.00    +0.044 C 
ATOM     29  C   UNL     1       0.007  -0.006  -0.010  0.00  0.00    -0.050 A 
ATOM     30  C   UNL     1       0.008  -0.691  -1.211  0.00  0.00    +0.004 A 
ATOM     31  C   UNL     1       0.026  -2.073  -1.218  0.00  0.00    +0.005 A 
ATOM     32  C   UNL     1       0.044  -2.771  -0.025  0.00  0.00    -0.030 A 
ATOM     33  C   UNL     1       0.044  -2.086   1.176  0.00  0.00    -0.046 A 
ATOM     34  C   UNL     1       0.031  -0.704   1.183  0.00  0.00    +0.007 A 
ATOM     35  C   UNL     1       0.064  -2.847   2.477  0.00  0.00    +0.044 C 
ENDBRANCH  27  32
ENDBRANCH   1  27
TORSDOF 4
