REMARK  Name = ZINC20984144
REMARK  8 active torsions:
REMARK  status: ('A' for Active; 'I' for Inactive)
REMARK    1  A    between atoms: C_1  and  C_2
REMARK    2  A    between atoms: C_2  and  O_3
REMARK    3  A    between atoms: O_3  and  C_4
REMARK    4  A    between atoms: C_7  and  C_9
REMARK    5  A    between atoms: C_9  and  S_10
REMARK    6  A    between atoms: S_10  and  C_11
REMARK    7  A    between atoms: C_19  and  C_23
REMARK    8  A    between atoms: N_26  and  C_27
REMARK                            x       y       z     vdW  Elec       q    Type
REMARK                         _______ _______ _______ _____ _____    ______ ____
ROOT
ATOM      1  C   UNL     1       0.608   1.495   2.945  0.00  0.00    +0.178 A 
ATOM      2  N   UNL     1       1.662   0.788   2.591  0.00  0.00    -0.215 NA
ATOM      3  C   UNL     1       2.051  -0.258   3.308  0.00  0.00    +0.117 A 
ATOM      4  C   UNL     1       1.365  -0.672   4.462  0.00  0.00    +0.076 A 
ATOM      5  C   UNL     1       1.910  -1.847   5.144  0.00  0.00    -0.023 A 
ATOM      6  C   UNL     1       3.008  -2.413   4.603  0.00  0.00    -0.004 A 
ATOM      7  S   UNL     1       3.378  -1.431   3.175  0.00  0.00    -0.073 S 
ATOM      8  C   UNL     1       3.752  -3.614   5.105  0.00  0.00    +0.046 C 
ATOM      9  C   UNL     1       2.864  -4.341   6.126  0.00  0.00    -0.009 C 
ATOM     10  C   UNL     1       2.307  -3.311   7.112  0.00  0.00    +0.008 C 
ATOM     11  C   UNL     1       1.281  -2.421   6.410  0.00  0.00    +0.037 C 
ATOM     12  C   UNL     1       3.697  -5.378   6.882  0.00  0.00    +0.008 C 
ATOM     13  C   UNL     1       0.222   0.110   4.822  0.00  0.00    +0.268 A 
ATOM     14  O   UNL     1      -0.436  -0.174   5.808  0.00  0.00    -0.267 OA
ATOM     15  N   UNL     1      -0.118   1.163   4.055  0.00  0.00    -0.255 N 
ENDROOT
BRANCH  15  16
ATOM     16  C   UNL     1      -1.236   1.933   4.402  0.00  0.00    +0.052 A 
ATOM     17  C   UNL     1      -1.093   3.026   5.245  0.00  0.00    +0.028 A 
ATOM     18  C   UNL     1      -2.196   3.787   5.581  0.00  0.00    +0.022 A 
ATOM     19  C   UNL     1      -3.444   3.454   5.086  0.00  0.00    +0.041 A 
ATOM     20  C   UNL     1      -3.591   2.362   4.249  0.00  0.00    +0.022 A 
ATOM     21  C   UNL     1      -2.490   1.601   3.906  0.00  0.00    +0.028 A 
ATOM     22 CL   UNL     1      -4.830   4.408   5.516  0.00  0.00    -0.084 Cl
ENDBRANCH  15  16
BRANCH   1  23
ATOM     23  S   UNL     1       0.122   2.882   1.972  0.00  0.00    -0.078 S 
BRANCH  23  24
ATOM     24  C   UNL     1       1.402   2.831   0.693  0.00  0.00    +0.173 C 
BRANCH  24  28
ATOM     25  C   UNL     1       1.824   5.130  -2.196  0.00  0.00    +0.407 C 
ATOM     26  O   UNL     1       0.893   5.895  -2.041  0.00  0.00    -0.226 OA
ATOM     27  N   UNL     1       2.020   4.121  -1.325  0.00  0.00    -0.221 N 
ATOM     28  C   UNL     1       1.183   3.960  -0.281  0.00  0.00    +0.232 C 
ATOM     29  O   UNL     1       0.254   4.723  -0.126  0.00  0.00    -0.274 OA
ATOM     30  H   UNL     1       2.864   3.429  -1.466  0.00  0.00    +0.161 HD
BRANCH  25  31
ATOM     31  O   UNL     1       2.660   5.291  -3.239  0.00  0.00    -0.450 OA
BRANCH  31  33
ATOM     32  C   UNL     1       3.437   6.421  -5.252  0.00  0.00    +0.048 C 
ATOM     33  C   UNL     1       2.389   6.399  -4.137  0.00  0.00    +0.230 C 
ENDBRANCH  31  33
ENDBRANCH  25  31
ENDBRANCH  24  28
ENDBRANCH  23  24
ENDBRANCH   1  23
TORSDOF 6
