REMARK  Name = ZINC05939411
REMARK  9 active torsions:
REMARK  status: ('A' for Active; 'I' for Inactive)
REMARK    1  A    between atoms: C_1  and  C_2
REMARK    2  A    between atoms: C_2  and  C_3
REMARK    3  A    between atoms: C_3  and  C_4
REMARK    4  A    between atoms: C_11  and  N_27
REMARK    5  A    between atoms: C_12  and  C_25
REMARK    6  A    between atoms: C_13  and  C_15
REMARK    7  A    between atoms: C_17  and  O_23
REMARK    8  A    between atoms: C_18  and  O_22
REMARK    9  A    between atoms: O_23  and  C_24
REMARK                            x       y       z     vdW  Elec       q    Type
REMARK                         _______ _______ _______ _____ _____    ______ ____
ROOT
ATOM      1  C   UNL     1      -2.870   1.536   2.518  0.00  0.00    +0.071 A 
ATOM      2  C   UNL     1      -3.593   2.715   2.635  0.00  0.00    +0.049 A 
ATOM      3  C   UNL     1      -4.076   2.791   3.911  0.00  0.00    +0.222 A 
ATOM      4  N   UNL     1      -3.663   1.694   4.567  0.00  0.00    -0.246 N 
ATOM      5  H   UNL     1      -3.857   1.472   5.523  0.00  0.00    +0.192 HD
ATOM      6  N   UNL     1      -2.912   0.916   3.673  0.00  0.00    -0.176 NA
ATOM      7  O   UNL     1      -4.830   3.829   4.348  0.00  0.00    -0.423 OA
ATOM      8  C   UNL     1      -5.335   4.668   3.421  0.00  0.00    +0.200 C 
ATOM      9  C   UNL     1      -4.930   4.696   2.132  0.00  0.00    +0.098 C 
ATOM     10  C   UNL     1      -3.855   3.780   1.601  0.00  0.00    +0.101 C 
ENDROOT
BRANCH  10  11
ATOM     11  C   UNL     1      -2.595   4.567   1.351  0.00  0.00    -0.030 A 
ATOM     12  C   UNL     1      -2.040   4.596   0.085  0.00  0.00    +0.054 A 
ATOM     13  C   UNL     1      -0.884   5.324  -0.148  0.00  0.00    +0.163 A 
ATOM     14  C   UNL     1      -0.277   6.015   0.897  0.00  0.00    +0.173 A 
ATOM     15  C   UNL     1      -0.836   5.977   2.165  0.00  0.00    +0.063 A 
ATOM     16  C   UNL     1      -1.993   5.253   2.389  0.00  0.00    +0.023 A 
ATOM     17 BR   UNL     1      -0.016   6.915   3.587  0.00  0.00    -0.046 Br
BRANCH  14  18
ATOM     18  O   UNL     1       0.860   6.726   0.674  0.00  0.00    -0.503 OA
ATOM     19  H   UNL     1       1.673   6.218   0.801  0.00  0.00    +0.292 HD
ENDBRANCH  14  18
BRANCH  13  20
ATOM     20  O   UNL     1      -0.340   5.358  -1.394  0.00  0.00    -0.491 OA
ATOM     21  C   UNL     1      -1.017   4.625  -2.417  0.00  0.00    +0.277 C 
ENDBRANCH  13  20
ENDBRANCH  10  11
BRANCH   8  22
ATOM     22  N   UNL     1      -6.318   5.545   3.809  0.00  0.00    -0.328 N 
ATOM     23  H   UNL     1      -6.629   5.549   4.727  0.00  0.00    +0.145 HD
ATOM     24  H   UNL     1      -6.700   6.160   3.164  0.00  0.00    +0.145 HD
ENDBRANCH   8  22
BRANCH   9  25
ATOM     25  C   UNL     1      -5.544   5.630   1.236  0.00  0.00    +0.101 C 
ATOM     26  N   UNL     1      -6.031   6.370   0.526  0.00  0.00    -0.191 NA
ENDBRANCH   9  25
BRANCH   1  27
ATOM     27  C   UNL     1      -2.164   1.050   1.278  0.00  0.00    +0.057 C 
BRANCH  27  29
ATOM     28  C   UNL     1      -0.013   1.086   0.008  0.00  0.00    +0.004 C 
ATOM     29  C   UNL     1      -0.729   1.579   1.267  0.00  0.00    +0.003 C 
ENDBRANCH  27  29
ENDBRANCH   1  27
TORSDOF 7
