REMARK  Name = ZINC09964073
REMARK  9 active torsions:
REMARK  status: ('A' for Active; 'I' for Inactive)
REMARK    1  A    between atoms: C_1  and  C_2
REMARK    2  A    between atoms: C_5  and  C_8
REMARK    3  A    between atoms: C_11  and  S_14
REMARK    4  A    between atoms: N_12  and  C_13
REMARK    5  A    between atoms: S_14  and  C_15
REMARK    6  A    between atoms: C_15  and  C_17
REMARK    7  A    between atoms: C_15  and  C_18
REMARK    8  A    between atoms: C_22  and  C_29
REMARK    9  A    between atoms: C_25  and  C_28
REMARK                            x       y       z     vdW  Elec       q    Type
REMARK                         _______ _______ _______ _____ _____    ______ ____
ROOT
ATOM      1  C   UNL     1      -0.108  -4.952   0.280  0.00  0.00    +0.165 A 
ATOM      2  N   UNL     1      -0.304  -5.624  -0.831  0.00  0.00    -0.128 NA
ATOM      3  N   UNL     1      -0.109  -6.877  -0.626  0.00  0.00    -0.122 NA
ATOM      4  C   UNL     1       0.224  -7.083   0.628  0.00  0.00    +0.192 A 
ATOM      5  N   UNL     1       0.241  -5.866   1.247  0.00  0.00    -0.305 N 
ATOM      6  C   UNL     1       0.562  -5.590   2.650  0.00  0.00    +0.153 C 
ENDROOT
BRANCH   1  11
ATOM      7  C   UNL     1      -0.597   0.740   0.966  0.00  0.00    +0.044 C 
ATOM      8  C   UNL     1      -0.468  -0.750   0.786  0.00  0.00    -0.050 A 
ATOM      9  C   UNL     1      -0.298  -1.279  -0.481  0.00  0.00    +0.004 A 
ATOM     10  C   UNL     1      -0.180  -2.643  -0.652  0.00  0.00    +0.012 A 
ATOM     11  C   UNL     1      -0.233  -3.490   0.456  0.00  0.00    +0.019 A 
ATOM     12  C   UNL     1      -0.405  -2.950   1.732  0.00  0.00    +0.012 A 
ATOM     13  C   UNL     1      -0.516  -1.584   1.890  0.00  0.00    +0.004 A 
ENDBRANCH   1  11
BRANCH   4  14
ATOM     14  S   UNL     1       0.586  -8.639   1.372  0.00  0.00    -0.074 S 
BRANCH  14  15
ATOM     15  C   UNL     1       0.391  -9.829   0.017  0.00  0.00    +0.137 C 
ATOM     16  C   UNL     1      -1.072  -9.854  -0.432  0.00  0.00    +0.029 C 
BRANCH  15  17
ATOM     17  C   UNL     1       0.794 -11.201   0.492  0.00  0.00    +0.229 C 
ATOM     18  O   UNL     1       0.737 -11.476   1.672  0.00  0.00    -0.274 OA
ATOM     19  N   UNL     1       1.218 -12.123  -0.395  0.00  0.00    -0.300 N 
ATOM     20  C   UNL     1       1.708 -13.431   0.061  0.00  0.00    +0.111 C 
ATOM     21  C   UNL     1       0.935 -14.531  -0.672  0.00  0.00    +0.004 C 
ATOM     22  C   UNL     1       1.048 -14.309  -2.182  0.00  0.00    +0.009 C 
ATOM     23  C   UNL     1       0.430 -12.958  -2.549  0.00  0.00    +0.004 C 
ATOM     24  C   UNL     1       1.193 -11.842  -1.837  0.00  0.00    +0.111 C 
ATOM     25  C   UNL     1       0.514 -12.752  -4.062  0.00  0.00    +0.009 C 
ATOM     26  C   UNL     1       1.522 -15.897  -0.310  0.00  0.00    +0.009 C 
ENDBRANCH  15  17
ENDBRANCH  14  15
ENDBRANCH   4  14
TORSDOF 4
