REMARK  Name = ZINC66875152
REMARK  6 active torsions:
REMARK  status: ('A' for Active; 'I' for Inactive)
REMARK    1  A    between atoms: C_5  and  N_8
REMARK    2  A    between atoms: C_9  and  C_11
REMARK    3  A    between atoms: C_11  and  N_12
REMARK    4  A    between atoms: C_15  and  N_18
REMARK    5  A    between atoms: C_19  and  C_21
REMARK    6  A    between atoms: C_21  and  C_22
REMARK                            x       y       z     vdW  Elec       q    Type
REMARK                         _______ _______ _______ _____ _____    ______ ____
ROOT
ATOM      1  N   UNL     1       3.686  -4.310  -3.245  0.00  0.00    +0.385 N 
ATOM      2  C   UNL     1       4.947  -3.888  -2.624  0.00  0.00    -0.076 C 
ATOM      3  C   UNL     1       5.620  -5.092  -1.961  0.00  0.00    +0.003 C 
ATOM      4  C   UNL     1       5.904  -6.159  -3.022  0.00  0.00    +0.069 C 
ATOM      5  C   UNL     1       4.592  -6.537  -3.715  0.00  0.00    +0.003 C 
ATOM      6  C   UNL     1       3.957  -5.280  -4.313  0.00  0.00    -0.076 C 
ATOM      7  H   UNL     1       3.095  -4.736  -2.547  0.00  0.00    -0.081 HD
ENDROOT
BRANCH   4   8
ATOM      8  N   UNL     1       6.480  -7.345  -2.382  0.00  0.00    -0.313 N 
ATOM      9  C   UNL     1       7.258  -8.184  -3.094  0.00  0.00    +0.213 C 
ATOM     10  O   UNL     1       7.482  -7.957  -4.264  0.00  0.00    -0.276 OA
ATOM     11  H   UNL     1       6.301  -7.526  -1.446  0.00  0.00    +0.149 HD
BRANCH   9  12
ATOM     12  C   UNL     1       7.851  -9.403  -2.436  0.00  0.00    +0.099 C 
BRANCH  12  13
ATOM     13  C   UNL     1       8.685 -10.179  -3.457  0.00  0.00    -0.002 C 
ATOM     14  C   UNL     1       7.767 -10.788  -4.537  0.00  0.00    +0.004 C 
ATOM     15  C   UNL     1       8.409 -12.163  -4.849  0.00  0.00    +0.000 C 
ATOM     16  C   UNL     1       8.887 -12.641  -3.455  0.00  0.00    +0.000 C 
ATOM     17  C   UNL     1       9.397 -11.357  -2.769  0.00  0.00    +0.004 C 
ENDBRANCH  12  13
ENDBRANCH   9  12
ENDBRANCH   4   8
BRANCH   1  18
ATOM     18  C   UNL     1       3.005  -3.138  -3.812  0.00  0.00    +0.019 C 
BRANCH  18  20
ATOM     19  N   UNL     1       1.976  -1.046  -2.987  0.00  0.00    -0.314 N 
ATOM     20  C   UNL     1       2.617  -2.197  -2.702  0.00  0.00    +0.197 C 
ATOM     21  O   UNL     1       2.881  -2.474  -1.551  0.00  0.00    -0.278 OA
ATOM     22  H   UNL     1       1.764  -0.824  -3.907  0.00  0.00    +0.149 HD
BRANCH  19  27
ATOM     23  C   UNL     1      -0.019   1.538   0.011  0.00  0.00    +0.000 C 
ATOM     24  C   UNL     1       1.401   2.036  -0.000  0.00  0.00    +0.000 C 
ATOM     25  C   UNL     1       1.910   2.335  -1.423  0.00  0.00    +0.002 C 
ATOM     26  C   UNL     1       1.480   1.268  -2.449  0.00  0.00    +0.022 C 
ATOM     27  C   UNL     1       1.598  -0.131  -1.907  0.00  0.00    +0.073 C 
ATOM     28  C   UNL     1       0.231  -0.548  -1.328  0.00  0.00    +0.022 C 
ATOM     29  C   UNL     1       0.002  -0.004   0.002  0.00  0.00    +0.002 C 
ENDBRANCH  19  27
ENDBRANCH  18  20
ENDBRANCH   1  18
TORSDOF 6
