REMARK  Name = ZINC09264102
REMARK  8 active torsions:
REMARK  status: ('A' for Active; 'I' for Inactive)
REMARK    1  A    between atoms: C_1  and  C_2
REMARK    2  A    between atoms: C_7  and  C_11
REMARK    3  A    between atoms: C_7  and  C_12
REMARK    4  A    between atoms: N_20  and  C_21
REMARK    5  A    between atoms: C_21  and  C_22
REMARK    6  A    between atoms: C_29  and  C_30
REMARK    7  A    between atoms: C_29  and  N_65
REMARK    8  A    between atoms: C_30  and  O_31
REMARK                            x       y       z     vdW  Elec       q    Type
REMARK                         _______ _______ _______ _____ _____    ______ ____
ROOT
ATOM      1  C   UNL     1      -3.411   2.785  -1.096  0.00  0.00    +0.033 C 
ATOM      2  C   UNL     1      -3.223   1.599  -0.148  0.00  0.00    +0.106 C 
ATOM      3  C   UNL     1      -4.501   0.766  -0.140  0.00  0.00    +0.032 C 
ATOM      4  C   UNL     1      -5.286   0.446   0.921  0.00  0.00    +0.017 C 
ATOM      5  C   UNL     1      -6.554  -0.355   0.758  0.00  0.00    +0.058 C 
ATOM      6  C   UNL     1      -6.401  -1.342  -0.400  0.00  0.00    -0.023 C 
ATOM      7  C   UNL     1      -6.089  -0.534  -1.665  0.00  0.00    +0.086 C 
ATOM      8  C   UNL     1      -4.869   0.301  -1.425  0.00  0.00    +0.163 C 
ATOM      9  O   UNL     1      -4.166   0.593  -2.373  0.00  0.00    -0.292 OA
ATOM     10  C   UNL     1      -5.254  -2.311  -0.108  0.00  0.00    +0.011 C 
ATOM     11  C   UNL     1      -7.704  -2.122  -0.592  0.00  0.00    +0.011 C 
ATOM     12  N   UNL     1      -4.958   0.849   2.180  0.00  0.00    -0.316 N 
ATOM     13  C   UNL     1      -3.699   0.535   2.707  0.00  0.00    +0.052 A 
ATOM     14  C   UNL     1      -3.549  -0.398   3.724  0.00  0.00    +0.025 A 
ATOM     15  C   UNL     1      -2.263  -0.729   4.124  0.00  0.00    +0.002 A 
ATOM     16  C   UNL     1      -1.167  -0.140   3.520  0.00  0.00    +0.002 A 
ATOM     17  C   UNL     1      -1.337   0.802   2.517  0.00  0.00    +0.025 A 
ATOM     18  C   UNL     1      -2.633   1.133   2.136  0.00  0.00    +0.052 A 
ATOM     19  N   UNL     1      -2.883   2.100   1.167  0.00  0.00    -0.313 N 
ATOM     20  H   UNL     1      -5.594   1.353   2.711  0.00  0.00    +0.152 HD
ENDROOT
BRANCH  19  21
ATOM     21  C   UNL     1      -1.781   3.068   1.092  0.00  0.00    +0.201 C 
BRANCH  21  22
ATOM     22  C   UNL     1      -1.666   3.800   2.405  0.00  0.00    +0.233 C 
ATOM     23  O   UNL     1      -2.473   3.595   3.286  0.00  0.00    -0.274 OA
ATOM     24  N   UNL     1      -0.662   4.678   2.601  0.00  0.00    -0.304 N 
ATOM     25  C   UNL     1       0.331   4.937   1.547  0.00  0.00    +0.089 C 
ATOM     26  C   UNL     1       0.427   6.457   1.339  0.00  0.00    -0.059 C 
ATOM     27  C   UNL     1      -0.394   6.895   3.578  0.00  0.00    -0.059 C 
ATOM     28  C   UNL     1      -0.528   5.398   3.876  0.00  0.00    +0.089 C 
ATOM     29  N   UNL     1       0.731   7.094   2.639  0.00  0.00    +0.383 N 
ATOM     30  H   UNL     1       1.574   6.660   3.033  0.00  0.00    -0.082 HD
BRANCH  29  31
ATOM     31  C   UNL     1       0.979   8.538   2.447  0.00  0.00    -0.051 C 
BRANCH  31  32
ATOM     32  C   UNL     1      -0.100   9.154   1.554  0.00  0.00    +0.137 C 
BRANCH  32  33
ATOM     33  O   UNL     1      -1.357   9.119   2.233  0.00  0.00    -0.397 OA
ATOM     34  H   UNL     1      -2.089   9.495   1.725  0.00  0.00    +0.209 HD
ENDBRANCH  32  33
ENDBRANCH  31  32
ENDBRANCH  29  31
ENDBRANCH  21  22
ENDBRANCH  19  21
TORSDOF 5
