REMARK  Name = ZINC65395821
REMARK  5 active torsions:
REMARK  status: ('A' for Active; 'I' for Inactive)
REMARK    1  A    between atoms: C_1  and  C_2
REMARK    2  A    between atoms: C_7  and  C_8
REMARK    3  A    between atoms: C_10  and  C_21
REMARK    4  A    between atoms: N_14  and  C_15
REMARK    5  A    between atoms: C_15  and  C_16
REMARK                            x       y       z     vdW  Elec       q    Type
REMARK                         _______ _______ _______ _____ _____    ______ ____
ROOT
ATOM      1  C   UNL     1       0.389   0.091   2.586  0.00  0.00    +0.110 C 
ATOM      2  C   UNL     1      -1.058   0.337   3.054  0.00  0.00    +0.107 C 
ATOM      3  N   UNL     1      -1.252  -0.543   4.231  0.00  0.00    -0.295 NA
ATOM      4  C   UNL     1      -0.247  -1.623   4.056  0.00  0.00    +0.170 C 
ATOM      5  N   UNL     1       0.947  -0.916   3.520  0.00  0.00    -0.274 NA
ATOM      6  H   UNL     1      -1.094  -0.038   5.090  0.00  0.00    +0.124 HD
ENDROOT
BRANCH   1  13
ATOM      7  C   UNL     1       1.606   1.627   0.464  0.00  0.00    +0.044 C 
ATOM      8  C   UNL     1       0.979   0.290   0.162  0.00  0.00    -0.043 A 
ATOM      9  C   UNL     1       0.991  -0.203  -1.129  0.00  0.00    +0.042 A 
ATOM     10  C   UNL     1       0.416  -1.431  -1.406  0.00  0.00    +0.124 A 
ATOM     11  C   UNL     1      -0.172  -2.164  -0.389  0.00  0.00    +0.038 A 
ATOM     12  C   UNL     1      -0.183  -1.669   0.901  0.00  0.00    +0.008 A 
ATOM     13  C   UNL     1       0.396  -0.445   1.178  0.00  0.00    -0.025 A 
ATOM     14  F   UNL     1       0.427  -1.914  -2.668  0.00  0.00    -0.205 F 
ENDBRANCH   1  13
BRANCH   2  15
ATOM     15  C   UNL     1      -1.241   1.780   3.445  0.00  0.00    -0.029 A 
ATOM     16  C   UNL     1      -0.807   2.222   4.681  0.00  0.00    +0.005 A 
ATOM     17  C   UNL     1      -0.975   3.546   5.040  0.00  0.00    +0.000 A 
ATOM     18  C   UNL     1      -1.576   4.429   4.163  0.00  0.00    +0.000 A 
ATOM     19  C   UNL     1      -2.009   3.988   2.926  0.00  0.00    +0.000 A 
ATOM     20  C   UNL     1      -1.837   2.665   2.566  0.00  0.00    +0.005 A 
ENDBRANCH   2  15
BRANCH   5  21
ATOM     21  C   UNL     1       1.841  -1.846   2.819  0.00  0.00    +0.158 C 
BRANCH  21  22
ATOM     22  C   UNL     1       2.667  -2.604   3.826  0.00  0.00    +0.099 A 
ATOM     23  N   UNL     1       2.887  -2.234   5.077  0.00  0.00    -0.349 N 
ATOM     24  C   UNL     1       3.668  -3.165   5.663  0.00  0.00    +0.101 A 
ATOM     25  C   UNL     1       3.922  -4.114   4.740  0.00  0.00    +0.101 A 
ATOM     26  N   UNL     1       3.288  -3.752   3.605  0.00  0.00    -0.349 N 
ATOM     27  H   UNL     1       3.288  -4.247   2.771  0.00  0.00    +0.166 HD
ATOM     28  H   UNL     1       2.545  -1.431   5.501  0.00  0.00    +0.166 HD
ENDBRANCH  21  22
ENDBRANCH   5  21
TORSDOF 4
