REMARK  Name = ZINC64127837
REMARK  5 active torsions:
REMARK  status: ('A' for Active; 'I' for Inactive)
REMARK    1  A    between atoms: C_1  and  C_2
REMARK    2  A    between atoms: C_2  and  C_4
REMARK    3  A    between atoms: C_2  and  N_16
REMARK    4  A    between atoms: C_7  and  C_10
REMARK    5  A    between atoms: C_17  and  C_19
REMARK                            x       y       z     vdW  Elec       q    Type
REMARK                         _______ _______ _______ _____ _____    ______ ____
ROOT
ATOM      1  N   UNL     1      -1.372  -0.511   0.012  0.00  0.00    -0.303 N 
ATOM      2  C   UNL     1      -2.051  -0.643  -1.145  0.00  0.00    +0.255 C 
ATOM      3  O   UNL     1      -1.524  -0.341  -2.194  0.00  0.00    -0.272 OA
ATOM      4  H   UNL     1      -1.794  -0.752   0.852  0.00  0.00    +0.149 HD
ENDROOT
BRANCH   2   5
ATOM      5  C   UNL     1      -3.465  -1.164  -1.134  0.00  0.00    +0.266 C 
ATOM      6  C   UNL     1      -3.470  -2.621  -0.648  0.00  0.00    +0.134 C 
ATOM      7  C   UNL     1      -4.909  -3.103  -0.690  0.00  0.00    +0.171 C 
ATOM      8  O   UNL     1      -5.373  -3.803   0.185  0.00  0.00    -0.292 OA
ATOM      9  C   UNL     1      -5.713  -2.674  -1.848  0.00  0.00    +0.059 A 
ATOM     10  C   UNL     1      -6.954  -3.257  -2.110  0.00  0.00    +0.015 A 
ATOM     11  C   UNL     1      -7.689  -2.834  -3.197  0.00  0.00    +0.001 A 
ATOM     12  C   UNL     1      -7.198  -1.835  -4.024  0.00  0.00    +0.004 A 
ATOM     13  C   UNL     1      -5.971  -1.254  -3.776  0.00  0.00    +0.046 A 
ATOM     14  C   UNL     1      -5.213  -1.667  -2.689  0.00  0.00    +0.132 A 
ATOM     15  O   UNL     1      -4.005  -1.104  -2.454  0.00  0.00    -0.478 OA
ENDBRANCH   2   5
BRANCH   1  17
ATOM     16  C   UNL     1      -0.019   1.526   0.010  0.00  0.00    +0.036 C 
ATOM     17  C   UNL     1       0.002  -0.004   0.002  0.00  0.00    +0.136 C 
BRANCH  17  18
ATOM     18  C   UNL     1       0.731  -0.503   1.223  0.00  0.00    +0.128 A 
ATOM     19  N   UNL     1       2.069  -0.652   1.332  0.00  0.00    -0.340 N 
ATOM     20  H   UNL     1       2.728  -0.459   0.646  0.00  0.00    +0.167 HD
ATOM     21  C   UNL     1       2.322  -1.129   2.598  0.00  0.00    +0.066 A 
ATOM     22  C   UNL     1       1.114  -1.251   3.213  0.00  0.00    +0.139 A 
ATOM     23  N   UNL     1       0.171  -0.857   2.349  0.00  0.00    -0.238 NA
BRANCH  21  24
ATOM     24  C   UNL     1       3.645  -1.446   3.177  0.00  0.00    -0.000 A 
ATOM     25  C   UNL     1       4.803  -1.262   2.420  0.00  0.00    +0.010 A 
ATOM     26  C   UNL     1       6.035  -1.560   2.965  0.00  0.00    +0.001 A 
ATOM     27  C   UNL     1       6.124  -2.040   4.260  0.00  0.00    +0.000 A 
ATOM     28  C   UNL     1       4.979  -2.224   5.016  0.00  0.00    +0.001 A 
ATOM     29  C   UNL     1       3.742  -1.924   4.484  0.00  0.00    +0.010 A 
ENDBRANCH  21  24
ENDBRANCH  17  18
ENDBRANCH   1  17
TORSDOF 4
