REMARK  Name = ZINC39478863
REMARK  9 active torsions:
REMARK  status: ('A' for Active; 'I' for Inactive)
REMARK    1  A    between atoms: C_1  and  C_2
REMARK    2  A    between atoms: C_4  and  C_9
REMARK    3  A    between atoms: C_5  and  C_8
REMARK    4  A    between atoms: C_9  and  C_10
REMARK    5  A    between atoms: C_10  and  C_11
REMARK    6  A    between atoms: C_11  and  N_12
REMARK    7  A    between atoms: N_12  and  C_13
REMARK    8  A    between atoms: N_12  and  C_14
REMARK    9  A    between atoms: C_23  and  O_25
REMARK                            x       y       z     vdW  Elec       q    Type
REMARK                         _______ _______ _______ _____ _____    ______ ____
ROOT
ATOM      1  C   UNL     1      -2.194  -1.989  -6.444  0.00  0.00    -0.008 C 
ATOM      2  C   UNL     1      -3.235  -2.992  -6.896  0.00  0.00    -0.055 A 
ATOM      3  C   UNL     1      -4.607  -3.008  -6.706  0.00  0.00    +0.002 A 
ATOM      4  C   UNL     1      -5.367  -4.042  -7.216  0.00  0.00    +0.000 A 
ATOM      5  C   UNL     1      -4.758  -5.064  -7.920  0.00  0.00    +0.000 A 
ATOM      6  C   UNL     1      -3.391  -5.049  -8.112  0.00  0.00    +0.004 A 
ATOM      7  C   UNL     1      -2.625  -4.013  -7.602  0.00  0.00    -0.037 A 
ATOM      8  C   UNL     1      -1.139  -3.760  -7.675  0.00  0.00    +0.017 C 
ATOM      9  C   UNL     1      -0.951  -2.273  -7.314  0.00  0.00    +0.116 C 
ATOM     10  C   UNL     1      -0.399  -4.640  -6.671  0.00  0.00    -0.005 C 
ATOM     11  C   UNL     1       1.108  -4.399  -6.801  0.00  0.00    -0.082 C 
ATOM     12  N   UNL     1       1.540  -4.717  -8.168  0.00  0.00    +0.379 N 
ATOM     13  C   UNL     1       0.892  -3.807  -9.121  0.00  0.00    -0.082 C 
ATOM     14  C   UNL     1      -0.623  -4.023  -9.088  0.00  0.00    -0.005 C 
ATOM     15  H   UNL     1       2.541  -4.615  -8.235  0.00  0.00    -0.086 HD
ATOM     16  H   UNL     1       1.285  -5.668  -8.387  0.00  0.00    -0.086 HD
ENDROOT
BRANCH   1  17
ATOM     17  N   UNL     1      -1.879  -2.189  -5.023  0.00  0.00    +0.384 N 
ATOM     18  C   UNL     1      -3.102  -2.042  -4.224  0.00  0.00    -0.095 C 
ATOM     19  H   UNL     1      -1.499  -3.114  -4.889  0.00  0.00    -0.081 HD
BRANCH  17  20
ATOM     20  C   UNL     1      -0.891  -1.189  -4.595  0.00  0.00    -0.078 C 
BRANCH  20  21
ATOM     21  C   UNL     1      -0.454  -1.485  -3.160  0.00  0.00    -0.014 C 
BRANCH  21  22
ATOM     22  C   UNL     1       0.575  -0.444  -2.715  0.00  0.00    +0.033 C 
BRANCH  22  25
ATOM     23  C   UNL     1       0.294   1.218   0.102  0.00  0.00    +0.039 C 
ATOM     24  C   UNL     1       0.331  -0.308  -0.009  0.00  0.00    +0.153 C 
ATOM     25  C   UNL     1       1.006  -0.736  -1.300  0.00  0.00    -0.021 C 
ATOM     26  C   UNL     1       2.070  -1.431  -0.892  0.00  0.00    +0.061 C 
ATOM     27  N   UNL     1       2.123  -1.478   0.458  0.00  0.00    -0.159 NA
ATOM     28  N   UNL     1       1.201  -0.885   1.030  0.00  0.00    -0.180 NA
ATOM     29  C   UNL     1       3.074  -2.077  -1.811  0.00  0.00    +0.067 C 
ENDBRANCH  22  25
ENDBRANCH  21  22
ENDBRANCH  20  21
ENDBRANCH  17  20
ENDBRANCH   1  17
BRANCH   9  30
ATOM     30  O   UNL     1      -0.956  -1.460  -8.488  0.00  0.00    -0.392 OA
ATOM     31  H   UNL     1      -0.929  -0.510  -8.309  0.00  0.00    +0.210 HD
ENDBRANCH   9  30
TORSDOF 6
