REMARK  Name = ZINC22507968
REMARK  6 active torsions:
REMARK  status: ('A' for Active; 'I' for Inactive)
REMARK    1  A    between atoms: C_1  and  C_2
REMARK    2  A    between atoms: C_2  and  C_3
REMARK    3  A    between atoms: C_2  and  C_4
REMARK    4  A    between atoms: C_7  and  N_12
REMARK    5  A    between atoms: N_12  and  C_13
REMARK    6  A    between atoms: C_13  and  C_14
REMARK                            x       y       z     vdW  Elec       q    Type
REMARK                         _______ _______ _______ _____ _____    ______ ____
ROOT
ATOM      1  C   UNL     1      -5.689  -2.318  -2.332  0.00  0.00    +0.202 C 
ATOM      2  O   UNL     1      -5.164  -1.577  -3.136  0.00  0.00    -0.278 OA
ATOM      3  N   UNL     1      -6.950  -2.748  -2.535  0.00  0.00    -0.266 N 
ATOM      4  C   UNL     1      -7.649  -2.341  -3.666  0.00  0.00    +0.165 A 
ATOM      5  N   UNL     1      -7.244  -1.554  -4.638  0.00  0.00    -0.229 NA
ATOM      6  C   UNL     1      -8.035  -1.262  -5.655  0.00  0.00    +0.054 A 
ATOM      7  C   UNL     1      -9.275  -1.809  -5.648  0.00  0.00    +0.014 A 
ATOM      8  S   UNL     1      -9.217  -2.744  -4.127  0.00  0.00    -0.057 S 
ATOM      9  C   UNL     1     -10.394  -1.677  -6.647  0.00  0.00    +0.044 C 
ATOM     10  C   UNL     1     -10.502  -0.225  -7.115  0.00  0.00    +0.005 C 
ATOM     11  C   UNL     1     -10.927  -0.193  -8.584  0.00  0.00    +0.000 C 
ATOM     12  C   UNL     1     -11.323   1.234  -8.969  0.00  0.00    +0.000 C 
ATOM     13  C   UNL     1     -10.495   2.230  -8.155  0.00  0.00    +0.000 C 
ATOM     14  C   UNL     1      -9.083   2.315  -8.737  0.00  0.00    +0.000 C 
ATOM     15  C   UNL     1      -8.147   2.958  -7.711  0.00  0.00    +0.000 C 
ATOM     16  C   UNL     1      -7.004   1.992  -7.388  0.00  0.00    +0.000 C 
ATOM     17  C   UNL     1      -7.425   1.068  -6.244  0.00  0.00    +0.006 C 
ATOM     18  C   UNL     1      -7.575  -0.360  -6.771  0.00  0.00    +0.056 C 
ATOM     19  H   UNL     1      -7.370  -3.340  -1.892  0.00  0.00    +0.157 HD
ENDROOT
BRANCH   1  20
ATOM     20  C   UNL     1      -4.931  -2.758  -1.107  0.00  0.00    +0.016 C 
BRANCH  20  21
ATOM     21  N   UNL     1      -3.590  -2.158  -1.118  0.00  0.00    +0.387 N 
ATOM     22  H   UNL     1      -3.672  -1.152  -1.120  0.00  0.00    -0.085 HD
ATOM     23  H   UNL     1      -3.095  -2.456  -1.945  0.00  0.00    -0.085 HD
BRANCH  21  26
ATOM     24  C   UNL     1      -1.433  -0.534   0.013  0.00  0.00    +0.119 C 
ATOM     25  C   UNL     1      -1.413  -2.064   0.005  0.00  0.00    +0.016 C 
ATOM     26  C   UNL     1      -2.851  -2.587   0.077  0.00  0.00    -0.067 C 
ATOM     27  C   UNL     1      -3.526  -2.021   1.330  0.00  0.00    +0.012 C 
ATOM     28  C   UNL     1      -3.465  -0.492   1.286  0.00  0.00    +0.158 C 
ATOM     29  O   UNL     1      -2.102  -0.073   1.189  0.00  0.00    -0.376 OA
BRANCH  24  31
ATOM     30  C   UNL     1      -0.019   1.526   0.010  0.00  0.00    +0.010 C 
ATOM     31  C   UNL     1       0.002  -0.004   0.002  0.00  0.00    +0.012 C 
ATOM     32  C   UNL     1       0.742  -0.511   1.242  0.00  0.00    +0.010 C 
ENDBRANCH  24  31
ENDBRANCH  21  26
ENDBRANCH  20  21
ENDBRANCH   1  20
TORSDOF 4
