REMARK  Name = ZINC20207648
REMARK  12 active torsions:
REMARK  status: ('A' for Active; 'I' for Inactive)
REMARK    1  A    between atoms: C_1  and  C_2
REMARK    2  A    between atoms: C_2  and  C_3
REMARK    3  A    between atoms: C_3  and  C_4
REMARK    4  A    between atoms: C_4  and  C_18
REMARK    5  A    between atoms: N_7  and  C_11
REMARK    6  A    between atoms: C_11  and  C_12
REMARK    7  A    between atoms: N_21  and  C_24
REMARK    8  A    between atoms: C_24  and  C_25
REMARK    9  A    between atoms: C_25  and  C_26
REMARK   10  A    between atoms: C_27  and  C_34
REMARK   11  A    between atoms: C_31  and  C_32
REMARK   12  A    between atoms: C_31  and  C_33
REMARK                            x       y       z     vdW  Elec       q    Type
REMARK                         _______ _______ _______ _____ _____    ______ ____
ROOT
ATOM      1  C   UNL     1      -0.686  -0.545  -1.253  0.00  0.00    +0.018 C 
ATOM      2  C   UNL     1      -0.634  -2.075  -1.246  0.00  0.00    -0.013 C 
ATOM      3  C   UNL     1      -1.268  -2.608  -2.533  0.00  0.00    -0.078 C 
ATOM      4  N   UNL     1      -0.542  -2.079  -3.695  0.00  0.00    +0.380 N 
ATOM      5  C   UNL     1      -0.621  -0.614  -3.748  0.00  0.00    -0.078 C 
ATOM      6  C   UNL     1       0.034  -0.021  -2.498  0.00  0.00    -0.013 C 
ATOM      7  H   UNL     1       0.517  -2.354  -3.583  0.00  0.00    -0.082 HD
ENDROOT
BRANCH   1   8
ATOM      8  C   UNL     1       0.002  -0.004   0.002  0.00  0.00    +0.115 C 
ATOM      9  C   UNL     1      -0.018   1.512   0.010  0.00  0.00    +0.247 C 
ATOM     10  O   UNL     1      -0.995   2.231   0.019  0.00  0.00    -0.273 OA
ATOM     11  N   UNL     1       1.274   1.894   0.000  0.00  0.00    -0.222 N 
ATOM     12  C   UNL     1       2.099   0.841  -0.013  0.00  0.00    +0.309 C 
ATOM     13  O   UNL     1       3.311   0.933  -0.025  0.00  0.00    -0.252 OA
ATOM     14  N   UNL     1       1.438  -0.331  -0.013  0.00  0.00    -0.285 N 
ATOM     15  H   UNL     1       1.763  -1.382  -0.022  0.00  0.00    +0.151 HD
BRANCH   8  16
ATOM     16  C   UNL     1      -0.662  -0.558   1.264  0.00  0.00    +0.035 C 
BRANCH  16  18
ATOM     17  C   UNL     1      -0.584  -0.599   3.761  0.00  0.00    +0.004 C 
ATOM     18  C   UNL     1       0.080  -0.045   2.499  0.00  0.00    -0.001 C 
ENDBRANCH  16  18
ENDBRANCH   8  16
BRANCH  11  19
ATOM     19  C   UNL     1       1.720   3.289   0.002  0.00  0.00    +0.149 C 
BRANCH  19  20
ATOM     20  C   UNL     1       1.888   3.768   1.446  0.00  0.00    +0.136 C 
ATOM     21  C   UNL     1       2.246   5.270   1.460  0.00  0.00    +0.035 C 
ATOM     22  C   UNL     1       3.293   5.348   2.605  0.00  0.00    +0.031 C 
ATOM     23  C   UNL     1       4.003   3.980   2.448  0.00  0.00    +0.160 C 
ATOM     24  O   UNL     1       2.966   3.060   2.070  0.00  0.00    -0.375 OA
ENDBRANCH  19  20
ENDBRANCH  11  19
ENDBRANCH   1   8
BRANCH   4  25
ATOM     25  C   UNL     1      -1.037  -2.678  -4.942  0.00  0.00    -0.074 C 
BRANCH  25  26
ATOM     26  C   UNL     1      -0.713  -4.173  -4.953  0.00  0.00    +0.013 C 
BRANCH  26  27
ATOM     27  C   UNL     1      -1.220  -4.787  -6.232  0.00  0.00    -0.067 C 
ATOM     28  C   UNL     1      -0.392  -4.904  -7.220  0.00  0.00    -0.073 C 
ATOM     29  C   UNL     1      -0.753  -5.485  -8.556  0.00  0.00    +0.030 C 
ATOM     30  C   UNL     1      -2.053  -6.285  -8.449  0.00  0.00    +0.005 C 
ATOM     31  C   UNL     1      -3.098  -5.419  -7.733  0.00  0.00    +0.011 C 
ATOM     32  C   UNL     1      -2.653  -5.232  -6.279  0.00  0.00    -0.014 C 
ATOM     33  C   UNL     1      -2.798  -6.556  -5.526  0.00  0.00    +0.015 C 
ATOM     34  C   UNL     1      -3.535  -4.174  -5.614  0.00  0.00    +0.015 C 
ATOM     35  C   UNL     1       1.022  -4.425  -7.016  0.00  0.00    +0.039 C 
ENDBRANCH  26  27
ENDBRANCH  25  26
ENDBRANCH   4  25
TORSDOF 8
