REMARK  Name = ZINC58889481
REMARK  11 active torsions:
REMARK  status: ('A' for Active; 'I' for Inactive)
REMARK    1  A    between atoms: C_4  and  C_7
REMARK    2  A    between atoms: C_7  and  C_9
REMARK    3  A    between atoms: C_7  and  O_35
REMARK    4  A    between atoms: C_9  and  C_10
REMARK    5  A    between atoms: C_10  and  C_11
REMARK    6  A    between atoms: N_13  and  N_14
REMARK    7  A    between atoms: C_15  and  C_16
REMARK    8  A    between atoms: C_19  and  O_23
REMARK    9  A    between atoms: O_23  and  C_24
REMARK   10  A    between atoms: C_24  and  C_25
REMARK   11  A    between atoms: C_28  and  N_31
REMARK                            x       y       z     vdW  Elec       q    Type
REMARK                         _______ _______ _______ _____ _____    ______ ____
ROOT
ATOM      1  C   UNL     1       9.333  -4.174   3.446  0.00  0.00    -0.002 A 
ATOM      2  C   UNL     1      10.459  -4.976   3.648  0.00  0.00    +0.033 A 
ATOM      3  C   UNL     1      11.366  -5.158   2.625  0.00  0.00    +0.085 A 
ATOM      4  C   UNL     1      11.161  -4.545   1.395  0.00  0.00    +0.157 A 
ATOM      5  C   UNL     1      10.042  -3.747   1.190  0.00  0.00    +0.085 A 
ATOM      6  C   UNL     1       9.128  -3.564   2.206  0.00  0.00    +0.033 A 
ATOM      7 CL   UNL     1       9.792  -2.983  -0.349  0.00  0.00    -0.080 Cl
ATOM      8 CL   UNL     1      12.766  -6.154   2.874  0.00  0.00    -0.080 Cl
ENDROOT
BRANCH   1  10
ATOM      9  N   UNL     1       7.196  -3.464   4.283  0.00  0.00    -0.188 NA
ATOM     10  C   UNL     1       8.361  -3.977   4.537  0.00  0.00    +0.138 C 
BRANCH   9  13
ATOM     11  C   UNL     1       5.527  -2.875   2.692  0.00  0.00    +0.232 C 
ATOM     12  O   UNL     1       4.940  -2.258   3.556  0.00  0.00    -0.274 OA
ATOM     13  N   UNL     1       6.678  -3.513   2.983  0.00  0.00    -0.207 N 
ATOM     14  H   UNL     1       7.147  -4.006   2.292  0.00  0.00    +0.177 HD
BRANCH  11  15
ATOM     15  C   UNL     1       4.969  -2.927   1.293  0.00  0.00    +0.100 C 
BRANCH  15  16
ATOM     16  C   UNL     1       3.666  -2.127   1.233  0.00  0.00    +0.045 C 
BRANCH  16  17
ATOM     17  C   UNL     1       3.100  -2.180  -0.187  0.00  0.00    +0.145 C 
BRANCH  17  21
ATOM     18  C   UNL     1      -0.345   0.332  -0.444  0.00  0.00    +0.000 A 
ATOM     19  C   UNL     1       0.876   0.784  -0.909  0.00  0.00    +0.000 A 
ATOM     20  C   UNL     1       1.991  -0.029  -0.826  0.00  0.00    +0.006 A 
ATOM     21  C   UNL     1       1.885  -1.293  -0.277  0.00  0.00    -0.019 A 
ATOM     22  C   UNL     1       0.664  -1.745   0.189  0.00  0.00    +0.006 A 
ATOM     23  C   UNL     1      -0.451  -0.932   0.104  0.00  0.00    +0.000 A 
ENDBRANCH  17  21
BRANCH  17  24
ATOM     24  O   UNL     1       2.733  -3.524  -0.504  0.00  0.00    -0.387 OA
ATOM     25  H   UNL     1       2.063  -3.898   0.084  0.00  0.00    +0.210 HD
ENDBRANCH  17  24
ENDBRANCH  16  17
ENDBRANCH  15  16
ENDBRANCH  11  15
ENDBRANCH   9  13
ENDBRANCH   1  10
BRANCH   4  26
ATOM     26  O   UNL     1      12.056  -4.728   0.389  0.00  0.00    -0.484 OA
BRANCH  26  27
ATOM     27  C   UNL     1      11.831  -5.832  -0.489  0.00  0.00    +0.264 C 
BRANCH  27  28
ATOM     28  C   UNL     1      12.917  -5.874  -1.533  0.00  0.00    -0.010 A 
ATOM     29  C   UNL     1      12.759  -5.188  -2.722  0.00  0.00    +0.009 A 
ATOM     30  C   UNL     1      13.756  -5.227  -3.679  0.00  0.00    +0.033 A 
ATOM     31  C   UNL     1      14.910  -5.952  -3.447  0.00  0.00    +0.126 A 
ATOM     32  C   UNL     1      15.067  -6.638  -2.257  0.00  0.00    +0.033 A 
ATOM     33  C   UNL     1      14.073  -6.595  -1.298  0.00  0.00    +0.009 A 
BRANCH  31  34
ATOM     34  N   UNL     1      15.976  -5.994  -4.473  0.00  0.00    +0.056 N 
ATOM     35  O   UNL     1      15.838  -5.395  -5.514  0.00  0.00    -0.126 OA
ATOM     36  O   UNL     1      16.985  -6.628  -4.270  0.00  0.00    -0.126 OA
ENDBRANCH  31  34
ENDBRANCH  27  28
ENDBRANCH  26  27
ENDBRANCH   4  26
TORSDOF 11
