REMARK  Name = ZINC55028849
REMARK  7 active torsions:
REMARK  status: ('A' for Active; 'I' for Inactive)
REMARK    1  A    between atoms: C_1  and  C_2
REMARK    2  A    between atoms: C_2  and  C_3
REMARK    3  A    between atoms: C_2  and  N_4
REMARK    4  A    between atoms: N_4  and  C_5
REMARK    5  A    between atoms: C_5  and  C_6
REMARK    6  A    between atoms: C_6  and  C_8
REMARK    7  A    between atoms: C_6  and  O_19
REMARK                            x       y       z     vdW  Elec       q    Type
REMARK                         _______ _______ _______ _____ _____    ______ ____
ROOT
ATOM      1  C   UNL     1       4.287  -0.254  -2.313  0.00  0.00    -0.016 A 
ATOM      2  C   UNL     1       5.177  -1.245  -1.943  0.00  0.00    +0.055 A 
ATOM      3  C   UNL     1       6.531  -0.963  -1.846  0.00  0.00    +0.164 A 
ATOM      4  C   UNL     1       6.992   0.318  -2.124  0.00  0.00    +0.176 A 
ATOM      5  C   UNL     1       6.094   1.309  -2.494  0.00  0.00    +0.063 A 
ATOM      6  C   UNL     1       4.745   1.020  -2.593  0.00  0.00    +0.025 A 
ATOM      7 BR   UNL     1       6.716   3.055  -2.869  0.00  0.00    -0.046 Br
ATOM      8  O   UNL     1       8.318   0.615  -2.042  0.00  0.00    -0.484 OA
ATOM      9  C   UNL     1       9.139  -0.302  -1.310  0.00  0.00    +0.270 C 
ATOM     10  C   UNL     1       8.781  -1.727  -1.754  0.00  0.00    +0.270 C 
ATOM     11  O   UNL     1       7.394  -1.948  -1.476  0.00  0.00    -0.485 OA
ENDROOT
BRANCH   1  12
ATOM     12  C   UNL     1       2.816  -0.564  -2.418  0.00  0.00    +0.128 C 
BRANCH  12  13
ATOM     13  O   UNL     1       2.272   0.093  -3.564  0.00  0.00    -0.389 OA
ATOM     14  H   UNL     1       2.360   1.056  -3.545  0.00  0.00    +0.210 HD
ENDBRANCH  12  13
BRANCH  12  15
ATOM     15  C   UNL     1       2.100  -0.070  -1.159  0.00  0.00    -0.046 C 
BRANCH  15  16
ATOM     16  N   UNL     1       0.690  -0.478  -1.207  0.00  0.00    +0.382 N 
ATOM     17  H   UNL     1       0.632  -1.484  -1.254  0.00  0.00    -0.085 HD
ATOM     18  H   UNL     1       0.251  -0.077  -2.022  0.00  0.00    -0.085 HD
BRANCH  16  20
ATOM     19  C   UNL     1      -0.019   1.526   0.010  0.00  0.00    -0.014 C 
ATOM     20  C   UNL     1       0.002  -0.004   0.002  0.00  0.00    -0.078 C 
ATOM     21  C   UNL     1      -1.433  -0.534   0.013  0.00  0.00    -0.014 C 
ENDBRANCH  16  20
ENDBRANCH  15  16
ENDBRANCH  12  15
ENDBRANCH   1  12
TORSDOF 5
