REMARK  Name = ZINC06766510
REMARK  10 active torsions:
REMARK  status: ('A' for Active; 'I' for Inactive)
REMARK    1  A    between atoms: C_1  and  C_2
REMARK    2  A    between atoms: C_2  and  N_55
REMARK    3  A    between atoms: C_3  and  C_4
REMARK    4  A    between atoms: C_3  and  N_55
REMARK    5  A    between atoms: C_5  and  C_6
REMARK    6  A    between atoms: C_5  and  N_55
REMARK    7  A    between atoms: C_6  and  N_7
REMARK    8  A    between atoms: C_8  and  C_10
REMARK    9  A    between atoms: C_10  and  N_57
REMARK   10  A    between atoms: C_18  and  C_20
REMARK                            x       y       z     vdW  Elec       q    Type
REMARK                         _______ _______ _______ _____ _____    ______ ____
ROOT
ATOM      1  C   UNL     1       0.497  -2.660   0.376  0.00  0.00    -0.055 C 
ATOM      2  C   UNL     1       1.695  -1.811  -0.067  0.00  0.00    +0.103 C 
ATOM      3  N   UNL     1       1.287  -0.400  -0.052  0.00  0.00    -0.353 N 
ATOM      4  C   UNL     1       2.082   0.700  -0.067  0.00  0.00    +0.086 A 
ATOM      5  C   UNL     1       1.289   1.793  -0.039  0.00  0.00    +0.019 A 
ATOM      6  C   UNL     1      -0.049   1.345  -0.007  0.00  0.00    +0.021 A 
ATOM      7  C   UNL     1      -0.021   0.004  -0.018  0.00  0.00    +0.009 A 
ATOM      8  C   UNL     1      -1.188  -0.953   0.002  0.00  0.00    +0.011 C 
ATOM      9  N   UNL     1      -0.686  -2.281  -0.426  0.00  0.00    +0.395 N 
ATOM     10  H   UNL     1      -0.416  -2.232  -1.416  0.00  0.00    -0.080 HD
ENDROOT
BRANCH   8  11
ATOM     11  C   UNL     1      -2.244  -0.489  -0.968  0.00  0.00    -0.055 A 
ATOM     12  C   UNL     1      -2.100  -0.744  -2.320  0.00  0.00    +0.004 A 
ATOM     13  C   UNL     1      -3.071  -0.324  -3.209  0.00  0.00    +0.020 A 
ATOM     14  C   UNL     1      -4.181   0.361  -2.749  0.00  0.00    +0.041 A 
ATOM     15  C   UNL     1      -4.322   0.621  -1.397  0.00  0.00    +0.020 A 
ATOM     16  C   UNL     1      -3.353   0.196  -0.508  0.00  0.00    +0.004 A 
ATOM     17 CL   UNL     1      -5.397   0.895  -3.867  0.00  0.00    -0.084 Cl
ENDBRANCH   8  11
BRANCH   9  18
ATOM     18  C   UNL     1      -1.749  -3.297  -0.269  0.00  0.00    +0.020 C 
BRANCH  18  20
ATOM     19  N   UNL     1      -2.101  -5.659  -0.913  0.00  0.00    -0.319 N 
ATOM     20  C   UNL     1      -1.291  -4.581  -0.910  0.00  0.00    +0.196 C 
ATOM     21  O   UNL     1      -0.195  -4.645  -1.425  0.00  0.00    -0.278 OA
ATOM     22  H   UNL     1      -2.978  -5.607  -0.502  0.00  0.00    +0.149 HD
BRANCH  19  23
ATOM     23  C   UNL     1      -1.657  -6.907  -1.537  0.00  0.00    +0.085 C 
BRANCH  23  24
ATOM     24  C   UNL     1      -2.755  -7.964  -1.403  0.00  0.00    -0.060 C 
BRANCH  24  25
ATOM     25  N   UNL     1      -2.349  -9.167  -2.159  0.00  0.00    +0.380 N 
ATOM     26  H   UNL     1      -1.936  -8.876  -3.052  0.00  0.00    -0.082 HD
BRANCH  25  28
ATOM     27  C   UNL     1      -0.780 -11.040  -2.282  0.00  0.00    -0.017 C 
ATOM     28  C   UNL     1      -1.344  -9.932  -1.391  0.00  0.00    -0.082 C 
ENDBRANCH  25  28
BRANCH  25  29
ATOM     29  C   UNL     1      -3.530 -10.015  -2.430  0.00  0.00    -0.082 C 
ATOM     30  C   UNL     1      -4.324  -9.396  -3.581  0.00  0.00    -0.017 C 
ENDBRANCH  25  29
ENDBRANCH  24  25
ENDBRANCH  23  24
ENDBRANCH  19  23
ENDBRANCH  18  20
ENDBRANCH   9  18
TORSDOF 8
