REMARK  Name = ZINC01771767
REMARK  9 active torsions:
REMARK  status: ('A' for Active; 'I' for Inactive)
REMARK    1  A    between atoms: C_1  and  O_2
REMARK    2  A    between atoms: O_2  and  C_3
REMARK    3  A    between atoms: C_6  and  C_9
REMARK    4  A    between atoms: C_12  and  C_42
REMARK    5  A    between atoms: C_17  and  C_19
REMARK    6  A    between atoms: N_21  and  C_22
REMARK    7  A    between atoms: C_24  and  N_38
REMARK    8  A    between atoms: C_26  and  O_28
REMARK    9  A    between atoms: O_28  and  C_29
REMARK                            x       y       z     vdW  Elec       q    Type
REMARK                         _______ _______ _______ _____ _____    ______ ____
ROOT
ATOM      1  C   UNL     1      -6.048   5.904   0.295  0.00  0.00    +0.268 C 
ATOM      2  O   UNL     1      -6.501   6.104   1.405  0.00  0.00    -0.268 OA
ATOM      3  N   UNL     1      -6.292   6.779  -0.700  0.00  0.00    -0.280 N 
ATOM      4  H   UNL     1      -5.827   6.634  -1.687  0.00  0.00    +0.155 HD
ENDROOT
BRANCH   1  11
ATOM      5  C   UNL     1      -2.554   0.967   0.002  0.00  0.00    +0.104 C 
ATOM      6  C   UNL     1      -3.070   0.968  -1.441  0.00  0.00    +0.063 C 
ATOM      7  C   UNL     1      -3.228   2.409  -1.938  0.00  0.00    +0.215 C 
ATOM      8  N   UNL     1      -3.991   3.172  -0.946  0.00  0.00    -0.238 N 
ATOM      9  C   UNL     1      -4.138   2.786   0.356  0.00  0.00    +0.119 A 
ATOM     10  C   UNL     1      -4.896   3.707   0.984  0.00  0.00    +0.078 A 
ATOM     11  C   UNL     1      -5.229   4.702   0.037  0.00  0.00    +0.149 A 
ATOM     12  N   UNL     1      -4.680   4.371  -1.118  0.00  0.00    -0.164 NA
ATOM     13  N   UNL     1      -3.562   1.617   0.862  0.00  0.00    -0.322 N 
ATOM     14  H   UNL     1      -3.819   1.177   1.837  0.00  0.00    +0.148 HD
BRANCH   5  18
ATOM     15  C   UNL     1       1.123   3.135   0.204  0.00  0.00    +0.120 A 
ATOM     16  C   UNL     1       1.136   1.749   0.161  0.00  0.00    +0.046 A 
ATOM     17  C   UNL     1      -0.054   1.050   0.099  0.00  0.00    +0.009 A 
ATOM     18  C   UNL     1      -1.257   1.732   0.076  0.00  0.00    -0.027 A 
ATOM     19  C   UNL     1      -1.272   3.113   0.125  0.00  0.00    +0.009 A 
ATOM     20  C   UNL     1      -0.085   3.817   0.186  0.00  0.00    +0.046 A 
BRANCH  15  22
ATOM     21  C   UNL     1       2.204   5.251   0.307  0.00  0.00    +0.277 C 
ATOM     22  O   UNL     1       2.293   3.825   0.265  0.00  0.00    -0.495 OA
ENDBRANCH  15  22
ENDBRANCH   5  18
BRANCH   7  23
ATOM     23  C   UNL     1      -3.978   2.412  -3.272  0.00  0.00    +0.412 C 
ATOM     24  F   UNL     1      -5.242   1.838  -3.099  0.00  0.00    -0.168 F 
ATOM     25  F   UNL     1      -4.121   3.728  -3.724  0.00  0.00    -0.168 F 
ATOM     26  F   UNL     1      -3.255   1.671  -4.214  0.00  0.00    -0.168 F 
ENDBRANCH   7  23
ENDBRANCH   1  11
BRANCH   3  27
ATOM     27  C   UNL     1      -7.137   7.872  -0.479  0.00  0.00    +0.039 A 
ATOM     28  C   UNL     1      -7.961   8.332  -1.499  0.00  0.00    +0.056 A 
ATOM     29  C   UNL     1      -8.800   9.407  -1.279  0.00  0.00    +0.131 A 
ATOM     30  C   UNL     1      -8.813  10.036  -0.048  0.00  0.00    +0.079 A 
ATOM     31  C   UNL     1      -7.988   9.584   0.973  0.00  0.00    +0.132 A 
ATOM     32  C   UNL     1      -7.149   8.502   0.757  0.00  0.00    +0.069 A 
BRANCH  29  33
ATOM     33  N   UNL     1      -9.681   9.891  -2.365  0.00  0.00    +0.057 N 
ATOM     34  O   UNL     1     -10.417  10.842  -2.174  0.00  0.00    -0.126 OA
ATOM     35  O   UNL     1      -9.670   9.338  -3.450  0.00  0.00    -0.126 OA
ENDBRANCH  29  33
BRANCH  31  36
ATOM     36  O   UNL     1      -8.002  10.203   2.182  0.00  0.00    -0.456 OA
BRANCH  36  37
ATOM     37  C   UNL     1      -8.923  11.181   2.388  0.00  0.00    +0.129 A 
ATOM     38  C   UNL     1      -8.516  12.497   2.556  0.00  0.00    +0.046 A 
ATOM     39  C   UNL     1      -9.455  13.486   2.764  0.00  0.00    +0.007 A 
ATOM     40  C   UNL     1     -10.804  13.171   2.806  0.00  0.00    -0.044 A 
ATOM     41  C   UNL     1     -11.212  11.861   2.639  0.00  0.00    -0.041 A 
ATOM     42  C   UNL     1     -10.273  10.867   2.424  0.00  0.00    +0.050 A 
ATOM     43  C   UNL     1     -12.722  11.781   2.725  0.00  0.00    +0.036 C 
ATOM     44  C   UNL     1     -13.215  13.229   2.526  0.00  0.00    +0.009 C 
ATOM     45  C   UNL     1     -12.011  14.060   3.017  0.00  0.00    +0.036 C 
ENDBRANCH  36  37
ENDBRANCH  31  36
ENDBRANCH   3  27
TORSDOF 8
