REMARK  Name = ZINC35426949
REMARK  4 active torsions:
REMARK  status: ('A' for Active; 'I' for Inactive)
REMARK    1  A    between atoms: C_1  and  C_2
REMARK    2  A    between atoms: C_7  and  N_8
REMARK    3  A    between atoms: C_23  and  C_25
REMARK    4  A    between atoms: N_27  and  C_30
REMARK                            x       y       z     vdW  Elec       q    Type
REMARK                         _______ _______ _______ _____ _____    ______ ____
ROOT
ATOM      1  N   UNL     1       0.025  -0.014   2.417  0.00  0.00    -0.269 N 
ATOM      2  C   UNL     1      -0.056  -0.693   3.578  0.00  0.00    +0.307 C 
ATOM      3  O   UNL     1      -0.040  -1.909   3.574  0.00  0.00    -0.252 OA
ATOM      4  N   UNL     1      -0.156  -0.025   4.745  0.00  0.00    -0.273 N 
ATOM      5  C   UNL     1      -0.185   1.448   4.790  0.00  0.00    +0.148 C 
ATOM      6  C   UNL     1      -1.164   1.983   5.812  0.00  0.00    +0.004 A 
ATOM      7  C   UNL     1      -2.353   2.650   5.465  0.00  0.00    -0.034 A 
ATOM      8  C   UNL     1      -3.144   3.107   6.474  0.00  0.00    -0.021 A 
ATOM      9  S   UNL     1      -2.278   2.619   7.943  0.00  0.00    -0.077 S 
ATOM     10  C   UNL     1      -0.917   1.827   7.142  0.00  0.00    +0.090 A 
ATOM     11  N   UNL     1       0.184   1.154   7.657  0.00  0.00    -0.312 N 
ATOM     12  C   UNL     1       1.046   1.473   8.650  0.00  0.00    +0.092 A 
ATOM     13  C   UNL     1       1.990   0.507   8.711  0.00  0.00    +0.020 A 
ATOM     14  C   UNL     1       1.681  -0.453   7.724  0.00  0.00    +0.025 A 
ATOM     15  C   UNL     1       0.559  -0.050   7.108  0.00  0.00    +0.044 A 
ATOM     16  C   UNL     1      -0.248  -0.736   6.042  0.00  0.00    +0.122 C 
ATOM     17  C   UNL     1      -1.713  -0.791   6.478  0.00  0.00    +0.035 C 
ATOM     18  C   UNL     1      -4.434   3.845   6.338  0.00  0.00    -0.036 C 
ATOM     19  N   UNL     1      -4.549   4.326   4.948  0.00  0.00    +0.381 N 
ATOM     20  C   UNL     1      -4.281   3.217   4.023  0.00  0.00    -0.074 C 
ATOM     21  C   UNL     1      -2.787   2.878   4.019  0.00  0.00    +0.018 C 
ATOM     22  C   UNL     1      -5.906   4.838   4.718  0.00  0.00    -0.096 C 
ATOM     23  H   UNL     1       0.079   0.955   2.425  0.00  0.00    +0.156 HD
ATOM     24  H   UNL     1      -3.879   5.064   4.792  0.00  0.00    -0.082 HD
ENDROOT
BRANCH   1  31
ATOM     25  C   UNL     1      -1.262   1.185   0.181  0.00  0.00    +0.045 C 
ATOM     26  C   UNL     1      -0.584  -0.157   0.084  0.00  0.00    -0.029 A 
ATOM     27  C   UNL     1      -0.570  -0.839  -1.117  0.00  0.00    +0.006 A 
ATOM     28  C   UNL     1       0.052  -2.070  -1.207  0.00  0.00    +0.020 A 
ATOM     29  C   UNL     1       0.663  -2.623  -0.095  0.00  0.00    +0.043 A 
ATOM     30  C   UNL     1       0.652  -1.945   1.109  0.00  0.00    +0.043 A 
ATOM     31  C   UNL     1       0.033  -0.706   1.201  0.00  0.00    +0.039 A 
ATOM     32 CL   UNL     1       1.442  -4.170  -0.213  0.00  0.00    -0.083 Cl
ENDBRANCH   1  31
TORSDOF 1
