REMARK  Name = ZINC15705206
REMARK  6 active torsions:
REMARK  status: ('A' for Active; 'I' for Inactive)
REMARK    1  A    between atoms: C_4  and  S_23
REMARK    2  A    between atoms: C_5  and  C_7
REMARK    3  A    between atoms: N_9  and  N_10
REMARK    4  A    between atoms: C_11  and  C_13
REMARK    5  A    between atoms: S_23  and  C_24
REMARK    6  A    between atoms: C_24  and  C_25
REMARK                            x       y       z     vdW  Elec       q    Type
REMARK                         _______ _______ _______ _____ _____    ______ ____
ROOT
ATOM      1  C   UNL     1      -1.658   5.108   2.846  0.00  0.00    +0.261 C 
ATOM      2  O   UNL     1      -1.214   5.909   2.046  0.00  0.00    -0.269 OA
ATOM      3  N   UNL     1      -1.519   3.786   2.625  0.00  0.00    -0.230 N 
ATOM      4  H   UNL     1      -1.873   3.147   3.263  0.00  0.00    +0.173 HD
ENDROOT
BRANCH   1   9
ATOM      5  C   UNL     1      -3.505   5.117   6.112  0.00  0.00    +0.001 A 
ATOM      6  C   UNL     1      -3.648   6.477   6.342  0.00  0.00    +0.001 A 
ATOM      7  C   UNL     1      -3.148   7.395   5.442  0.00  0.00    +0.015 A 
ATOM      8  C   UNL     1      -2.495   6.960   4.295  0.00  0.00    +0.020 A 
ATOM      9  C   UNL     1      -2.348   5.583   4.059  0.00  0.00    +0.052 A 
ATOM     10  C   UNL     1      -2.865   4.667   4.979  0.00  0.00    +0.014 A 
BRANCH   8  11
ATOM     11  S   UNL     1      -1.856   8.129   3.142  0.00  0.00    -0.119 S 
BRANCH  11  12
ATOM     12  C   UNL     1      -2.282   9.737   3.866  0.00  0.00    +0.116 C 
BRANCH  12  13
ATOM     13  C   UNL     1      -1.786  10.840   2.967  0.00  0.00    -0.000 A 
ATOM     14  C   UNL     1      -2.422  11.455   1.940  0.00  0.00    +0.012 A 
ATOM     15  C   UNL     1      -1.764  12.454   1.247  0.00  0.00    +0.008 A 
ATOM     16  C   UNL     1      -0.503  12.789   1.615  0.00  0.00    +0.045 A 
ATOM     17  S   UNL     1      -0.211  11.681   2.983  0.00  0.00    -0.101 S 
ENDBRANCH  12  13
ENDBRANCH  11  12
ENDBRANCH   8  11
ENDBRANCH   1   9
BRANCH   3  18
ATOM     18  N   UNL     1      -0.863   3.334   1.472  0.00  0.00    -0.234 N 
ATOM     19  C   UNL     1      -0.724   2.012   1.250  0.00  0.00    +0.235 C 
ATOM     20  O   UNL     1      -1.167   1.213   2.049  0.00  0.00    -0.274 OA
ATOM     21  H   UNL     1      -0.509   3.973   0.834  0.00  0.00    +0.173 HD
BRANCH  19  22
ATOM     22  C   UNL     1      -0.019   1.526   0.010  0.00  0.00    +0.049 C 
ATOM     23  C   UNL     1       1.417   2.055  -0.000  0.00  0.00    +0.019 C 
ATOM     24  C   UNL     1       2.133   1.562  -1.259  0.00  0.00    -0.009 C 
ATOM     25  C   UNL     1       2.154   0.032  -1.268  0.00  0.00    +0.007 C 
ATOM     26  C   UNL     1       0.718  -0.497  -1.257  0.00  0.00    -0.009 C 
ATOM     27  C   UNL     1       0.002  -0.004   0.002  0.00  0.00    +0.019 C 
ATOM     28  C   UNL     1      -0.022   0.009  -2.496  0.00  0.00    +0.007 C 
ATOM     29  C   UNL     1      -0.043   1.539  -2.488  0.00  0.00    -0.009 C 
ATOM     30  C   UNL     1       1.393   2.069  -2.499  0.00  0.00    +0.007 C 
ATOM     31  C   UNL     1      -0.759   2.033  -1.229  0.00  0.00    +0.019 C 
ENDBRANCH  19  22
ENDBRANCH   3  18
TORSDOF 6
