REMARK  Name = ZINC39884077
REMARK  4 active torsions:
REMARK  status: ('A' for Active; 'I' for Inactive)
REMARK    1  A    between atoms: C_4  and  N_7
REMARK    2  A    between atoms: C_8  and  C_10
REMARK    3  A    between atoms: C_10  and  N_11
REMARK    4  A    between atoms: C_17  and  C_32
REMARK                            x       y       z     vdW  Elec       q    Type
REMARK                         _______ _______ _______ _____ _____    ______ ____
ROOT
ATOM      1  N   UNL     1       4.805  -4.114   0.332  0.00  0.00    -0.288 N 
ATOM      2  C   UNL     1       4.603  -4.734   1.544  0.00  0.00    +0.091 A 
ATOM      3  C   UNL     1       4.372  -6.058   1.472  0.00  0.00    +0.033 A 
ATOM      4  S   UNL     1       4.463  -6.394  -0.269  0.00  0.00    -0.030 S 
ATOM      5  C   UNL     1       4.766  -4.830  -0.806  0.00  0.00    +0.292 A 
ATOM      6  O   UNL     1       4.915  -4.439  -1.951  0.00  0.00    -0.259 OA
ATOM      7  C   UNL     1       4.087  -7.013   2.573  0.00  0.00    +0.078 C 
ATOM      8  C   UNL     1       4.303  -6.495   3.944  0.00  0.00    +0.111 C 
ATOM      9  C   UNL     1       3.861  -5.059   4.255  0.00  0.00    +0.152 C 
ATOM     10  S   UNL     1       4.657  -3.893   3.105  0.00  0.00    -0.093 S 
ATOM     11  C   UNL     1       4.597  -4.878   5.595  0.00  0.00    +0.244 C 
ATOM     12  O   UNL     1       4.268  -4.148   6.500  0.00  0.00    -0.273 OA
ATOM     13  N   UNL     1       5.676  -5.685   5.569  0.00  0.00    -0.162 N 
ATOM     14  C   UNL     1       5.670  -6.568   4.549  0.00  0.00    +0.235 C 
ATOM     15  O   UNL     1       6.582  -7.279   4.201  0.00  0.00    -0.274 OA
ATOM     16  C   UNL     1       6.674  -5.608   6.473  0.00  0.00    +0.313 C 
ATOM     17  O   UNL     1       7.622  -6.364   6.397  0.00  0.00    -0.252 OA
ATOM     18  N   UNL     1       6.619  -4.692   7.460  0.00  0.00    -0.313 N 
ATOM     19  H   UNL     1       5.862  -4.088   7.520  0.00  0.00    +0.147 HD
ATOM     20  H   UNL     1       7.337  -4.636   8.110  0.00  0.00    +0.147 HD
ENDROOT
BRANCH   7  21
ATOM     21  C   UNL     1       4.966  -8.224   2.387  0.00  0.00    -0.001 A 
ATOM     22  C   UNL     1       4.710  -9.519   2.691  0.00  0.00    +0.012 A 
ATOM     23  C   UNL     1       5.675 -10.473   2.428  0.00  0.00    +0.008 A 
ATOM     24  C   UNL     1       6.849 -10.085   1.874  0.00  0.00    +0.045 A 
ATOM     25  S   UNL     1       6.611  -8.324   1.700  0.00  0.00    -0.101 S 
ENDBRANCH   7  21
BRANCH   1  26
ATOM     26  C   UNL     1       5.057  -2.671   0.281  0.00  0.00    +0.222 C 
BRANCH  26  28
ATOM     27  N   UNL     1       3.733  -0.590   0.096  0.00  0.00    -0.284 N 
ATOM     28  C   UNL     1       3.747  -1.936   0.160  0.00  0.00    +0.237 C 
ATOM     29  O   UNL     1       2.705  -2.556   0.121  0.00  0.00    -0.274 OA
ATOM     30  H   UNL     1       4.568  -0.098   0.053  0.00  0.00    +0.155 HD
BRANCH  27  34
ATOM     31  C   UNL     1       0.105   1.458   0.086  0.00  0.00    +0.000 A 
ATOM     32  C   UNL     1       0.228   0.276   0.793  0.00  0.00    +0.002 A 
ATOM     33  C   UNL     1       1.430  -0.406   0.799  0.00  0.00    +0.023 A 
ATOM     34  C   UNL     1       2.514   0.097   0.093  0.00  0.00    +0.033 A 
ATOM     35  C   UNL     1       2.387   1.284  -0.617  0.00  0.00    +0.023 A 
ATOM     36  C   UNL     1       1.183   1.961  -0.618  0.00  0.00    +0.002 A 
ENDBRANCH  27  34
ENDBRANCH  26  28
ENDBRANCH   1  26
TORSDOF 4
