REMARK  Name = ZINC19220711
REMARK  7 active torsions:
REMARK  status: ('A' for Active; 'I' for Inactive)
REMARK    1  A    between atoms: C_1  and  N_2
REMARK    2  A    between atoms: N_2  and  C_3
REMARK    3  A    between atoms: N_2  and  C_21
REMARK    4  A    between atoms: C_3  and  C_4
REMARK    5  A    between atoms: C_8  and  C_10
REMARK    6  A    between atoms: C_21  and  C_22
REMARK    7  A    between atoms: C_24  and  C_28
REMARK                            x       y       z     vdW  Elec       q    Type
REMARK                         _______ _______ _______ _____ _____    ______ ____
ROOT
ATOM      1  C   UNL     1       1.178   1.781   0.000  0.00  0.00    -0.063 A 
ATOM      2  C   UNL     1      -0.013   1.076   0.008  0.00  0.00    +0.002 A 
ATOM      3  C   UNL     1      -1.222   1.748   0.017  0.00  0.00    +0.001 A 
ATOM      4  C   UNL     1      -1.248   3.127   0.031  0.00  0.00    +0.011 A 
ATOM      5  C   UNL     1      -0.050   3.845   0.023  0.00  0.00    +0.018 A 
ATOM      6  C   UNL     1       1.167   3.160   0.008  0.00  0.00    +0.013 A 
ENDROOT
BRANCH   5   7
ATOM      7  C   UNL     1      -0.070   5.322   0.032  0.00  0.00    +0.141 A 
ATOM      8  N   UNL     1      -1.266   5.975   0.041  0.00  0.00    -0.307 N 
ATOM      9  H   UNL     1      -2.205   5.402   0.038  0.00  0.00    +0.170 HD
ATOM     10  C   UNL     1      -1.289   7.325   0.054  0.00  0.00    +0.255 A 
ATOM     11  O   UNL     1      -2.349   7.928   0.068  0.00  0.00    -0.268 OA
ATOM     12  C   UNL     1      -0.065   8.024   0.047  0.00  0.00    +0.038 A 
ATOM     13  C   UNL     1       1.101   7.318   0.032  0.00  0.00    +0.052 A 
ATOM     14  N   UNL     1       1.067   5.984   0.025  0.00  0.00    -0.234 NA
ATOM     15  C   UNL     1       2.280   8.268   0.027  0.00  0.00    +0.056 C 
ATOM     16  C   UNL     1       1.696   9.633  -0.397  0.00  0.00    +0.011 C 
ATOM     17  C   UNL     1       0.223   9.509   0.052  0.00  0.00    +0.043 C 
ENDBRANCH   5   7
BRANCH   1  18
ATOM     18  C   UNL     1       2.490   1.040  -0.017  0.00  0.00    -0.043 C 
BRANCH  18  20
ATOM     19  C   UNL     1       1.976  -0.108  -2.085  0.00  0.00    -0.095 C 
ATOM     20  N   UNL     1       2.903   0.807  -1.407  0.00  0.00    +0.384 N 
ATOM     21  H   UNL     1       2.872   1.772  -1.935  0.00  0.00    -0.081 HD
BRANCH  20  22
ATOM     22  C   UNL     1       4.282   0.303  -1.470  0.00  0.00    -0.021 C 
BRANCH  22  23
ATOM     23  C   UNL     1       4.754   0.308  -2.900  0.00  0.00    +0.047 A 
ATOM     24  C   UNL     1       5.485   1.329  -3.519  0.00  0.00    +0.046 A 
ATOM     25  C   UNL     1       5.717   0.957  -4.799  0.00  0.00    +0.039 A 
ATOM     26  N   UNL     1       5.146  -0.251  -4.987  0.00  0.00    -0.281 N 
ATOM     27  H   UNL     1       5.210  -0.743  -5.969  0.00  0.00    +0.189 HD
ATOM     28  N   UNL     1       4.548  -0.637  -3.781  0.00  0.00    -0.181 NA
BRANCH  25  29
ATOM     29  C   UNL     1       6.472   1.753  -5.832  0.00  0.00    +0.037 C 
ATOM     30  C   UNL     1       6.008   1.645  -7.286  0.00  0.00    +0.010 C 
ATOM     31  C   UNL     1       7.312   0.976  -6.847  0.00  0.00    +0.010 C 
ENDBRANCH  25  29
ENDBRANCH  22  23
ENDBRANCH  20  22
ENDBRANCH  18  20
ENDBRANCH   1  18
TORSDOF 6
