REMARK  Name = ZINC63853880
REMARK  11 active torsions:
REMARK  status: ('A' for Active; 'I' for Inactive)
REMARK    1  A    between atoms: C_1  and  O_2
REMARK    2  A    between atoms: O_2  and  C_3
REMARK    3  A    between atoms: C_6  and  C_9
REMARK    4  A    between atoms: C_11  and  C_14
REMARK    5  A    between atoms: C_14  and  C_15
REMARK    6  A    between atoms: N_17  and  C_18
REMARK    7  A    between atoms: C_18  and  C_20
REMARK    8  A    between atoms: C_18  and  C_30
REMARK    9  A    between atoms: C_20  and  C_21
REMARK   10  A    between atoms: C_30  and  O_32
REMARK   11  A    between atoms: O_32  and  C_33
REMARK                            x       y       z     vdW  Elec       q    Type
REMARK                         _______ _______ _______ _____ _____    ______ ____
ROOT
ATOM      1  C   UNL     1      -6.030  -6.485  -1.109  0.00  0.00    +0.220 C 
ATOM      2  O   UNL     1      -5.372  -5.807  -1.870  0.00  0.00    -0.275 OA
ATOM      3  N   UNL     1      -6.132  -7.814  -1.306  0.00  0.00    -0.302 N 
ATOM      4  H   UNL     1      -6.658  -8.356  -0.698  0.00  0.00    +0.150 HD
ENDROOT
BRANCH   1   5
ATOM      5  C   UNL     1      -6.735  -5.840   0.057  0.00  0.00    +0.151 C 
BRANCH   5   8
ATOM      6  C   UNL     1      -4.959  -2.618   0.036  0.00  0.00    +0.109 A 
ATOM      7  N   UNL     1      -5.226  -3.916   0.042  0.00  0.00    -0.243 NA
ATOM      8  C   UNL     1      -6.462  -4.357   0.051  0.00  0.00    +0.058 A 
ATOM      9  C   UNL     1      -7.496  -3.475   0.054  0.00  0.00    +0.071 A 
ATOM     10  S   UNL     1      -6.607  -1.924   0.050  0.00  0.00    -0.075 S 
BRANCH   6  14
ATOM     11  C   UNL     1      -1.200  -0.637   0.010  0.00  0.00    +0.120 A 
ATOM     12  C   UNL     1      -2.374   0.105   0.020  0.00  0.00    +0.046 A 
ATOM     13  C   UNL     1      -3.595  -0.534   0.028  0.00  0.00    +0.014 A 
ATOM     14  C   UNL     1      -3.651  -1.929   0.027  0.00  0.00    +0.007 A 
ATOM     15  C   UNL     1      -2.469  -2.671   0.017  0.00  0.00    +0.014 A 
ATOM     16  C   UNL     1      -1.252  -2.025   0.003  0.00  0.00    +0.046 A 
BRANCH  11  18
ATOM     17  C   UNL     1      -0.017   1.425   0.010  0.00  0.00    +0.277 C 
ATOM     18  O   UNL     1       0.002  -0.004   0.002  0.00  0.00    -0.495 OA
ENDBRANCH  11  18
ENDBRANCH   6  14
ENDBRANCH   5   8
ENDBRANCH   1   5
BRANCH   3  19
ATOM     19  C   UNL     1      -5.447  -8.441  -2.439  0.00  0.00    +0.186 C 
BRANCH  19  20
ATOM     20  C   UNL     1      -6.313  -8.339  -3.668  0.00  0.00    +0.328 C 
ATOM     21  O   UNL     1      -7.391  -7.797  -3.604  0.00  0.00    -0.249 OA
BRANCH  20  22
ATOM     22  O   UNL     1      -5.886  -8.849  -4.835  0.00  0.00    -0.467 OA
ATOM     23  C   UNL     1      -6.759  -8.716  -5.959  0.00  0.00    +0.280 C 
ENDBRANCH  20  22
ENDBRANCH  19  20
BRANCH  19  24
ATOM     24  C   UNL     1      -5.182  -9.914  -2.123  0.00  0.00    +0.067 C 
BRANCH  24  25
ATOM     25  C   UNL     1      -4.218 -10.015  -0.970  0.00  0.00    -0.039 C 
ATOM     26  C   UNL     1      -4.528 -10.170   0.338  0.00  0.00    -0.001 A 
ATOM     27  C   UNL     1      -5.806 -10.284   1.050  0.00  0.00    +0.010 A 
ATOM     28  C   UNL     1      -5.797 -10.433   2.394  0.00  0.00    +0.001 A 
ATOM     29  C   UNL     1      -4.601 -10.480   3.123  0.00  0.00    +0.002 A 
ATOM     30  C   UNL     1      -3.387 -10.382   2.539  0.00  0.00    +0.026 A 
ATOM     31  C   UNL     1      -3.278 -10.223   1.130  0.00  0.00    +0.043 A 
ATOM     32  N   UNL     1      -2.237 -10.106   0.343  0.00  0.00    -0.380 N 
ATOM     33  C   UNL     1      -2.708  -9.971  -1.040  0.00  0.00    +0.144 C 
ATOM     34  H   UNL     1      -1.309 -10.111   0.626  0.00  0.00    +0.160 HD
ENDBRANCH  24  25
ENDBRANCH  19  24
ENDBRANCH   3  19
TORSDOF 9
