REMARK  Name = ZINC01434066
REMARK  9 active torsions:
REMARK  status: ('A' for Active; 'I' for Inactive)
REMARK    1  A    between atoms: C_1  and  C_2
REMARK    2  A    between atoms: C_6  and  C_9
REMARK    3  A    between atoms: C_7  and  O_8
REMARK    4  A    between atoms: N_10  and  N_11
REMARK    5  A    between atoms: C_12  and  C_14
REMARK    6  A    between atoms: C_14  and  O_15
REMARK    7  A    between atoms: O_15  and  C_16
REMARK    8  A    between atoms: C_19  and  O_23
REMARK    9  A    between atoms: O_23  and  C_24
REMARK                            x       y       z     vdW  Elec       q    Type
REMARK                         _______ _______ _______ _____ _____    ______ ____
ROOT
ATOM      1  N   UNL     1       2.088   4.348   0.005  0.00  0.00    -0.204 N 
ATOM      2  C   UNL     1       1.030   3.513   0.011  0.00  0.00    +0.270 C 
ATOM      3  O   UNL     1      -0.097   3.961   0.024  0.00  0.00    -0.270 OA
ATOM      4  H   UNL     1       2.989   3.990  -0.005  0.00  0.00    +0.177 HD
ENDROOT
BRANCH   1   6
ATOM      5  C   UNL     1       2.904   6.539   0.009  0.00  0.00    +0.142 C 
ATOM      6  N   UNL     1       1.885   5.735   0.015  0.00  0.00    -0.188 NA
BRANCH   5  12
ATOM      7  C   UNL     1      -0.196  10.458   0.060  0.00  0.00    +0.047 C 
ATOM      8  C   UNL     1       1.201   9.892   0.044  0.00  0.00    -0.007 A 
ATOM      9  C   UNL     1       2.290  10.742   0.038  0.00  0.00    +0.022 A 
ATOM     10  C   UNL     1       3.578  10.231   0.023  0.00  0.00    +0.019 A 
ATOM     11  C   UNL     1       3.784   8.867   0.013  0.00  0.00    +0.028 A 
ATOM     12  C   UNL     1       2.691   7.998   0.019  0.00  0.00    +0.037 A 
ATOM     13  C   UNL     1       1.390   8.520   0.029  0.00  0.00    +0.128 A 
ATOM     14 BR   UNL     1       5.058  11.408   0.016  0.00  0.00    -0.050 Br
BRANCH  13  15
ATOM     15  O   UNL     1       0.320   7.684   0.028  0.00  0.00    -0.506 OA
ATOM     16  H   UNL     1       0.014   7.436   0.912  0.00  0.00    +0.292 HD
ENDBRANCH  13  15
ENDBRANCH   5  12
ENDBRANCH   1   6
BRANCH   2  17
ATOM     17  C   UNL     1       1.248   2.022   0.001  0.00  0.00    +0.326 C 
BRANCH  17  18
ATOM     18  O   UNL     1      -0.016   1.356   0.009  0.00  0.00    -0.482 OA
BRANCH  18  19
ATOM     19  C   UNL     1       0.002  -0.004   0.002  0.00  0.00    +0.135 A 
ATOM     20  C   UNL     1       1.212  -0.681  -0.013  0.00  0.00    +0.050 A 
ATOM     21  C   UNL     1       1.231  -2.062  -0.021  0.00  0.00    +0.049 A 
ATOM     22  C   UNL     1       0.040  -2.773  -0.013  0.00  0.00    +0.121 A 
ATOM     23  C   UNL     1      -1.171  -2.096   0.003  0.00  0.00    +0.064 A 
ATOM     24  C   UNL     1      -1.190  -0.714   0.015  0.00  0.00    +0.063 A 
ATOM     25 BR   UNL     1      -2.840   0.208   0.044  0.00  0.00    -0.046 Br
BRANCH  22  26
ATOM     26  O   UNL     1       0.059  -4.132  -0.020  0.00  0.00    -0.495 OA
ATOM     27  C   UNL     1      -1.205  -4.799  -0.011  0.00  0.00    +0.277 C 
ENDBRANCH  22  26
ENDBRANCH  18  19
ENDBRANCH  17  18
ENDBRANCH   2  17
TORSDOF 7
