REMARK  Name = ZINC39205163
REMARK  7 active torsions:
REMARK  status: ('A' for Active; 'I' for Inactive)
REMARK    1  A    between atoms: C_1  and  C_2
REMARK    2  A    between atoms: C_7  and  C_12
REMARK    3  A    between atoms: C_12  and  C_30
REMARK    4  A    between atoms: C_13  and  C_14
REMARK    5  A    between atoms: C_17  and  O_20
REMARK    6  A    between atoms: O_20  and  C_21
REMARK    7  A    between atoms: C_21  and  C_22
REMARK                            x       y       z     vdW  Elec       q    Type
REMARK                         _______ _______ _______ _____ _____    ______ ____
ROOT
ATOM      1  C   UNL     1       1.214  -5.496   1.475  0.00  0.00    +0.072 C 
ATOM      2  C   UNL     1       1.214  -6.264   2.584  0.00  0.00    +0.026 C 
ENDROOT
BRANCH   1   9
ATOM      3  C   UNL     1       0.327   0.011  -2.736  0.00  0.00    +0.044 C 
ATOM      4  C   UNL     1       0.074  -1.303  -2.043  0.00  0.00    -0.048 A 
ATOM      5  C   UNL     1      -0.617  -2.311  -2.740  0.00  0.00    +0.005 A 
ATOM      6  C   UNL     1      -0.886  -3.515  -2.197  0.00  0.00    +0.027 A 
ATOM      7  C   UNL     1      -0.450  -3.806  -0.824  0.00  0.00    +0.060 A 
ATOM      8  N   UNL     1      -0.568  -4.854  -0.061  0.00  0.00    -0.359 N 
ATOM      9  C   UNL     1       0.077  -4.540   1.221  0.00  0.00    +0.216 C 
ATOM     10  N   UNL     1       0.587  -3.169   1.103  0.00  0.00    -0.359 N 
ATOM     11  C   UNL     1       0.281  -2.739  -0.087  0.00  0.00    +0.061 A 
ATOM     12  C   UNL     1       0.523  -1.467  -0.783  0.00  0.00    +0.030 A 
ATOM     13  H   UNL     1      -1.002  -5.689  -0.295  0.00  0.00    +0.162 HD
ATOM     14  H   UNL     1       1.065  -2.673   1.787  0.00  0.00    +0.162 HD
ENDBRANCH   1   9
BRANCH   2  15
ATOM     15  C   UNL     1       2.395  -7.076   2.917  0.00  0.00    -0.024 A 
ATOM     16  C   UNL     1       3.680  -6.582   2.666  0.00  0.00    +0.011 A 
ATOM     17  C   UNL     1       4.782  -7.345   2.980  0.00  0.00    +0.046 A 
ATOM     18  C   UNL     1       4.620  -8.605   3.543  0.00  0.00    +0.121 A 
ATOM     19  C   UNL     1       3.346  -9.101   3.793  0.00  0.00    +0.046 A 
ATOM     20  C   UNL     1       2.237  -8.343   3.489  0.00  0.00    +0.011 A 
BRANCH  18  21
ATOM     21  O   UNL     1       5.710  -9.355   3.850  0.00  0.00    -0.487 OA
BRANCH  21  22
ATOM     22  C   UNL     1       5.472 -10.640   4.426  0.00  0.00    +0.266 C 
BRANCH  22  23
ATOM     23  C   UNL     1       6.789 -11.321   4.697  0.00  0.00    +0.008 A 
ATOM     24  C   UNL     1       7.974 -10.679   4.390  0.00  0.00    +0.010 A 
ATOM     25  C   UNL     1       9.182 -11.303   4.638  0.00  0.00    +0.020 A 
ATOM     26  C   UNL     1       9.206 -12.570   5.194  0.00  0.00    +0.042 A 
ATOM     27  C   UNL     1       8.020 -13.212   5.502  0.00  0.00    +0.040 A 
ATOM     28  C   UNL     1       6.811 -12.585   5.258  0.00  0.00    +0.049 A 
ATOM     29 CL   UNL     1       5.323 -13.388   5.649  0.00  0.00    -0.083 Cl
ATOM     30 CL   UNL     1      10.724 -13.353   5.505  0.00  0.00    -0.083 Cl
ENDBRANCH  22  23
ENDBRANCH  21  22
ENDBRANCH  18  21
ENDBRANCH   2  15
BRANCH   1  31
ATOM     31  C   UNL     1       2.294  -5.590   0.539  0.00  0.00    +0.099 C 
ATOM     32  N   UNL     1       3.151  -5.663  -0.203  0.00  0.00    -0.191 NA
ENDBRANCH   1  31
TORSDOF 6
