REMARK  Name = ZINC62363299
REMARK  8 active torsions:
REMARK  status: ('A' for Active; 'I' for Inactive)
REMARK    1  A    between atoms: C_1  and  C_2
REMARK    2  A    between atoms: N_5  and  C_8
REMARK    3  A    between atoms: C_8  and  C_10
REMARK    4  A    between atoms: C_8  and  C_21
REMARK    5  A    between atoms: C_10  and  N_11
REMARK    6  A    between atoms: N_11  and  S_12
REMARK    7  A    between atoms: S_12  and  N_15
REMARK    8  A    between atoms: N_15  and  C_16
REMARK                            x       y       z     vdW  Elec       q    Type
REMARK                         _______ _______ _______ _____ _____    ______ ____
ROOT
ATOM      1  C   UNL     1       1.845  -3.896  -0.118  0.00  0.00    -0.022 C 
ENDROOT
BRANCH   1   6
ATOM      2  C   UNL     1      -0.176   1.437  -0.041  0.00  0.00    +0.007 C 
ATOM      3  C   UNL     1      -0.068  -0.088  -0.110  0.00  0.00    -0.018 C 
ATOM      4  C   UNL     1       0.812  -0.486  -1.298  0.00  0.00    -0.015 C 
ATOM      5  C   UNL     1       0.981  -2.007  -1.314  0.00  0.00    -0.078 C 
ATOM      6  N   UNL     1       1.615  -2.446  -0.065  0.00  0.00    +0.385 N 
ATOM      7  C   UNL     1       0.743  -2.131   1.073  0.00  0.00    -0.078 C 
ATOM      8  C   UNL     1       0.565  -0.616   1.181  0.00  0.00    -0.015 C 
ATOM      9  H   UNL     1       2.498  -1.971   0.048  0.00  0.00    -0.081 HD
ENDBRANCH   1   6
BRANCH   1  10
ATOM     10  C   UNL     1       2.679  -4.228  -1.328  0.00  0.00    -0.060 A 
ATOM     11  C   UNL     1       3.732  -3.409  -1.688  0.00  0.00    +0.002 A 
ATOM     12  C   UNL     1       4.497  -3.714  -2.799  0.00  0.00    +0.000 A 
ATOM     13  C   UNL     1       4.209  -4.838  -3.549  0.00  0.00    +0.000 A 
ATOM     14  C   UNL     1       3.156  -5.659  -3.188  0.00  0.00    +0.000 A 
ATOM     15  C   UNL     1       2.394  -5.356  -2.075  0.00  0.00    +0.002 A 
ENDBRANCH   1  10
BRANCH   1  16
ATOM     16  C   UNL     1       2.582  -4.341   1.147  0.00  0.00    +0.096 C 
BRANCH  16  17
ATOM     17  N   UNL     1       2.729  -5.799   1.138  0.00  0.00    -0.181 NA
ATOM     18  H   UNL     1       2.186  -6.338   0.543  0.00  0.00    +0.149 HD
BRANCH  17  19
ATOM     19  S   UNL     1       3.825  -6.526   2.145  0.00  0.00    +0.095 S 
ATOM     20  O   UNL     1       3.713  -7.925   1.924  0.00  0.00    -0.141 OA
ATOM     21  O   UNL     1       5.051  -5.825   1.986  0.00  0.00    -0.141 OA
BRANCH  19  22
ATOM     22  N   UNL     1       3.320  -6.251   3.698  0.00  0.00    -0.177 NA
ATOM     23  H   UNL     1       3.861  -5.710   4.295  0.00  0.00    +0.149 HD
BRANCH  22  24
ATOM     24  C   UNL     1       2.058  -6.824   4.171  0.00  0.00    +0.078 C 
ATOM     25  C   UNL     1       2.329  -8.126   4.954  0.00  0.00    +0.020 C 
ATOM     26  C   UNL     1       2.367  -7.676   6.436  0.00  0.00    +0.002 C 
ATOM     27  C   UNL     1       1.253  -6.603   6.496  0.00  0.00    +0.002 C 
ATOM     28  C   UNL     1       1.373  -5.856   5.151  0.00  0.00    +0.020 C 
ENDBRANCH  22  24
ENDBRANCH  19  22
ENDBRANCH  17  19
ENDBRANCH  16  17
ENDBRANCH   1  16
TORSDOF 7
