REMARK  Name = ZINC13248082
REMARK  11 active torsions:
REMARK  status: ('A' for Active; 'I' for Inactive)
REMARK    1  A    between atoms: C_1  and  C_2
REMARK    2  A    between atoms: C_4  and  C_29
REMARK    3  A    between atoms: C_6  and  S_9
REMARK    4  A    between atoms: C_7  and  C_8
REMARK    5  A    between atoms: S_9  and  N_12
REMARK    6  A    between atoms: N_12  and  C_13
REMARK    7  A    between atoms: N_12  and  C_24
REMARK    8  A    between atoms: C_13  and  C_14
REMARK    9  A    between atoms: C_17  and  S_20
REMARK   10  A    between atoms: S_20  and  N_23
REMARK   11  A    between atoms: C_24  and  C_25
REMARK                            x       y       z     vdW  Elec       q    Type
REMARK                         _______ _______ _______ _____ _____    ______ ____
ROOT
ATOM      1  N   UNL     1      -5.858   1.114   1.586  0.00  0.00    -0.164 NA
ENDROOT
BRANCH   1   2
ATOM      2  S   UNL     1      -5.217   0.920   0.072  0.00  0.00    +0.062 S 
ATOM      3  O   UNL     1      -6.073   1.615  -0.824  0.00  0.00    -0.153 OA
ATOM      4  O   UNL     1      -4.925  -0.463  -0.072  0.00  0.00    -0.153 OA
BRANCH   2  10
ATOM      5  C   UNL     1      -2.393   5.309   0.355  0.00  0.00    +0.044 C 
ATOM      6  C   UNL     1      -2.424   3.812   0.187  0.00  0.00    -0.045 A 
ATOM      7  C   UNL     1      -1.246   3.113   0.023  0.00  0.00    +0.018 A 
ATOM      8  C   UNL     1      -1.276   1.727  -0.139  0.00  0.00    +0.065 A 
ATOM      9  C   UNL     1      -2.501   1.055  -0.121  0.00  0.00    +0.044 A 
ATOM     10  C   UNL     1      -3.671   1.765   0.049  0.00  0.00    +0.109 A 
ATOM     11  C   UNL     1      -3.633   3.140   0.203  0.00  0.00    -0.021 A 
ATOM     12  C   UNL     1      -4.916   3.909   0.388  0.00  0.00    +0.046 C 
BRANCH   8  13
ATOM     13  C   UNL     1      -0.019   0.973  -0.321  0.00  0.00    +0.387 C 
ATOM     14  O   UNL     1      -0.049  -0.234  -0.456  0.00  0.00    -0.241 OA
ATOM     15  O   UNL     1       1.160   1.624  -0.342  0.00  0.00    -0.241 OA
ENDBRANCH   8  13
ENDBRANCH   2  10
ENDBRANCH   1   2
BRANCH   1  16
ATOM     16  C   UNL     1      -6.863   2.152   1.829  0.00  0.00    +0.144 C 
BRANCH  16  17
ATOM     17  C   UNL     1      -8.236   1.531   1.838  0.00  0.00    -0.032 A 
ATOM     18  C   UNL     1      -8.959   1.438   0.663  0.00  0.00    +0.007 A 
ATOM     19  C   UNL     1     -10.217   0.864   0.670  0.00  0.00    +0.029 A 
ATOM     20  C   UNL     1     -10.755   0.392   1.853  0.00  0.00    +0.105 A 
ATOM     21  C   UNL     1     -10.033   0.489   3.028  0.00  0.00    +0.029 A 
ATOM     22  C   UNL     1      -8.774   1.059   3.020  0.00  0.00    +0.007 A 
BRANCH  20  23
ATOM     23  S   UNL     1     -12.359  -0.336   1.863  0.00  0.00    +0.056 S 
ATOM     24  O   UNL     1     -12.602  -0.802   0.543  0.00  0.00    -0.153 OA
ATOM     25  O   UNL     1     -12.410  -1.193   2.995  0.00  0.00    -0.153 OA
BRANCH  23  26
ATOM     26  N   UNL     1     -13.447   0.881   2.142  0.00  0.00    -0.204 NA
ATOM     27  H   UNL     1     -13.136   1.792   2.262  0.00  0.00    +0.144 HD
ATOM     28  H   UNL     1     -14.396   0.684   2.184  0.00  0.00    +0.144 HD
ENDBRANCH  23  26
ENDBRANCH  20  23
ENDBRANCH  16  17
ENDBRANCH   1  16
BRANCH   1  29
ATOM     29  C   UNL     1      -5.421   0.246   2.683  0.00  0.00    +0.223 C 
BRANCH  29  30
ATOM     30  C   UNL     1      -4.304   0.938   3.466  0.00  0.00    +0.404 C 
ATOM     31  F   UNL     1      -4.779   2.146   3.988  0.00  0.00    -0.169 F 
ATOM     32  F   UNL     1      -3.887   0.110   4.514  0.00  0.00    -0.169 F 
ATOM     33  F   UNL     1      -3.224   1.191   2.613  0.00  0.00    -0.169 F 
ENDBRANCH  29  30
ENDBRANCH   1  29
TORSDOF 9
