REMARK  Name = ZINC43705104
REMARK  3 active torsions:
REMARK  status: ('A' for Active; 'I' for Inactive)
REMARK    1  A    between atoms: C_1  and  C_2
REMARK    2  A    between atoms: C_2  and  N_3
REMARK    3  A    between atoms: C_11  and  C_12
REMARK                            x       y       z     vdW  Elec       q    Type
REMARK                         _______ _______ _______ _____ _____    ______ ____
ROOT
ATOM      1  N   UNL     1      -1.372  -0.511   0.012  0.00  0.00    -0.326 N 
ATOM      2  C   UNL     1      -2.132  -0.795   1.131  0.00  0.00    +0.069 A 
ATOM      3  C   UNL     1      -1.904  -0.716   2.498  0.00  0.00    +0.029 A 
ATOM      4  C   UNL     1      -2.895  -1.085   3.381  0.00  0.00    +0.017 A 
ATOM      5  C   UNL     1      -4.123  -1.535   2.913  0.00  0.00    +0.020 A 
ATOM      6  C   UNL     1      -4.366  -1.620   1.560  0.00  0.00    +0.045 A 
ATOM      7  C   UNL     1      -3.371  -1.250   0.651  0.00  0.00    +0.090 A 
ATOM      8  N   UNL     1      -3.306  -1.222  -0.705  0.00  0.00    -0.230 NA
ATOM      9  C   UNL     1      -2.139  -0.784  -1.077  0.00  0.00    +0.138 A 
ATOM     10 BR   UNL     1      -5.469  -2.037   4.142  0.00  0.00    -0.050 Br
ENDROOT
BRANCH   9  11
ATOM     11  C   UNL     1      -1.699  -0.610  -2.508  0.00  0.00    +0.167 C 
ATOM     12  C   UNL     1      -1.403  -1.980  -3.123  0.00  0.00    -0.043 C 
ATOM     13  N   UNL     1      -1.031  -1.811  -4.534  0.00  0.00    +0.382 N 
ATOM     14  C   UNL     1      -2.140  -1.177  -5.260  0.00  0.00    -0.054 C 
ATOM     15  C   UNL     1      -2.435   0.192  -4.641  0.00  0.00    +0.142 C 
ATOM     16  O   UNL     1      -2.740   0.027  -3.254  0.00  0.00    -0.373 OA
ATOM     17  H   UNL     1      -0.210  -1.228  -4.598  0.00  0.00    -0.086 HD
ATOM     18  H   UNL     1      -0.835  -2.714  -4.941  0.00  0.00    -0.086 HD
ENDBRANCH   9  11
BRANCH   1  20
ATOM     19  C   UNL     1      -0.019   1.526   0.010  0.00  0.00    +0.027 C 
ATOM     20  C   UNL     1       0.002  -0.004   0.002  0.00  0.00    +0.120 C 
ENDBRANCH   1  20
TORSDOF 2
