REMARK  Name = ZINC03450331
REMARK  11 active torsions:
REMARK  status: ('A' for Active; 'I' for Inactive)
REMARK    1  A    between atoms: C_1  and  C_2
REMARK    2  A    between atoms: C_2  and  C_4
REMARK    3  A    between atoms: C_2  and  O_34
REMARK    4  A    between atoms: C_4  and  C_6
REMARK    5  A    between atoms: C_4  and  N_23
REMARK    6  A    between atoms: C_6  and  O_8
REMARK    7  A    between atoms: O_8  and  C_9
REMARK    8  A    between atoms: C_9  and  C_10
REMARK    9  A    between atoms: C_10  and  C_12
REMARK   10  A    between atoms: N_23  and  S_24
REMARK   11  A    between atoms: S_24  and  C_27
REMARK                            x       y       z     vdW  Elec       q    Type
REMARK                         _______ _______ _______ _____ _____    ______ ____
ROOT
ATOM      1  C   UNL     1       7.705   0.227  -5.873  0.00  0.00    +0.329 C 
ATOM      2  O   UNL     1       7.949   1.395  -5.684  0.00  0.00    -0.249 OA
ENDROOT
BRANCH   1   3
ATOM      3  C   UNL     1       8.545  -0.573  -6.836  0.00  0.00    +0.213 C 
BRANCH   3   5
ATOM      4  C   UNL     1      10.150  -2.477  -7.040  0.00  0.00    +0.040 C 
ATOM      5  C   UNL     1       9.200  -1.739  -6.094  0.00  0.00    +0.141 C 
BRANCH   5   6
ATOM      6  O   UNL     1       9.935  -1.239  -4.975  0.00  0.00    -0.390 OA
ATOM      7  H   UNL     1      10.640  -0.620  -5.212  0.00  0.00    +0.210 HD
ENDBRANCH   5   6
ENDBRANCH   3   5
BRANCH   3   8
ATOM      8  N   UNL     1       9.583   0.287  -7.408  0.00  0.00    -0.174 NA
ATOM      9  H   UNL     1       9.991   0.982  -6.867  0.00  0.00    +0.149 HD
BRANCH   8  10
ATOM     10  S   UNL     1      10.062   0.074  -8.979  0.00  0.00    +0.059 S 
ATOM     11  O   UNL     1      11.048   1.063  -9.241  0.00  0.00    -0.153 OA
ATOM     12  O   UNL     1      10.315  -1.315  -9.141  0.00  0.00    -0.153 OA
BRANCH  10  13
ATOM     13  C   UNL     1       8.680   0.457 -10.002  0.00  0.00    +0.105 A 
ATOM     14  C   UNL     1       7.788  -0.537 -10.360  0.00  0.00    +0.030 A 
ATOM     15  C   UNL     1       6.701  -0.236 -11.157  0.00  0.00    +0.022 A 
ATOM     16  C   UNL     1       6.510   1.058 -11.607  0.00  0.00    +0.041 A 
ATOM     17  C   UNL     1       7.406   2.052 -11.253  0.00  0.00    +0.022 A 
ATOM     18  C   UNL     1       8.490   1.751 -10.451  0.00  0.00    +0.030 A 
ATOM     19 CL   UNL     1       5.148   1.436 -12.614  0.00  0.00    -0.084 Cl
ENDBRANCH  10  13
ENDBRANCH   8  10
ENDBRANCH   3   8
ENDBRANCH   1   3
BRANCH   1  20
ATOM     20  O   UNL     1       6.686  -0.359  -5.225  0.00  0.00    -0.455 OA
BRANCH  20  21
ATOM     21  C   UNL     1       5.920   0.471  -4.313  0.00  0.00    +0.311 C 
BRANCH  21  22
ATOM     22  C   UNL     1       4.826  -0.351  -3.683  0.00  0.00    +0.200 C 
ATOM     23  O   UNL     1       4.704  -1.523  -3.973  0.00  0.00    -0.288 OA
BRANCH  22  24
ATOM     24  C   UNL     1       3.907   0.265  -2.716  0.00  0.00    +0.023 A 
ATOM     25  C   UNL     1       4.046   1.617  -2.380  0.00  0.00    +0.015 A 
ATOM     26  C   UNL     1       3.184   2.195  -1.475  0.00  0.00    +0.048 A 
ATOM     27  C   UNL     1       2.176   1.440  -0.893  0.00  0.00    +0.142 A 
ATOM     28  C   UNL     1       2.031   0.089  -1.223  0.00  0.00    +0.076 A 
ATOM     29  C   UNL     1       2.890  -0.498  -2.129  0.00  0.00    +0.038 A 
ATOM     30  N   UNL     1       1.006  -0.657  -0.623  0.00  0.00    -0.280 N 
ATOM     31  C   UNL     1       0.002  -0.004   0.002  0.00  0.00    +0.255 C 
ATOM     32  O   UNL     1      -0.880  -0.628   0.553  0.00  0.00    -0.272 OA
ATOM     33  C   UNL     1      -0.018   1.503   0.010  0.00  0.00    +0.325 C 
ATOM     34  O   UNL     1       1.321   2.002   0.000  0.00  0.00    -0.481 OA
ATOM     35  H   UNL     1       1.019  -1.626  -0.655  0.00  0.00    +0.155 HD
ENDBRANCH  22  24
ENDBRANCH  21  22
ENDBRANCH  20  21
ENDBRANCH   1  20
TORSDOF 10
