REMARK  Name = ZINC32824118
REMARK  7 active torsions:
REMARK  status: ('A' for Active; 'I' for Inactive)
REMARK    1  A    between atoms: C_4  and  N_7
REMARK    2  A    between atoms: C_8  and  C_10
REMARK    3  A    between atoms: C_10  and  N_11
REMARK    4  A    between atoms: N_11  and  C_12
REMARK    5  A    between atoms: N_11  and  S_18
REMARK    6  A    between atoms: C_12  and  C_13
REMARK    7  A    between atoms: S_18  and  C_21
REMARK                            x       y       z     vdW  Elec       q    Type
REMARK                         _______ _______ _______ _____ _____    ______ ____
ROOT
ATOM      1  N   UNL     1       1.079   0.053  -0.433  0.00  0.00    -0.160 NA
ENDROOT
BRANCH   1   2
ATOM      2  S   UNL     1       2.202  -0.070   0.777  0.00  0.00    +0.063 S 
ATOM      3  O   UNL     1       3.341   0.663   0.350  0.00  0.00    -0.153 OA
ATOM      4  O   UNL     1       1.523   0.217   1.992  0.00  0.00    -0.153 OA
BRANCH   2   5
ATOM      5  C   UNL     1       2.693  -1.760   0.862  0.00  0.00    +0.127 A 
ATOM      6  C   UNL     1       2.396  -2.618  -0.182  0.00  0.00    +0.077 A 
ATOM      7  C   UNL     1       2.785  -3.943  -0.118  0.00  0.00    +0.144 A 
ATOM      8  C   UNL     1       3.467  -4.414   1.004  0.00  0.00    +0.077 A 
ATOM      9  C   UNL     1       3.758  -3.553   2.049  0.00  0.00    +0.049 A 
ATOM     10  C   UNL     1       3.370  -2.226   1.975  0.00  0.00    +0.069 A 
ATOM     11 CL   UNL     1       3.733  -1.144   3.283  0.00  0.00    -0.081 Cl
ATOM     12  N   UNL     1       3.850  -5.761   1.058  0.00  0.00    -0.280 N 
ATOM     13  C   UNL     1       3.840  -6.491  -0.078  0.00  0.00    +0.255 C 
ATOM     14  O   UNL     1       4.139  -7.666  -0.050  0.00  0.00    -0.272 OA
ATOM     15  C   UNL     1       3.457  -5.839  -1.382  0.00  0.00    +0.325 C 
ATOM     16  O   UNL     1       2.507  -4.798  -1.138  0.00  0.00    -0.481 OA
ATOM     17  H   UNL     1       4.152  -6.209   2.017  0.00  0.00    +0.155 HD
ENDBRANCH   2   5
ENDBRANCH   1   2
BRANCH   1  18
ATOM     18  C   UNL     1      -0.331  -0.236  -0.157  0.00  0.00    +0.205 C 
BRANCH  18  20
ATOM     19  N   UNL     1      -2.363   1.020   0.484  0.00  0.00    -0.284 N 
ATOM     20  C   UNL     1      -1.047   1.042   0.195  0.00  0.00    +0.233 C 
ATOM     21  O   UNL     1      -0.439   2.092   0.214  0.00  0.00    -0.274 OA
ATOM     22  H   UNL     1      -2.932   0.084   0.383  0.00  0.00    +0.155 HD
BRANCH  19  26
ATOM     23  C   UNL     1      -4.275   4.494   1.760  0.00  0.00    +0.000 A 
ATOM     24  C   UNL     1      -4.963   3.568   0.998  0.00  0.00    +0.002 A 
ATOM     25  C   UNL     1      -4.332   2.415   0.574  0.00  0.00    +0.023 A 
ATOM     26  C   UNL     1      -3.005   2.187   0.912  0.00  0.00    +0.033 A 
ATOM     27  C   UNL     1      -2.318   3.116   1.682  0.00  0.00    +0.023 A 
ATOM     28  C   UNL     1      -2.953   4.270   2.099  0.00  0.00    +0.002 A 
ENDBRANCH  19  26
ENDBRANCH  18  20
ENDBRANCH   1  18
BRANCH   1  29
ATOM     29  C   UNL     1       1.494   0.452  -1.781  0.00  0.00    +0.184 C 
BRANCH  29  30
ATOM     30  C   UNL     1       1.306   1.938  -1.945  0.00  0.00    +0.120 A 
ATOM     31  C   UNL     1       2.223   2.882  -1.668  0.00  0.00    +0.046 A 
ATOM     32  C   UNL     1       1.629   4.130  -1.967  0.00  0.00    +0.041 A 
ATOM     33  C   UNL     1       0.385   3.873  -2.409  0.00  0.00    +0.195 A 
ATOM     34  O   UNL     1       0.197   2.544  -2.399  0.00  0.00    -0.466 OA
ENDBRANCH  29  30
ENDBRANCH   1  29
TORSDOF 7
