REMARK  Name = ZINC01418922
REMARK  8 active torsions:
REMARK  status: ('A' for Active; 'I' for Inactive)
REMARK    1  A    between atoms: N_9  and  C_10
REMARK    2  A    between atoms: C_10  and  C_11
REMARK    3  A    between atoms: N_13  and  C_14
REMARK    4  A    between atoms: N_13  and  C_22
REMARK    5  A    between atoms: C_14  and  C_15
REMARK    6  A    between atoms: C_22  and  C_24
REMARK    7  A    between atoms: C_22  and  C_31
REMARK    8  A    between atoms: N_33  and  C_34
REMARK                            x       y       z     vdW  Elec       q    Type
REMARK                         _______ _______ _______ _____ _____    ______ ____
ROOT
ATOM      1  C   UNL     1      -1.891  -1.104   1.313  0.00  0.00    +0.238 C 
ATOM      2  O   UNL     1      -1.190  -1.239   2.293  0.00  0.00    -0.274 OA
ATOM      3  N   UNL     1      -1.414  -0.466   0.226  0.00  0.00    -0.284 N 
ENDROOT
BRANCH   1   4
ATOM      4  C   UNL     1      -3.296  -1.650   1.311  0.00  0.00    +0.241 C 
BRANCH   4  13
ATOM      5  C   UNL     1      -5.237  -0.750   6.123  0.00  0.00    +0.002 A 
ATOM      6  C   UNL     1      -5.125   0.167   5.086  0.00  0.00    +0.002 A 
ATOM      7  C   UNL     1      -4.598  -0.207   3.882  0.00  0.00    +0.029 A 
ATOM      8  C   UNL     1      -4.170  -1.517   3.691  0.00  0.00    +0.090 A 
ATOM      9  C   UNL     1      -4.280  -2.449   4.737  0.00  0.00    +0.113 A 
ATOM     10  C   UNL     1      -4.824  -2.040   5.962  0.00  0.00    +0.032 A 
ATOM     11  N   UNL     1      -3.798  -3.626   4.290  0.00  0.00    -0.129 NA
ATOM     12  N   UNL     1      -3.406  -3.512   3.070  0.00  0.00    -0.064 NA
ATOM     13  N   UNL     1      -3.611  -2.195   2.634  0.00  0.00    -0.235 N 
ENDBRANCH   4  13
ENDBRANCH   1   4
BRANCH   3  14
ATOM     14  C   UNL     1      -2.298  -0.195  -0.910  0.00  0.00    +0.143 C 
BRANCH  14  15
ATOM     15  C   UNL     1      -2.869   1.194  -0.782  0.00  0.00    -0.030 A 
ATOM     16  C   UNL     1      -3.966   1.418   0.029  0.00  0.00    +0.008 A 
ATOM     17  C   UNL     1      -4.487   2.693   0.151  0.00  0.00    +0.038 A 
ATOM     18  C   UNL     1      -3.916   3.743  -0.548  0.00  0.00    +0.123 A 
ATOM     19  C   UNL     1      -2.821   3.517  -1.363  0.00  0.00    +0.038 A 
ATOM     20  C   UNL     1      -2.298   2.243  -1.480  0.00  0.00    +0.008 A 
ATOM     21  F   UNL     1      -4.427   4.988  -0.433  0.00  0.00    -0.205 F 
ENDBRANCH  14  15
ENDBRANCH   3  14
BRANCH   3  22
ATOM     22  C   UNL     1      -0.012  -0.045   0.180  0.00  0.00    +0.166 C 
BRANCH  22  23
ATOM     23  C   UNL     1       0.059   1.480   0.071  0.00  0.00    +0.023 C 
ATOM     24  C   UNL     1       1.521   1.935   0.151  0.00  0.00    +0.010 C 
ATOM     25  C   UNL     1       1.578   3.436  -0.139  0.00  0.00    +0.027 C 
ATOM     26  C   UNL     1       0.566   4.163   0.698  0.00  0.00    -0.031 C 
ATOM     27  C   UNL     1      -0.432   3.589   1.291  0.00  0.00    -0.031 C 
ATOM     28  C   UNL     1      -0.710   2.115   1.232  0.00  0.00    +0.032 C 
ENDBRANCH  22  23
BRANCH  22  29
ATOM     29  C   UNL     1       0.661  -0.666  -1.016  0.00  0.00    +0.238 C 
ATOM     30  O   UNL     1       0.001  -0.996  -1.979  0.00  0.00    -0.273 OA
ATOM     31  N   UNL     1       1.995  -0.855  -1.016  0.00  0.00    -0.284 N 
ATOM     32  H   UNL     1       2.531  -0.533  -0.275  0.00  0.00    +0.155 HD
BRANCH  31  33
ATOM     33  C   UNL     1       2.609  -1.517  -2.088  0.00  0.00    +0.037 A 
ATOM     34  C   UNL     1       3.705  -2.338  -1.861  0.00  0.00    +0.027 A 
ATOM     35  C   UNL     1       4.308  -2.995  -2.916  0.00  0.00    +0.051 A 
ATOM     36  C   UNL     1       3.828  -2.829  -4.205  0.00  0.00    +0.166 A 
ATOM     37  C   UNL     1       2.731  -2.002  -4.437  0.00  0.00    +0.168 A 
ATOM     38  C   UNL     1       2.124  -1.348  -3.378  0.00  0.00    +0.072 A 
ATOM     39  O   UNL     1       2.456  -2.006  -5.774  0.00  0.00    -0.453 OA
ATOM     40  C   UNL     1       3.643  -2.519  -6.409  0.00  0.00    +0.466 C 
ATOM     41  O   UNL     1       4.239  -3.352  -5.398  0.00  0.00    -0.453 OA
ENDBRANCH  31  33
ENDBRANCH  22  29
ENDBRANCH   3  22
TORSDOF 8
