REMARK  Name = ZINC51544496
REMARK  7 active torsions:
REMARK  status: ('A' for Active; 'I' for Inactive)
REMARK    1  A    between atoms: C_1  and  C_2
REMARK    2  A    between atoms: C_5  and  O_10
REMARK    3  A    between atoms: C_6  and  O_8
REMARK    4  A    between atoms: O_8  and  C_9
REMARK    5  A    between atoms: O_10  and  C_11
REMARK    6  A    between atoms: C_12  and  C_18
REMARK    7  A    between atoms: C_18  and  N_19
REMARK                            x       y       z     vdW  Elec       q    Type
REMARK                         _______ _______ _______ _____ _____    ______ ____
ROOT
ATOM      1  C   UNL     1      -1.111  -4.788   0.178  0.00  0.00    +0.222 A 
ATOM      2  C   UNL     1      -1.115  -6.173   0.284  0.00  0.00    -0.002 A 
ATOM      3  C   UNL     1      -2.314  -6.829   0.497  0.00  0.00    +0.023 A 
ATOM      4  C   UNL     1      -3.474  -6.071   0.598  0.00  0.00    +0.036 A 
ATOM      5  C   UNL     1      -3.396  -4.697   0.483  0.00  0.00    +0.130 A 
ATOM      6  N   UNL     1      -2.236  -4.100   0.285  0.00  0.00    -0.220 NA
ATOM      7 BR   UNL     1      -5.143  -6.913   0.889  0.00  0.00    -0.049 Br
ENDROOT
BRANCH   1   8
ATOM      8  O   UNL     1       0.059  -4.133  -0.030  0.00  0.00    -0.434 OA
BRANCH   8  13
ATOM      9  C   UNL     1      -0.051   1.500  -0.177  0.00  0.00    +0.044 C 
ATOM     10  C   UNL     1      -0.022  -0.006  -0.135  0.00  0.00    -0.047 A 
ATOM     11  C   UNL     1      -0.108  -0.730  -1.310  0.00  0.00    +0.007 A 
ATOM     12  C   UNL     1      -0.081  -2.112  -1.277  0.00  0.00    +0.050 A 
ATOM     13  C   UNL     1       0.033  -2.774  -0.065  0.00  0.00    +0.172 A 
ATOM     14  C   UNL     1       0.120  -2.045   1.117  0.00  0.00    +0.162 A 
ATOM     15  C   UNL     1       0.097  -0.660   1.077  0.00  0.00    +0.052 A 
BRANCH  14  16
ATOM     16  O   UNL     1       0.232  -2.689   2.309  0.00  0.00    -0.491 OA
ATOM     17  C   UNL     1       0.316  -1.877   3.482  0.00  0.00    +0.277 C 
ENDBRANCH  14  16
ENDBRANCH   8  13
ENDBRANCH   1   8
BRANCH   2  18
ATOM     18  C   UNL     1       0.171  -6.951   0.167  0.00  0.00    -0.045 C 
BRANCH  18  19
ATOM     19  N   UNL     1       0.894  -6.896   1.445  0.00  0.00    +0.381 N 
ATOM     20  H   UNL     1       1.102  -5.936   1.673  0.00  0.00    -0.090 HD
ATOM     21  H   UNL     1       0.322  -7.298   2.172  0.00  0.00    -0.090 HD
ATOM     22  H   UNL     1       1.754  -7.417   1.367  0.00  0.00    -0.090 HD
ENDBRANCH  18  19
ENDBRANCH   2  18
TORSDOF 5
