REMARK  Name = ZINC01398781
REMARK  2 active torsions:
REMARK  status: ('A' for Active; 'I' for Inactive)
REMARK    1  A    between atoms: C_4  and  S_7
REMARK    2  A    between atoms: S_7  and  N_10
REMARK                            x       y       z     vdW  Elec       q    Type
REMARK                         _______ _______ _______ _____ _____    ______ ____
ROOT
ATOM      1  N   UNL     1       4.378  -1.079   1.536  0.00  0.00    -0.174 NA
ATOM      2  C   UNL     1       5.191  -0.083   2.248  0.00  0.00    +0.128 C 
ATOM      3  C   UNL     1       4.454   0.324   3.531  0.00  0.00    +0.124 C 
ATOM      4  N   UNL     1       4.042  -0.895   4.242  0.00  0.00    -0.307 N 
ATOM      5  C   UNL     1       3.229  -1.890   3.529  0.00  0.00    +0.124 C 
ATOM      6  C   UNL     1       3.961  -2.294   2.248  0.00  0.00    +0.128 C 
ATOM      7  C   UNL     1       4.412  -1.100   5.556  0.00  0.00    +0.162 A 
ATOM      8  N   UNL     1       5.123  -0.326   6.342  0.00  0.00    -0.225 NA
ATOM      9  C   UNL     1       5.411  -0.657   7.620  0.00  0.00    +0.080 A 
ATOM     10  C   UNL     1       6.160   0.080   8.565  0.00  0.00    +0.029 A 
ATOM     11  C   UNL     1       6.361  -0.405   9.832  0.00  0.00    +0.002 A 
ATOM     12  C   UNL     1       5.840  -1.627  10.231  0.00  0.00    +0.001 A 
ATOM     13  C   UNL     1       5.101  -2.374   9.332  0.00  0.00    +0.017 A 
ATOM     14  C   UNL     1       4.896  -1.897   8.062  0.00  0.00    +0.041 A 
ATOM     15  S   UNL     1       4.038  -2.485   6.622  0.00  0.00    -0.052 S 
ENDROOT
BRANCH   1  16
ATOM     16  S   UNL     1       3.934  -0.832  -0.041  0.00  0.00    +0.061 S 
ATOM     17  O   UNL     1       3.674  -2.114  -0.595  0.00  0.00    -0.153 OA
ATOM     18  O   UNL     1       4.890   0.060  -0.597  0.00  0.00    -0.153 OA
BRANCH  16  22
ATOM     19  C   UNL     1      -0.017   1.378   0.010  0.00  0.00    +0.000 A 
ATOM     20  C   UNL     1       1.171   2.086   0.002  0.00  0.00    +0.002 A 
ATOM     21  C   UNL     1       2.377   1.411  -0.013  0.00  0.00    +0.028 A 
ATOM     22  C   UNL     1       2.396   0.029  -0.020  0.00  0.00    +0.105 A 
ATOM     23  C   UNL     1       1.208  -0.679  -0.012  0.00  0.00    +0.028 A 
ATOM     24  C   UNL     1       0.002  -0.004   0.002  0.00  0.00    +0.002 A 
ENDBRANCH  16  22
ENDBRANCH   1  16
TORSDOF 2
