REMARK  Name = ZINC43527326
REMARK  11 active torsions:
REMARK  status: ('A' for Active; 'I' for Inactive)
REMARK    1  A    between atoms: C_1  and  O_2
REMARK    2  A    between atoms: O_2  and  C_3
REMARK    3  A    between atoms: C_3  and  C_4
REMARK    4  A    between atoms: C_4  and  N_5
REMARK    5  A    between atoms: N_5  and  C_6
REMARK    6  A    between atoms: C_6  and  N_8
REMARK    7  A    between atoms: N_8  and  C_9
REMARK    8  A    between atoms: C_9  and  C_10
REMARK    9  A    between atoms: C_19  and  C_21
REMARK   10  A    between atoms: C_21  and  N_22
REMARK   11  A    between atoms: N_25  and  C_28
REMARK                            x       y       z     vdW  Elec       q    Type
REMARK                         _______ _______ _______ _____ _____    ______ ____
ROOT
ATOM      1  C   UNL     1       1.236  -5.910   4.183  0.00  0.00    -0.051 C 
ATOM      2  C   UNL     1       1.616  -7.381   4.365  0.00  0.00    -0.010 C 
ATOM      3  C   UNL     1       3.134  -7.479   4.563  0.00  0.00    -0.015 C 
ATOM      4  C   UNL     1       3.822  -6.894   3.323  0.00  0.00    -0.015 C 
ATOM      5  C   UNL     1       3.374  -5.441   3.150  0.00  0.00    -0.078 C 
ATOM      6  N   UNL     1       2.435  -5.072   4.255  0.00  0.00    +0.383 N 
ATOM      7  C   UNL     1       3.077  -5.200   5.565  0.00  0.00    -0.076 C 
ATOM      8  C   UNL     1       3.517  -6.646   5.794  0.00  0.00    -0.041 C 
ATOM      9  H   UNL     1       2.159  -4.109   4.136  0.00  0.00    -0.081 HD
ENDROOT
BRANCH   1  10
ATOM     10  C   UNL     1       0.566  -5.723   2.820  0.00  0.00    +0.088 C 
BRANCH  10  11
ATOM     11  N   UNL     1       0.304  -4.300   2.595  0.00  0.00    -0.328 N 
ATOM     12  H   UNL     1       0.554  -3.648   3.269  0.00  0.00    +0.148 HD
BRANCH  11  13
ATOM     13  C   UNL     1      -0.284  -3.895   1.452  0.00  0.00    +0.130 C 
ATOM     14  S   UNL     1      -0.725  -5.045   0.263  0.00  0.00    -0.019 S 
BRANCH  13  15
ATOM     15  N   UNL     1      -0.525  -2.585   1.246  0.00  0.00    -0.324 N 
ATOM     16  H   UNL     1      -0.275  -1.934   1.919  0.00  0.00    +0.148 HD
BRANCH  15  17
ATOM     17  C   UNL     1      -1.164  -2.145   0.003  0.00  0.00    +0.131 C 
BRANCH  17  18
ATOM     18  C   UNL     1      -1.321  -0.623   0.021  0.00  0.00    +0.178 C 
BRANCH  18  20
ATOM     19  C   UNL     1      -0.063   1.417   0.035  0.00  0.00    +0.194 C 
ATOM     20  O   UNL     1      -0.029  -0.011   0.019  0.00  0.00    -0.381 OA
ENDBRANCH  18  20
ENDBRANCH  17  18
ENDBRANCH  15  17
ENDBRANCH  13  15
ENDBRANCH  11  13
ENDBRANCH  10  11
ENDBRANCH   1  10
BRANCH   8  21
ATOM     21  C   UNL     1       5.032  -6.694   5.995  0.00  0.00    -0.077 C 
BRANCH  21  22
ATOM     22  N   UNL     1       5.384  -5.996   7.239  0.00  0.00    +0.382 N 
ATOM     23  C   UNL     1       4.808  -6.716   8.381  0.00  0.00    -0.060 C 
ATOM     24  C   UNL     1       5.076  -5.929   9.668  0.00  0.00    +0.086 C 
ATOM     25  N   UNL     1       6.523  -5.684   9.772  0.00  0.00    -0.333 N 
ATOM     26  C   UNL     1       7.215  -5.113   8.606  0.00  0.00    +0.086 C 
ATOM     27  C   UNL     1       6.845  -5.939   7.369  0.00  0.00    -0.060 C 
ATOM     28  H   UNL     1       5.013  -5.058   7.213  0.00  0.00    -0.082 HD
BRANCH  25  29
ATOM     29  C   UNL     1       7.219  -5.985  10.944  0.00  0.00    +0.030 A 
ATOM     30  C   UNL     1       8.602  -5.852  10.986  0.00  0.00    +0.023 A 
ATOM     31  C   UNL     1       9.287  -6.150  12.147  0.00  0.00    +0.002 A 
ATOM     32  C   UNL     1       8.600  -6.580  13.267  0.00  0.00    +0.000 A 
ATOM     33  C   UNL     1       7.224  -6.713  13.229  0.00  0.00    +0.002 A 
ATOM     34  C   UNL     1       6.531  -6.411  12.073  0.00  0.00    +0.023 A 
ENDBRANCH  25  29
ENDBRANCH  21  22
ENDBRANCH   8  21
TORSDOF 10
