REMARK  Name = ZINC60244223
REMARK  6 active torsions:
REMARK  status: ('A' for Active; 'I' for Inactive)
REMARK    1  A    between atoms: C_3  and  S_29
REMARK    2  A    between atoms: C_6  and  C_7
REMARK    3  A    between atoms: C_7  and  N_8
REMARK    4  A    between atoms: N_11  and  S_14
REMARK    5  A    between atoms: S_14  and  C_17
REMARK    6  A    between atoms: S_29  and  C_30
REMARK                            x       y       z     vdW  Elec       q    Type
REMARK                         _______ _______ _______ _____ _____    ______ ____
ROOT
ATOM      1  N   UNL     1      -1.728  -1.016  -1.372  0.00  0.00    -0.296 NA
ATOM      2  C   UNL     1      -2.066   0.244  -2.047  0.00  0.00    +0.102 C 
ATOM      3  C   UNL     1      -2.337  -0.030  -3.529  0.00  0.00    +0.125 C 
ATOM      4  N   UNL     1      -3.360  -1.083  -3.630  0.00  0.00    -0.174 NA
ATOM      5  C   UNL     1      -3.156  -2.325  -2.869  0.00  0.00    +0.125 C 
ATOM      6  C   UNL     1      -2.853  -1.960  -1.413  0.00  0.00    +0.102 C 
ENDROOT
BRANCH   4   7
ATOM      7  S   UNL     1      -4.704  -0.875  -4.575  0.00  0.00    +0.061 S 
ATOM      8  O   UNL     1      -5.705  -1.737  -4.052  0.00  0.00    -0.153 OA
ATOM      9  O   UNL     1      -4.897   0.527  -4.703  0.00  0.00    -0.153 OA
BRANCH   7  10
ATOM     10  C   UNL     1      -4.309  -1.479  -6.182  0.00  0.00    +0.108 A 
ATOM     11  C   UNL     1      -3.760  -0.625  -7.123  0.00  0.00    +0.030 A 
ATOM     12  C   UNL     1      -3.447  -1.089  -8.386  0.00  0.00    +0.030 A 
ATOM     13  C   UNL     1      -3.684  -2.415  -8.713  0.00  0.00    +0.067 A 
ATOM     14  C   UNL     1      -4.238  -3.276  -7.763  0.00  0.00    +0.069 A 
ATOM     15  C   UNL     1      -4.543  -2.803  -6.496  0.00  0.00    +0.056 A 
ATOM     16  N   UNL     1      -4.356  -4.524  -8.372  0.00  0.00    -0.306 N 
ATOM     17  H   UNL     1      -4.710  -5.326  -7.958  0.00  0.00    +0.170 HD
ATOM     18  C   UNL     1      -3.895  -4.426  -9.633  0.00  0.00    +0.325 A 
ATOM     19  O   UNL     1      -3.858  -5.337 -10.438  0.00  0.00    -0.247 OA
ATOM     20  N   UNL     1      -3.483  -3.166  -9.868  0.00  0.00    -0.306 N 
ATOM     21  H   UNL     1      -3.109  -2.837 -10.701  0.00  0.00    +0.170 HD
ENDBRANCH   7  10
ENDBRANCH   4   7
BRANCH   1  22
ATOM     22  C   UNL     1      -1.294  -0.773   0.010  0.00  0.00    +0.119 C 
BRANCH  22  28
ATOM     23  C   UNL     1      -0.017   1.379   0.010  0.00  0.00    +0.006 A 
ATOM     24  C   UNL     1       1.169   2.087   0.002  0.00  0.00    +0.015 A 
ATOM     25  C   UNL     1       2.381   1.409  -0.013  0.00  0.00    +0.013 A 
ATOM     26  C   UNL     1       2.396   0.019  -0.021  0.00  0.00    +0.015 A 
ATOM     27  C   UNL     1       1.207  -0.683  -0.013  0.00  0.00    +0.006 A 
ATOM     28  C   UNL     1       0.002  -0.004   0.002  0.00  0.00    -0.033 A 
BRANCH  25  29
ATOM     29  S   UNL     1       3.897   2.308  -0.023  0.00  0.00    -0.056 S 
BRANCH  29  30
ATOM     30  C   UNL     1       5.172   1.019  -0.042  0.00  0.00    +0.404 C 
ATOM     31  F   UNL     1       5.043   0.218   1.097  0.00  0.00    -0.197 F 
ATOM     32  F   UNL     1       5.020   0.229  -1.187  0.00  0.00    -0.197 F 
ENDBRANCH  29  30
ENDBRANCH  25  29
ENDBRANCH  22  28
ENDBRANCH   1  22
TORSDOF 6
