REMARK  Name = ZINC35578623
REMARK  6 active torsions:
REMARK  status: ('A' for Active; 'I' for Inactive)
REMARK    1  A    between atoms: C_1  and  C_2
REMARK    2  A    between atoms: C_2  and  C_3
REMARK    3  A    between atoms: C_3  and  N_4
REMARK    4  A    between atoms: N_4  and  C_5
REMARK    5  A    between atoms: C_5  and  C_7
REMARK    6  A    between atoms: C_5  and  C_14
REMARK                            x       y       z     vdW  Elec       q    Type
REMARK                         _______ _______ _______ _____ _____    ______ ____
ROOT
ATOM      1  C   UNL     1      -2.792  -2.511   0.015  0.00  0.00    -0.008 C 
ENDROOT
BRANCH   1   2
ATOM      2  C   UNL     1      -2.691  -4.014   0.062  0.00  0.00    -0.042 A 
ATOM      3  C   UNL     1      -1.485  -4.635  -0.204  0.00  0.00    +0.018 A 
ATOM      4  C   UNL     1      -1.393  -6.014  -0.162  0.00  0.00    +0.018 A 
ATOM      5  C   UNL     1      -2.508  -6.772   0.147  0.00  0.00    +0.016 A 
ATOM      6  C   UNL     1      -3.713  -6.152   0.413  0.00  0.00    +0.016 A 
ATOM      7  C   UNL     1      -3.804  -4.772   0.376  0.00  0.00    +0.020 A 
ATOM      8 BR   UNL     1      -5.452  -3.923   0.748  0.00  0.00    -0.050 Br
ATOM      9 BR   UNL     1       0.257  -6.863  -0.527  0.00  0.00    -0.050 Br
ENDBRANCH   1   2
BRANCH   1  10
ATOM     10  C   UNL     1      -3.222  -2.079  -1.363  0.00  0.00    -0.043 A 
ATOM     11  C   UNL     1      -2.436  -2.380  -2.459  0.00  0.00    +0.003 A 
ATOM     12  C   UNL     1      -2.831  -1.984  -3.723  0.00  0.00    +0.000 A 
ATOM     13  C   UNL     1      -4.012  -1.286  -3.892  0.00  0.00    +0.001 A 
ATOM     14  C   UNL     1      -4.799  -0.984  -2.796  0.00  0.00    +0.015 A 
ATOM     15  C   UNL     1      -4.407  -1.385  -1.531  0.00  0.00    +0.020 A 
ATOM     16 BR   UNL     1      -5.486  -0.978  -0.033  0.00  0.00    -0.050 Br
ENDBRANCH   1  10
BRANCH   1  17
ATOM     17  N   UNL     1      -1.482  -1.923   0.326  0.00  0.00    +0.386 N 
ATOM     18  H   UNL     1      -0.823  -2.169  -0.397  0.00  0.00    -0.085 HD
ATOM     19  H   UNL     1      -1.156  -2.277   1.213  0.00  0.00    -0.085 HD
BRANCH  17  20
ATOM     20  C   UNL     1      -1.606  -0.461   0.399  0.00  0.00    -0.082 C 
BRANCH  20  22
ATOM     21  C   UNL     1      -0.372   1.674   0.798  0.00  0.00    +0.002 C 
ATOM     22  C   UNL     1      -0.242   0.152   0.723  0.00  0.00    -0.022 C 
ENDBRANCH  20  22
ENDBRANCH  17  20
ENDBRANCH   1  17
TORSDOF 5
