REMARK  Name = ZINC09427906
REMARK  4 active torsions:
REMARK  status: ('A' for Active; 'I' for Inactive)
REMARK    1  A    between atoms: C_1  and  C_2
REMARK    2  A    between atoms: C_5  and  C_8
REMARK    3  A    between atoms: C_19  and  C_20
REMARK    4  A    between atoms: C_27  and  C_30
REMARK                            x       y       z     vdW  Elec       q    Type
REMARK                         _______ _______ _______ _____ _____    ______ ____
ROOT
ATOM      1  C   UNL     1      -3.865   1.454   0.195  0.00  0.00    +0.050 C 
ATOM      2  C   UNL     1      -4.726   0.422   0.246  0.00  0.00    +0.072 C 
ATOM      3  S   UNL     1      -3.658  -0.968  -0.093  0.00  0.00    -0.060 S 
ATOM      4  C   UNL     1      -2.136  -0.063  -0.281  0.00  0.00    +0.166 C 
ATOM      5  N   UNL     1      -0.916  -0.426  -0.543  0.00  0.00    -0.225 NA
ATOM      6  C   UNL     1       0.134   0.437  -0.649  0.00  0.00    +0.071 C 
ATOM      7  C   UNL     1      -0.050   1.761  -0.483  0.00  0.00    -0.019 C 
ATOM      8  C   UNL     1       1.071   2.754  -0.600  0.00  0.00    +0.035 C 
ATOM      9  C   UNL     1       2.428   2.094  -0.370  0.00  0.00    +0.009 C 
ATOM     10  C   UNL     1       2.568   0.893  -1.316  0.00  0.00    +0.037 C 
ATOM     11  C   UNL     1       1.481  -0.096  -0.948  0.00  0.00    -0.021 C 
ATOM     12  C   UNL     1       1.733  -1.414  -0.894  0.00  0.00    +0.013 C 
ATOM     13  C   UNL     1      -1.447   2.256  -0.171  0.00  0.00    +0.139 C 
ATOM     14  N   UNL     1      -2.527   1.240  -0.074  0.00  0.00    -0.267 N 
ENDROOT
BRANCH   1  19
ATOM     15  C   UNL     1      -5.773   6.809   1.099  0.00  0.00    +0.044 C 
ATOM     16  C   UNL     1      -5.274   5.406   0.863  0.00  0.00    -0.050 A 
ATOM     17  C   UNL     1      -5.932   4.583  -0.033  0.00  0.00    +0.004 A 
ATOM     18  C   UNL     1      -5.480   3.298  -0.255  0.00  0.00    +0.010 A 
ATOM     19  C   UNL     1      -4.356   2.830   0.428  0.00  0.00    -0.003 A 
ATOM     20  C   UNL     1      -3.700   3.664   1.335  0.00  0.00    +0.010 A 
ATOM     21  C   UNL     1      -4.159   4.949   1.542  0.00  0.00    +0.004 A 
ENDBRANCH   1  19
BRANCH  12  22
ATOM     22  C   UNL     1       3.034  -1.935  -1.350  0.00  0.00    -0.025 A 
ATOM     23  C   UNL     1       3.719  -1.300  -2.389  0.00  0.00    +0.009 A 
ATOM     24  C   UNL     1       4.939  -1.789  -2.807  0.00  0.00    +0.020 A 
ATOM     25  C   UNL     1       5.479  -2.914  -2.207  0.00  0.00    +0.041 A 
ATOM     26  C   UNL     1       4.803  -3.552  -1.181  0.00  0.00    +0.020 A 
ATOM     27  C   UNL     1       3.585  -3.070  -0.749  0.00  0.00    +0.009 A 
ATOM     28 CL   UNL     1       7.012  -3.528  -2.744  0.00  0.00    -0.084 Cl
ENDBRANCH  12  22
BRANCH  13  29
ATOM     29  C   UNL     1      -1.833   3.249  -1.236  0.00  0.00    -0.022 A 
ATOM     30  C   UNL     1      -2.240   2.805  -2.480  0.00  0.00    +0.007 A 
ATOM     31  C   UNL     1      -2.600   3.716  -3.456  0.00  0.00    +0.020 A 
ATOM     32  C   UNL     1      -2.541   5.073  -3.191  0.00  0.00    +0.041 A 
ATOM     33  C   UNL     1      -2.128   5.517  -1.947  0.00  0.00    +0.020 A 
ATOM     34  C   UNL     1      -1.774   4.605  -0.971  0.00  0.00    +0.007 A 
ATOM     35 CL   UNL     1      -2.987   6.218  -4.417  0.00  0.00    -0.084 Cl
ENDBRANCH  13  29
TORSDOF 3
