REMARK  Name = ZINC13174765
REMARK  11 active torsions:
REMARK  status: ('A' for Active; 'I' for Inactive)
REMARK    1  A    between atoms: C_1  and  C_2
REMARK    2  A    between atoms: C_6  and  C_36
REMARK    3  A    between atoms: C_7  and  N_8
REMARK    4  A    between atoms: C_9  and  C_11
REMARK    5  A    between atoms: C_11  and  S_12
REMARK    6  A    between atoms: S_12  and  C_13
REMARK    7  A    between atoms: C_14  and  C_34
REMARK    8  A    between atoms: C_15  and  C_25
REMARK    9  A    between atoms: C_28  and  O_33
REMARK   10  A    between atoms: C_29  and  O_31
REMARK   11  A    between atoms: O_31  and  C_32
REMARK                            x       y       z     vdW  Elec       q    Type
REMARK                         _______ _______ _______ _____ _____    ______ ____
ROOT
ATOM      1  C   UNL     1      -0.331   0.084   7.658  0.00  0.00    +0.112 C 
ATOM      2  C   UNL     1      -0.459  -0.489   8.912  0.00  0.00    +0.073 C 
ATOM      3  C   UNL     1      -0.511   0.450  10.104  0.00  0.00    +0.097 C 
ATOM      4  C   UNL     1      -0.415   1.929   9.784  0.00  0.00    +0.029 C 
ATOM      5  C   UNL     1      -0.449   2.833  10.777  0.00  0.00    +0.162 C 
ATOM      6  C   UNL     1      -0.357   4.309  10.494  0.00  0.00    +0.080 C 
ATOM      7  C   UNL     1       0.464   4.531   9.221  0.00  0.00    +0.014 C 
ATOM      8  C   UNL     1      -0.194   3.767   8.069  0.00  0.00    +0.056 C 
ATOM      9  C   UNL     1      -0.290   2.304   8.434  0.00  0.00    +0.050 C 
ATOM     10  N   UNL     1      -0.250   1.404   7.483  0.00  0.00    -0.244 NA
ATOM     11  O   UNL     1      -0.568   2.411  12.051  0.00  0.00    -0.292 OA
ENDROOT
BRANCH   3  12
ATOM     12  C   UNL     1       0.624   0.098  11.031  0.00  0.00    -0.031 A 
ATOM     13  C   UNL     1       1.930   0.175  10.583  0.00  0.00    +0.008 A 
ATOM     14  C   UNL     1       2.975  -0.147  11.429  0.00  0.00    +0.049 A 
ATOM     15  C   UNL     1       2.714  -0.548  12.730  0.00  0.00    +0.158 A 
ATOM     16  C   UNL     1       1.400  -0.625  13.181  0.00  0.00    +0.162 A 
ATOM     17  C   UNL     1       0.358  -0.296  12.329  0.00  0.00    +0.054 A 
BRANCH  16  18
ATOM     18  O   UNL     1       1.139  -1.017  14.456  0.00  0.00    -0.491 OA
ATOM     19  C   UNL     1      -0.233  -1.073  14.850  0.00  0.00    +0.277 C 
ENDBRANCH  16  18
BRANCH  15  20
ATOM     20  O   UNL     1       3.741  -0.865  13.563  0.00  0.00    -0.503 OA
ATOM     21  H   UNL     1       4.080  -0.116  14.072  0.00  0.00    +0.292 HD
ENDBRANCH  15  20
ENDBRANCH   3  12
BRANCH   2  22
ATOM     22  C   UNL     1      -0.539  -1.909   9.078  0.00  0.00    +0.098 C 
ATOM     23  N   UNL     1      -0.602  -3.036   9.209  0.00  0.00    -0.191 NA
ENDBRANCH   2  22
BRANCH   1  24
ATOM     24  S   UNL     1      -0.266  -0.967   6.246  0.00  0.00    -0.096 S 
BRANCH  24  25
ATOM     25  C   UNL     1      -0.092   0.181   4.852  0.00  0.00    +0.172 C 
BRANCH  25  27
ATOM     26  N   UNL     1       0.107   0.050   2.390  0.00  0.00    -0.284 N 
ATOM     27  C   UNL     1      -0.024  -0.598   3.564  0.00  0.00    +0.227 C 
ATOM     28  O   UNL     1      -0.086  -1.810   3.585  0.00  0.00    -0.275 OA
ATOM     29  H   UNL     1       0.223   1.013   2.378  0.00  0.00    +0.155 HD
BRANCH  26  36
ATOM     30  C   UNL     1       2.558  -0.356   1.002  0.00  0.00    +0.045 C 
ATOM     31  C   UNL     1       1.248  -0.887   0.479  0.00  0.00    -0.029 A 
ATOM     32  C   UNL     1       1.214  -1.599  -0.704  0.00  0.00    +0.005 A 
ATOM     33  C   UNL     1       0.013  -2.087  -1.185  0.00  0.00    +0.001 A 
ATOM     34  C   UNL     1      -1.158  -1.863  -0.484  0.00  0.00    +0.005 A 
ATOM     35  C   UNL     1      -1.131  -1.152   0.700  0.00  0.00    -0.029 A 
ATOM     36  C   UNL     1       0.075  -0.666   1.188  0.00  0.00    +0.039 A 
ATOM     37  C   UNL     1      -2.407  -0.908   1.463  0.00  0.00    +0.045 C 
ENDBRANCH  26  36
ENDBRANCH  25  27
ENDBRANCH  24  25
ENDBRANCH   1  24
TORSDOF 8
