REMARK  Name = ZINC06675484
REMARK  5 active torsions:
REMARK  status: ('A' for Active; 'I' for Inactive)
REMARK    1  A    between atoms: C_10  and  C_11
REMARK    2  A    between atoms: C_11  and  C_12
REMARK    3  A    between atoms: C_15  and  S_24
REMARK    4  A    between atoms: N_16  and  N_17
REMARK    5  A    between atoms: C_18  and  C_19
REMARK                            x       y       z     vdW  Elec       q    Type
REMARK                         _______ _______ _______ _____ _____    ______ ____
ROOT
ATOM      1  C   UNL     1       3.776   2.123   0.590  0.00  0.00    +0.160 A 
ATOM      2  N   UNL     1       3.685   2.116  -0.711  0.00  0.00    -0.131 NA
ATOM      3  N   UNL     1       2.471   1.888  -1.067  0.00  0.00    -0.121 NA
ATOM      4  C   UNL     1       1.714   1.735  -0.005  0.00  0.00    +0.209 A 
ATOM      5  N   UNL     1       2.523   1.887   1.088  0.00  0.00    -0.191 N 
ENDROOT
BRANCH   5   6
ATOM      6  N   UNL     1       2.148   1.813   2.436  0.00  0.00    -0.168 NA
ATOM      7  C   UNL     1       2.184   0.672   3.060  0.00  0.00    +0.179 C 
BRANCH   7   8
ATOM      8  C   UNL     1       1.792   0.595   4.470  0.00  0.00    +0.147 A 
ATOM      9  C   UNL     1       1.784  -0.532   5.239  0.00  0.00    +0.051 A 
ATOM     10  C   UNL     1       1.341  -0.146   6.517  0.00  0.00    +0.042 A 
ATOM     11  C   UNL     1       1.102   1.181   6.470  0.00  0.00    +0.196 A 
ATOM     12  O   UNL     1       1.381   1.626   5.235  0.00  0.00    -0.462 OA
ENDBRANCH   7   8
ENDBRANCH   5   6
BRANCH   4  13
ATOM     13  S   UNL     1      -0.017   1.406   0.010  0.00  0.00    -0.102 S 
ATOM     14  H   UNL     1       0.002  -0.004   0.002  0.00  0.00    +0.110 HD
ENDBRANCH   4  13
BRANCH   1  15
ATOM     15  C   UNL     1       5.029   2.355   1.396  0.00  0.00    +0.114 C 
BRANCH  15  25
ATOM     16  C   UNL     1       3.264   5.602   4.937  0.00  0.00    +0.001 A 
ATOM     17  C   UNL     1       3.111   4.239   4.694  0.00  0.00    +0.001 A 
ATOM     18  C   UNL     1       3.727   3.641   3.638  0.00  0.00    +0.009 A 
ATOM     19  C   UNL     1       4.529   4.409   2.776  0.00  0.00    -0.014 A 
ATOM     20  C   UNL     1       4.684   5.796   3.023  0.00  0.00    -0.018 A 
ATOM     21  C   UNL     1       4.033   6.377   4.124  0.00  0.00    +0.008 A 
ATOM     22  C   UNL     1       5.487   6.563   2.162  0.00  0.00    +0.008 A 
ATOM     23  C   UNL     1       6.103   5.966   1.105  0.00  0.00    +0.001 A 
ATOM     24  C   UNL     1       5.956   4.601   0.866  0.00  0.00    +0.004 A 
ATOM     25  C   UNL     1       5.181   3.828   1.675  0.00  0.00    -0.032 A 
ENDBRANCH  15  25
ENDBRANCH   1  15
TORSDOF 5
