REMARK  Name = ZINC41097552
REMARK  3 active torsions:
REMARK  status: ('A' for Active; 'I' for Inactive)
REMARK    1  A    between atoms: C_4  and  C_7
REMARK    2  A    between atoms: C_12  and  C_19
REMARK    3  A    between atoms: N_13  and  C_14
REMARK                            x       y       z     vdW  Elec       q    Type
REMARK                         _______ _______ _______ _____ _____    ______ ____
ROOT
ATOM      1  C   UNL     1       4.598  -0.211   0.001  0.00  0.00    +0.184 A 
ATOM      2  N   UNL     1       5.907   0.064   0.103  0.00  0.00    -0.193 NA
ATOM      3  C   UNL     1       6.597  -1.054   0.095  0.00  0.00    +0.218 A 
ATOM      4  N   UNL     1       5.717  -2.088  -0.015  0.00  0.00    -0.181 N 
ATOM      5  N   UNL     1       4.437  -1.513  -0.069  0.00  0.00    -0.142 NA
ATOM      6  C   UNL     1       6.024  -3.441  -0.061  0.00  0.00    +0.166 C 
ATOM      7  N   UNL     1       6.192  -4.037  -1.217  0.00  0.00    -0.213 NA
ATOM      8  N   UNL     1       7.972  -1.162   0.183  0.00  0.00    -0.327 N 
ATOM      9  H   UNL     1       8.522  -0.363   0.188  0.00  0.00    +0.145 HD
ATOM     10  H   UNL     1       8.387  -2.037   0.241  0.00  0.00    +0.145 HD
ENDROOT
BRANCH   1  14
ATOM     11  C   UNL     1       1.471   2.669  -0.069  0.00  0.00    +0.000 A 
ATOM     12  C   UNL     1       2.787   3.083   0.035  0.00  0.00    +0.001 A 
ATOM     13  C   UNL     1       3.806   2.153   0.058  0.00  0.00    +0.011 A 
ATOM     14  C   UNL     1       3.507   0.794  -0.023  0.00  0.00    +0.021 A 
ATOM     15  C   UNL     1       2.180   0.383  -0.128  0.00  0.00    +0.011 A 
ATOM     16  C   UNL     1       1.169   1.322  -0.150  0.00  0.00    +0.001 A 
ENDBRANCH   1  14
BRANCH   6  17
ATOM     17  C   UNL     1       6.162  -4.210   1.192  0.00  0.00    +0.019 A 
ATOM     18  C   UNL     1       6.083  -3.560   2.426  0.00  0.00    +0.011 A 
ATOM     19  C   UNL     1       6.212  -4.284   3.593  0.00  0.00    +0.001 A 
ATOM     20  C   UNL     1       6.419  -5.651   3.543  0.00  0.00    +0.000 A 
ATOM     21  C   UNL     1       6.499  -6.301   2.324  0.00  0.00    +0.001 A 
ATOM     22  C   UNL     1       6.365  -5.591   1.149  0.00  0.00    +0.011 A 
ENDBRANCH   6  17
BRANCH   7  23
ATOM     23  C   UNL     1       6.085  -3.325  -2.370  0.00  0.00    +0.161 C 
ATOM     24  C   UNL     1       6.370  -3.903  -3.540  0.00  0.00    +0.143 C 
ATOM     25 CL   UNL     1       6.769  -5.591  -3.600  0.00  0.00    -0.067 Cl
ATOM     26 CL   UNL     1       6.340  -2.965  -5.001  0.00  0.00    -0.067 Cl
ATOM     27 CL   UNL     1       5.579  -1.665  -2.322  0.00  0.00    -0.059 Cl
ENDBRANCH   7  23
TORSDOF 3
