REMARK  Name = ZINC48733044
REMARK  5 active torsions:
REMARK  status: ('A' for Active; 'I' for Inactive)
REMARK    1  A    between atoms: C_3  and  O_12
REMARK    2  A    between atoms: C_6  and  S_7
REMARK    3  A    between atoms: S_7  and  N_10
REMARK    4  A    between atoms: O_12  and  C_13
REMARK    5  A    between atoms: C_13  and  C_14
REMARK                            x       y       z     vdW  Elec       q    Type
REMARK                         _______ _______ _______ _____ _____    ______ ____
ROOT
ATOM      1  C   UNL     1      -0.017   1.378   0.010  0.00  0.00    +0.032 A 
ATOM      2  C   UNL     1       1.170   2.087   0.002  0.00  0.00    +0.049 A 
ATOM      3  C   UNL     1       2.380   1.411  -0.013  0.00  0.00    +0.139 A 
ATOM      4  C   UNL     1       2.397   0.022  -0.021  0.00  0.00    +0.084 A 
ATOM      5  C   UNL     1       1.208  -0.682  -0.013  0.00  0.00    +0.052 A 
ATOM      6  C   UNL     1       0.002  -0.004   0.002  0.00  0.00    +0.107 A 
ATOM      7 CL   UNL     1       3.910  -0.828  -0.040  0.00  0.00    -0.080 Cl
ENDROOT
BRANCH   6   8
ATOM      8  S   UNL     1      -1.513  -0.904   0.012  0.00  0.00    +0.056 S 
ATOM      9  O   UNL     1      -1.220  -2.185   0.553  0.00  0.00    -0.153 OA
ATOM     10  O   UNL     1      -2.492  -0.044   0.577  0.00  0.00    -0.153 OA
BRANCH   8  11
ATOM     11  N   UNL     1      -1.949  -1.146  -1.567  0.00  0.00    -0.204 NA
ATOM     12  H   UNL     1      -2.458  -1.934  -1.814  0.00  0.00    +0.144 HD
ATOM     13  H   UNL     1      -1.696  -0.499  -2.244  0.00  0.00    +0.144 HD
ENDBRANCH   8  11
ENDBRANCH   6   8
BRANCH   3  14
ATOM     14  O   UNL     1       3.548   2.106  -0.021  0.00  0.00    -0.490 OA
BRANCH  14  15
ATOM     15  C   UNL     1       3.455   3.532  -0.013  0.00  0.00    +0.232 C 
BRANCH  15  16
ATOM     16  C   UNL     1       4.861   4.135  -0.024  0.00  0.00    +0.027 C 
ATOM     17  C   UNL     1       5.575   3.834   1.310  0.00  0.00    +0.007 C 
ATOM     18  C   UNL     1       6.393   5.117   1.601  0.00  0.00    +0.000 C 
ATOM     19  C   UNL     1       5.442   6.244   1.125  0.00  0.00    +0.000 C 
ATOM     20  C   UNL     1       4.776   5.667  -0.141  0.00  0.00    +0.007 C 
ENDBRANCH  15  16
ENDBRANCH  14  15
ENDBRANCH   3  14
TORSDOF 5
