REMARK  Name = ZINC67298432
REMARK  3 active torsions:
REMARK  status: ('A' for Active; 'I' for Inactive)
REMARK    1  A    between atoms: C_3  and  O_23
REMARK    2  A    between atoms: C_8  and  C_20
REMARK    3  A    between atoms: N_10  and  C_11
REMARK                            x       y       z     vdW  Elec       q    Type
REMARK                         _______ _______ _______ _____ _____    ______ ____
ROOT
ATOM      1  C   UNL     1      -0.181   1.306   1.480  0.00  0.00    +0.015 A 
ATOM      2  C   UNL     1       0.941   1.925   1.948  0.00  0.00    +0.046 A 
ATOM      3  C   UNL     1       2.156   1.244   1.994  0.00  0.00    +0.120 A 
ATOM      4  C   UNL     1       2.243  -0.068   1.554  0.00  0.00    +0.092 A 
ATOM      5  C   UNL     1       1.115  -0.709   1.071  0.00  0.00    +0.141 A 
ATOM      6  C   UNL     1      -0.118  -0.028   1.054  0.00  0.00    +0.018 A 
ATOM      7  C   UNL     1      -1.285  -0.693   0.599  0.00  0.00    +0.030 A 
ATOM      8  C   UNL     1      -1.217  -2.062   0.382  0.00  0.00    +0.097 A 
ATOM      9  C   UNL     1       0.066  -2.731   0.673  0.00  0.00    +0.212 A 
ATOM     10  N   UNL     1       0.112  -4.009   0.983  0.00  0.00    -0.323 N 
ATOM     11  O   UNL     1       1.196  -1.982   0.610  0.00  0.00    -0.438 OA
ATOM     12  H   UNL     1      -0.708  -4.523   1.047  0.00  0.00    +0.169 HD
ENDROOT
BRANCH  10  13
ATOM     13  C   UNL     1       1.317  -4.613   1.216  0.00  0.00    +0.079 A 
ATOM     14  C   UNL     1       2.361  -4.474   0.298  0.00  0.00    +0.048 A 
ATOM     15  C   UNL     1       3.574  -5.086   0.538  0.00  0.00    +0.043 A 
ATOM     16  C   UNL     1       3.759  -5.838   1.687  0.00  0.00    +0.023 A 
ATOM     17  C   UNL     1       2.730  -5.981   2.601  0.00  0.00    +0.042 A 
ATOM     18  C   UNL     1       1.512  -5.369   2.376  0.00  0.00    +0.147 A 
ATOM     19  F   UNL     1       0.510  -5.505   3.272  0.00  0.00    -0.203 F 
ATOM     20 CL   UNL     1       4.872  -4.914  -0.601  0.00  0.00    -0.083 Cl
ENDBRANCH  10  13
BRANCH   8  21
ATOM     21  C   UNL     1      -2.378  -2.816  -0.119  0.00  0.00    +0.247 C 
ATOM     22  O   UNL     1      -2.263  -3.994  -0.400  0.00  0.00    -0.270 OA
ATOM     23  N   UNL     1      -3.568  -2.201  -0.265  0.00  0.00    -0.325 N 
ATOM     24  H   UNL     1      -3.679  -1.282   0.025  0.00  0.00    +0.145 HD
ATOM     25  H   UNL     1      -4.315  -2.678  -0.661  0.00  0.00    +0.145 HD
ENDBRANCH   8  21
BRANCH   3  26
ATOM     26  O   UNL     1       3.261   1.869   2.473  0.00  0.00    -0.507 OA
ATOM     27  H   UNL     1       3.390   1.765   3.426  0.00  0.00    +0.292 HD
ENDBRANCH   3  26
TORSDOF 3
