REMARK  Name = ZINC17859627
REMARK  5 active torsions:
REMARK  status: ('A' for Active; 'I' for Inactive)
REMARK    1  A    between atoms: C_4  and  C_7
REMARK    2  A    between atoms: C_11  and  C_14
REMARK    3  A    between atoms: C_12  and  O_13
REMARK    4  A    between atoms: N_18  and  C_19
REMARK    5  A    between atoms: N_24  and  C_27
REMARK                            x       y       z     vdW  Elec       q    Type
REMARK                         _______ _______ _______ _____ _____    ______ ____
ROOT
ATOM      1  C   UNL     1       5.240  -5.478  -0.151  0.00  0.00    +0.102 C 
ATOM      2  N   UNL     1       4.795  -6.693  -0.282  0.00  0.00    -0.371 N 
ATOM      3  C   UNL     1       5.918  -7.624  -0.457  0.00  0.00    +0.133 C 
ATOM      4  C   UNL     1       7.168  -6.724  -0.407  0.00  0.00    +0.128 C 
ATOM      5  N   UNL     1       6.611  -5.375  -0.214  0.00  0.00    -0.303 N 
ATOM      6  H   UNL     1       3.859  -6.947  -0.267  0.00  0.00    +0.161 HD
ENDROOT
BRANCH   5   7
ATOM      7  C   UNL     1       7.383  -4.135  -0.103  0.00  0.00    +0.170 C 
ATOM      8  C   UNL     1       8.264  -3.931  -1.353  0.00  0.00    +0.128 C 
ATOM      9  C   UNL     1       9.672  -3.934  -0.799  0.00  0.00    +0.228 C 
ATOM     10  O   UNL     1      10.684  -3.800  -1.453  0.00  0.00    -0.275 OA
ATOM     11  N   UNL     1       9.623  -4.108   0.527  0.00  0.00    -0.209 N 
ATOM     12  C   UNL     1       8.384  -4.231   1.028  0.00  0.00    +0.247 C 
ATOM     13  O   UNL     1       8.109  -4.394   2.197  0.00  0.00    -0.273 OA
BRANCH  11  14
ATOM     14  C   UNL     1      10.773  -4.156   1.329  0.00  0.00    +0.044 A 
ATOM     15  C   UNL     1      11.572  -3.029   1.467  0.00  0.00    +0.024 A 
ATOM     16  C   UNL     1      12.703  -3.079   2.257  0.00  0.00    +0.002 A 
ATOM     17  C   UNL     1      13.041  -4.250   2.910  0.00  0.00    +0.000 A 
ATOM     18  C   UNL     1      12.247  -5.375   2.775  0.00  0.00    +0.002 A 
ATOM     19  C   UNL     1      11.111  -5.329   1.990  0.00  0.00    +0.024 A 
ENDBRANCH  11  14
ENDBRANCH   5   7
BRANCH   1  24
ATOM     20  C   UNL     1       1.983  -2.422   1.920  0.00  0.00    +0.015 C 
ATOM     21  C   UNL     1       2.848  -2.909   1.007  0.00  0.00    -0.005 C 
ATOM     22  C   UNL     1       3.205  -2.267  -0.315  0.00  0.00    +0.044 C 
ATOM     23  C   UNL     1       4.222  -3.229  -0.952  0.00  0.00    +0.047 C 
ATOM     24  C   UNL     1       4.389  -4.359   0.033  0.00  0.00    +0.032 C 
ATOM     25  C   UNL     1       3.611  -4.147   1.119  0.00  0.00    +0.126 C 
BRANCH  20  29
ATOM     26  C   UNL     1      -0.359   0.996   1.012  0.00  0.00    +0.000 A 
ATOM     27  C   UNL     1      -0.100   0.058   0.028  0.00  0.00    +0.001 A 
ATOM     28  C   UNL     1       0.661  -1.056   0.315  0.00  0.00    +0.008 A 
ATOM     29  C   UNL     1       1.171  -1.236   1.605  0.00  0.00    -0.025 A 
ATOM     30  C   UNL     1       0.904  -0.284   2.593  0.00  0.00    +0.008 A 
ATOM     31  C   UNL     1       0.142   0.825   2.290  0.00  0.00    +0.001 A 
ENDBRANCH  20  29
BRANCH  25  32
ATOM     32  O   UNL     1       3.547  -4.986   2.182  0.00  0.00    -0.506 OA
ATOM     33  H   UNL     1       3.001  -4.657   2.910  0.00  0.00    +0.292 HD
ENDBRANCH  25  32
ENDBRANCH   1  24
TORSDOF 5
