REMARK  Name = ZINC32640773
REMARK  7 active torsions:
REMARK  status: ('A' for Active; 'I' for Inactive)
REMARK    1  A    between atoms: C_1  and  C_2
REMARK    2  A    between atoms: C_5  and  C_8
REMARK    3  A    between atoms: C_8  and  S_9
REMARK    4  A    between atoms: S_9  and  C_10
REMARK    5  A    between atoms: N_21  and  C_22
REMARK    6  A    between atoms: C_25  and  C_29
REMARK    7  A    between atoms: C_27  and  C_28
REMARK                            x       y       z     vdW  Elec       q    Type
REMARK                         _______ _______ _______ _____ _____    ______ ____
ROOT
ATOM      1  C   UNL     1       4.285   2.527   1.087  0.00  0.00    +0.157 C 
ATOM      2  N   UNL     1       5.371   3.178   0.817  0.00  0.00    -0.256 NA
ATOM      3  C   UNL     1       5.537   3.295  -0.640  0.00  0.00    +0.151 C 
ATOM      4  C   UNL     1       5.607   4.789  -1.021  0.00  0.00    +0.194 C 
ATOM      5  S   UNL     1       3.840   5.149  -1.412  0.00  0.00    -0.027 S 
ATOM      6  O   UNL     1       3.130   5.389  -0.205  0.00  0.00    -0.174 OA
ATOM      7  O   UNL     1       3.775   6.098  -2.469  0.00  0.00    -0.174 OA
ATOM      8  C   UNL     1       3.396   3.479  -2.060  0.00  0.00    +0.191 C 
ATOM      9  C   UNL     1       4.319   2.566  -1.217  0.00  0.00    +0.128 C 
ATOM     10  N   UNL     1       3.583   2.123  -0.019  0.00  0.00    -0.273 N 
ENDROOT
BRANCH  10  11
ATOM     11  C   UNL     1       2.381   1.409  -0.013  0.00  0.00    +0.039 A 
ATOM     12  C   UNL     1       1.169   2.087   0.002  0.00  0.00    +0.024 A 
ATOM     13  C   UNL     1      -0.017   1.379   0.010  0.00  0.00    +0.005 A 
ATOM     14  C   UNL     1       0.002  -0.004   0.002  0.00  0.00    -0.050 A 
ATOM     15  C   UNL     1       1.207  -0.682  -0.013  0.00  0.00    +0.008 A 
ATOM     16  C   UNL     1       2.396   0.020  -0.020  0.00  0.00    -0.029 A 
ATOM     17  C   UNL     1       3.709  -0.720  -0.037  0.00  0.00    +0.045 C 
ATOM     18  C   UNL     1      -1.294  -0.774   0.011  0.00  0.00    +0.044 C 
ENDBRANCH  10  11
BRANCH   1  19
ATOM     19  S   UNL     1       3.755   2.191   2.733  0.00  0.00    -0.086 S 
BRANCH  19  20
ATOM     20  C   UNL     1       5.094   2.977   3.662  0.00  0.00    +0.112 C 
BRANCH  20  25
ATOM     21  C   UNL     1       4.144   2.341   9.326  0.00  0.00    +0.044 C 
ATOM     22  C   UNL     1       4.391   2.507   7.849  0.00  0.00    -0.050 A 
ATOM     23  C   UNL     1       5.117   1.554   7.159  0.00  0.00    +0.003 A 
ATOM     24  C   UNL     1       5.345   1.707   5.804  0.00  0.00    +0.005 A 
ATOM     25  C   UNL     1       4.846   2.811   5.139  0.00  0.00    -0.037 A 
ATOM     26  C   UNL     1       4.124   3.766   5.831  0.00  0.00    +0.005 A 
ATOM     27  C   UNL     1       3.893   3.612   7.185  0.00  0.00    +0.003 A 
ENDBRANCH  20  25
ENDBRANCH  19  20
ENDBRANCH   1  19
TORSDOF 4
