REMARK  Name = ZINC20766125
REMARK  7 active torsions:
REMARK  status: ('A' for Active; 'I' for Inactive)
REMARK    1  A    between atoms: C_1  and  C_2
REMARK    2  A    between atoms: C_5  and  C_8
REMARK    3  A    between atoms: C_18  and  S_20
REMARK    4  A    between atoms: S_20  and  N_23
REMARK    5  A    between atoms: N_23  and  C_24
REMARK    6  A    between atoms: C_29  and  O_30
REMARK    7  A    between atoms: O_30  and  C_31
REMARK                            x       y       z     vdW  Elec       q    Type
REMARK                         _______ _______ _______ _____ _____    ______ ____
ROOT
ATOM      1  C   UNL     1      -1.852   2.110   0.063  0.00  0.00    +0.251 C 
ATOM      2  O   UNL     1      -1.957   0.936   0.361  0.00  0.00    -0.270 OA
ATOM      3  N   UNL     1      -0.646   2.619  -0.257  0.00  0.00    -0.267 N 
ATOM      4  C   UNL     1      -0.495   4.048  -0.562  0.00  0.00    +0.114 C 
ATOM      5  C   UNL     1       0.387   4.170  -1.812  0.00  0.00    +0.024 C 
ATOM      6  C   UNL     1       1.773   3.608  -1.495  0.00  0.00    +0.038 C 
ATOM      7  C   UNL     1       1.660   2.232  -0.895  0.00  0.00    -0.024 A 
ATOM      8  C   UNL     1       0.486   1.794  -0.302  0.00  0.00    +0.040 A 
ATOM      9  C   UNL     1       0.419   0.521   0.252  0.00  0.00    +0.026 A 
ATOM     10  C   UNL     1       1.520  -0.311   0.208  0.00  0.00    +0.030 A 
ATOM     11  C   UNL     1       2.689   0.125  -0.387  0.00  0.00    +0.109 A 
ATOM     12  C   UNL     1       2.759   1.390  -0.937  0.00  0.00    +0.034 A 
ENDROOT
BRANCH   1  17
ATOM     13  C   UNL     1      -6.507   5.492   0.016  0.00  0.00    +0.044 C 
ATOM     14  C   UNL     1      -5.288   4.606   0.028  0.00  0.00    -0.050 A 
ATOM     15  C   UNL     1      -5.410   3.261  -0.276  0.00  0.00    +0.004 A 
ATOM     16  C   UNL     1      -4.298   2.445  -0.266  0.00  0.00    +0.013 A 
ATOM     17  C   UNL     1      -3.048   2.978   0.050  0.00  0.00    +0.037 A 
ATOM     18  C   UNL     1      -2.932   4.334   0.361  0.00  0.00    +0.013 A 
ATOM     19  C   UNL     1      -4.051   5.141   0.342  0.00  0.00    +0.004 A 
ENDBRANCH   1  17
BRANCH  11  20
ATOM     20  S   UNL     1       4.094  -0.937  -0.445  0.00  0.00    +0.072 S 
ATOM     21  O   UNL     1       5.234  -0.097  -0.570  0.00  0.00    -0.150 OA
ATOM     22  O   UNL     1       3.946  -1.866   0.620  0.00  0.00    -0.150 OA
BRANCH  20  23
ATOM     23  N   UNL     1       3.992  -1.808  -1.850  0.00  0.00    -0.213 N 
ATOM     24  H   UNL     1       3.933  -2.906  -1.814  0.00  0.00    +0.174 HD
BRANCH  23  25
ATOM     25  C   UNL     1       3.981  -1.147  -3.084  0.00  0.00    +0.091 A 
ATOM     26  C   UNL     1       4.684   0.038  -3.244  0.00  0.00    +0.048 A 
ATOM     27  C   UNL     1       4.671   0.689  -4.465  0.00  0.00    +0.043 A 
ATOM     28  C   UNL     1       3.959   0.160  -5.527  0.00  0.00    +0.024 A 
ATOM     29  C   UNL     1       3.257  -1.021  -5.373  0.00  0.00    +0.049 A 
ATOM     30  C   UNL     1       3.269  -1.681  -4.156  0.00  0.00    +0.142 A 
ATOM     31 CL   UNL     1       5.551   2.172  -4.664  0.00  0.00    -0.083 Cl
BRANCH  30  32
ATOM     32  O   UNL     1       2.583  -2.847  -4.005  0.00  0.00    -0.493 OA
ATOM     33  C   UNL     1       1.876  -3.335  -5.147  0.00  0.00    +0.277 C 
ENDBRANCH  30  32
ENDBRANCH  23  25
ENDBRANCH  20  23
ENDBRANCH  11  20
TORSDOF 5
