REMARK  Name = ZINC43746368
REMARK  6 active torsions:
REMARK  status: ('A' for Active; 'I' for Inactive)
REMARK    1  A    between atoms: C_1  and  C_2
REMARK    2  A    between atoms: C_18  and  C_20
REMARK    3  A    between atoms: C_20  and  N_21
REMARK    4  A    between atoms: N_21  and  C_22
REMARK    5  A    between atoms: C_22  and  C_23
REMARK    6  A    between atoms: C_23  and  C_24
REMARK                            x       y       z     vdW  Elec       q    Type
REMARK                         _______ _______ _______ _____ _____    ______ ____
ROOT
ATOM      1  C   UNL     1      -0.019   1.526   0.010  0.00  0.00    +0.011 C 
ATOM      2  C   UNL     1       0.002  -0.004   0.002  0.00  0.00    -0.023 C 
ATOM      3  C   UNL     1       0.715  -0.501  -1.255  0.00  0.00    +0.007 C 
ATOM      4  C   UNL     1       2.129   0.080  -1.314  0.00  0.00    +0.003 C 
ATOM      5  C   UNL     1       2.939  -0.425  -0.116  0.00  0.00    +0.037 C 
ATOM      6  C   UNL     1       2.201  -0.057   1.174  0.00  0.00    +0.096 C 
ATOM      7  C   UNL     1       0.744  -0.517   1.244  0.00  0.00    +0.030 C 
ATOM      8  C   UNL     1       0.081   0.101   2.475  0.00  0.00    +0.014 C 
ATOM      9  C   UNL     1      -1.378  -0.269   2.566  0.00  0.00    +0.042 C 
ATOM     10  C   UNL     1      -2.169  -0.011   1.268  0.00  0.00    +0.181 C 
ATOM     11  C   UNL     1      -1.427  -0.537   0.049  0.00  0.00    +0.052 C 
ATOM     12  O   UNL     1      -3.318  -0.882   1.460  0.00  0.00    -0.461 OA
ATOM     13  C   UNL     1      -2.864  -2.051   1.959  0.00  0.00    +0.309 C 
ATOM     14  O   UNL     1      -3.375  -3.134   1.794  0.00  0.00    -0.251 OA
ATOM     15  C   UNL     1      -1.602  -1.782   2.749  0.00  0.00    +0.087 C 
ATOM     16  C   UNL     1       2.570   1.259   1.857  0.00  0.00    +0.196 C 
ATOM     17  O   UNL     1       2.951  -0.014   2.386  0.00  0.00    -0.368 OA
ENDROOT
BRANCH  15  18
ATOM     18  C   UNL     1      -1.820  -2.121   4.225  0.00  0.00    -0.068 C 
BRANCH  18  19
ATOM     19  N   UNL     1      -1.911  -3.579   4.384  0.00  0.00    +0.380 N 
ATOM     20  H   UNL     1      -2.686  -3.929   3.840  0.00  0.00    -0.086 HD
ATOM     21  H   UNL     1      -1.055  -4.006   4.063  0.00  0.00    -0.086 HD
BRANCH  19  22
ATOM     22  C   UNL     1      -2.120  -3.905   5.801  0.00  0.00    -0.078 C 
BRANCH  22  23
ATOM     23  C   UNL     1      -2.215  -5.423   5.966  0.00  0.00    +0.018 C 
BRANCH  23  24
ATOM     24  C   UNL     1      -2.429  -5.757   7.420  0.00  0.00    -0.024 A 
ATOM     25  C   UNL     1      -1.479  -6.071   8.316  0.00  0.00    +0.087 A 
ATOM     26  N   UNL     1      -2.050  -6.312   9.536  0.00  0.00    -0.360 N 
ATOM     27  H   UNL     1      -1.565  -6.557  10.339  0.00  0.00    +0.165 HD
ATOM     28  C   UNL     1      -3.416  -6.156   9.453  0.00  0.00    +0.047 A 
ATOM     29  C   UNL     1      -3.712  -5.795   8.126  0.00  0.00    +0.003 A 
ATOM     30  C   UNL     1      -5.035  -5.563   7.746  0.00  0.00    +0.010 A 
ATOM     31  C   UNL     1      -6.037  -5.684   8.668  0.00  0.00    +0.001 A 
ATOM     32  C   UNL     1      -5.749  -6.036   9.979  0.00  0.00    +0.002 A 
ATOM     33  C   UNL     1      -4.451  -6.279  10.373  0.00  0.00    +0.026 A 
ENDBRANCH  23  24
ENDBRANCH  22  23
ENDBRANCH  19  22
ENDBRANCH  18  19
ENDBRANCH  15  18
TORSDOF 5
