REMARK  Name = ZINC12462602
REMARK  4 active torsions:
REMARK  status: ('A' for Active; 'I' for Inactive)
REMARK    1  A    between atoms: C_1  and  C_2
REMARK    2  A    between atoms: C_19  and  C_21
REMARK    3  A    between atoms: C_21  and  N_22
REMARK    4  A    between atoms: N_25  and  C_28
REMARK                            x       y       z     vdW  Elec       q    Type
REMARK                         _______ _______ _______ _____ _____    ______ ____
ROOT
ATOM      1  C   UNL     1       0.020   1.531   0.128  0.00  0.00    +0.044 C 
ATOM      2  C   UNL     1       0.036   0.024   0.103  0.00  0.00    -0.050 A 
ATOM      3  C   UNL     1       0.043  -0.626  -1.120  0.00  0.00    +0.005 A 
ATOM      4  C   UNL     1       0.062  -2.005  -1.221  0.00  0.00    +0.026 A 
ATOM      5  C   UNL     1       0.072  -2.731  -0.031  0.00  0.00    +0.050 A 
ATOM      6  C   UNL     1       0.059  -2.057   1.226  0.00  0.00    +0.004 A 
ATOM      7  C   UNL     1       0.050  -0.660   1.292  0.00  0.00    +0.013 A 
ATOM      8  C   UNL     1       0.059  -3.087   2.228  0.00  0.00    -0.017 A 
ATOM      9  C   UNL     1       0.040  -4.262   1.566  0.00  0.00    +0.044 A 
ATOM     10  N   UNL     1       0.102  -4.073   0.216  0.00  0.00    -0.340 N 
ATOM     11  C   UNL     1       0.220  -5.189  -0.734  0.00  0.00    +0.141 C 
ATOM     12  C   UNL     1      -0.171  -6.495  -0.037  0.00  0.00    +0.130 C 
ATOM     13  N   UNL     1       0.436  -6.580   1.301  0.00  0.00    -0.290 N 
ATOM     14  C   UNL     1       0.009  -5.583   2.304  0.00  0.00    +0.123 C 
ATOM     15  C   UNL     1       1.003  -5.505   3.451  0.00  0.00    +0.029 C 
ATOM     16  C   UNL     1       1.044  -4.194   4.200  0.00  0.00    +0.007 C 
ATOM     17  C   UNL     1       0.090  -3.103   3.731  0.00  0.00    +0.037 C 
ATOM     18  C   UNL     1       1.344  -7.530   1.599  0.00  0.00    +0.230 C 
ATOM     19  O   UNL     1       1.829  -7.578   2.710  0.00  0.00    -0.274 OA
ENDROOT
BRANCH  18  20
ATOM     20  C   UNL     1       1.758  -8.533   0.552  0.00  0.00    +0.180 C 
BRANCH  20  21
ATOM     21  N   UNL     1       2.750  -9.454   1.122  0.00  0.00    -0.291 NA
ATOM     22  C   UNL     1       3.996  -8.748   1.451  0.00  0.00    +0.104 C 
ATOM     23  C   UNL     1       4.934  -9.697   2.204  0.00  0.00    +0.120 C 
ATOM     24  N   UNL     1       5.104 -10.918   1.402  0.00  0.00    -0.327 N 
ATOM     25  C   UNL     1       3.898 -11.607   0.918  0.00  0.00    +0.120 C 
ATOM     26  C   UNL     1       3.001 -10.583   0.216  0.00  0.00    +0.104 C 
BRANCH  24  27
ATOM     27  C   UNL     1       6.378 -11.411   1.109  0.00  0.00    +0.031 A 
ATOM     28  C   UNL     1       6.519 -12.625   0.448  0.00  0.00    +0.023 A 
ATOM     29  C   UNL     1       7.780 -13.109   0.158  0.00  0.00    +0.003 A 
ATOM     30  C   UNL     1       8.901 -12.388   0.526  0.00  0.00    +0.020 A 
ATOM     31  C   UNL     1       8.764 -11.179   1.184  0.00  0.00    +0.043 A 
ATOM     32  C   UNL     1       7.505 -10.686   1.472  0.00  0.00    +0.043 A 
ATOM     33 CL   UNL     1      10.175 -10.277   1.644  0.00  0.00    -0.083 Cl
ENDBRANCH  24  27
ENDBRANCH  20  21
ENDBRANCH  18  20
TORSDOF 3
