REMARK  Name = ZINC54620329
REMARK  5 active torsions:
REMARK  status: ('A' for Active; 'I' for Inactive)
REMARK    1  A    between atoms: C_6  and  C_12
REMARK    2  A    between atoms: C_7  and  O_11
REMARK    3  A    between atoms: C_12  and  C_14
REMARK    4  A    between atoms: C_12  and  N_20
REMARK    5  A    between atoms: N_20  and  C_21
REMARK                            x       y       z     vdW  Elec       q    Type
REMARK                         _______ _______ _______ _____ _____    ______ ____
ROOT
ATOM      1  C   UNL     1       5.995  -0.906  -0.060  0.00  0.00    +0.136 C 
ENDROOT
BRANCH   1   7
ATOM      2  C   UNL     1      -0.045   1.231   0.537  0.00  0.00    +0.020 A 
ATOM      3  C   UNL     1       1.099   1.958   0.368  0.00  0.00    +0.011 A 
ATOM      4  C   UNL     1       2.317   1.262   0.261  0.00  0.00    +0.004 A 
ATOM      5  C   UNL     1       3.534   1.941   0.086  0.00  0.00    +0.010 A 
ATOM      6  C   UNL     1       4.694   1.234  -0.014  0.00  0.00    +0.010 A 
ATOM      7  C   UNL     1       4.693  -0.157   0.055  0.00  0.00    +0.021 A 
ATOM      8  C   UNL     1       3.530  -0.852   0.224  0.00  0.00    +0.148 A 
ATOM      9  C   UNL     1       2.309  -0.153   0.332  0.00  0.00    +0.113 A 
ATOM     10  N   UNL     1       1.154  -0.803   0.499  0.00  0.00    -0.251 NA
ATOM     11  C   UNL     1       0.017  -0.159   0.599  0.00  0.00    +0.111 A 
BRANCH   8  12
ATOM     12  O   UNL     1       3.548  -2.208   0.288  0.00  0.00    -0.504 OA
ATOM     13  H   UNL     1       3.655  -2.558   1.184  0.00  0.00    +0.292 HD
ENDBRANCH   8  12
ENDBRANCH   1   7
BRANCH   1  14
ATOM     14  C   UNL     1       6.231  -1.286  -1.500  0.00  0.00    -0.005 A 
ATOM     15  C   UNL     1       5.945  -2.568  -1.944  0.00  0.00    +0.009 A 
ATOM     16  C   UNL     1       6.178  -2.872  -3.276  0.00  0.00    +0.020 A 
ATOM     17  C   UNL     1       6.684  -1.893  -4.112  0.00  0.00    +0.111 A 
ATOM     18  N   UNL     1       6.945  -0.685  -3.654  0.00  0.00    -0.263 NA
ATOM     19  C   UNL     1       6.730  -0.358  -2.395  0.00  0.00    +0.116 A 
ENDBRANCH   1  14
BRANCH   1  20
ATOM     20  N   UNL     1       7.092  -0.055   0.406  0.00  0.00    -0.332 N 
ATOM     21  H   UNL     1       6.997   0.910   0.389  0.00  0.00    +0.147 HD
BRANCH  20  22
ATOM     22  C   UNL     1       8.275  -0.633   0.876  0.00  0.00    +0.048 A 
ATOM     23  C   UNL     1       8.413  -2.014   0.896  0.00  0.00    +0.046 A 
ATOM     24  C   UNL     1       9.584  -2.584   1.361  0.00  0.00    +0.061 A 
ATOM     25  C   UNL     1      10.618  -1.777   1.808  0.00  0.00    +0.061 A 
ATOM     26  C   UNL     1      10.482  -0.401   1.790  0.00  0.00    +0.043 A 
ATOM     27  C   UNL     1       9.316   0.174   1.319  0.00  0.00    +0.063 A 
ATOM     28 CL   UNL     1       9.149   1.901   1.290  0.00  0.00    -0.082 Cl
ATOM     29 CL   UNL     1      12.086  -2.495   2.392  0.00  0.00    -0.082 Cl
ATOM     30 CL   UNL     1       9.758  -4.311   1.386  0.00  0.00    -0.082 Cl
ENDBRANCH  20  22
ENDBRANCH   1  20
TORSDOF 5
