REMARK  Name = ZINC36836462
REMARK  5 active torsions:
REMARK  status: ('A' for Active; 'I' for Inactive)
REMARK    1  A    between atoms: C_1  and  S_2
REMARK    2  A    between atoms: S_2  and  C_5
REMARK    3  A    between atoms: C_8  and  N_11
REMARK    4  A    between atoms: C_12  and  C_14
REMARK    5  A    between atoms: C_20  and  C_22
REMARK                            x       y       z     vdW  Elec       q    Type
REMARK                         _______ _______ _______ _____ _____    ______ ____
ROOT
ATOM      1  C   UNL     1       4.893  -1.859  -6.108  0.00  0.00    +0.162 C 
ATOM      2  C   UNL     1       4.470  -3.303  -6.448  0.00  0.00    +0.033 C 
ATOM      3  C   UNL     1       5.788  -3.939  -6.964  0.00  0.00    +0.021 C 
ATOM      4  C   UNL     1       6.841  -3.247  -6.061  0.00  0.00    +0.108 C 
ATOM      5  N   UNL     1       6.348  -1.864  -5.897  0.00  0.00    -0.289 N 
ATOM      6  C   UNL     1       7.103  -0.787  -5.603  0.00  0.00    +0.222 C 
ATOM      7  O   UNL     1       6.576   0.288  -5.410  0.00  0.00    -0.275 OA
ENDROOT
BRANCH   6   8
ATOM      8  C   UNL     1       8.601  -0.919  -5.513  0.00  0.00    +0.048 C 
ATOM      9  C   UNL     1       9.162  -1.307  -6.883  0.00  0.00    +0.019 C 
ATOM     10  C   UNL     1      10.683  -1.441  -6.792  0.00  0.00    -0.009 C 
ATOM     11  C   UNL     1      11.287  -0.106  -6.353  0.00  0.00    +0.007 C 
ATOM     12  C   UNL     1      10.727   0.282  -4.983  0.00  0.00    -0.009 C 
ATOM     13  C   UNL     1       9.205   0.416  -5.074  0.00  0.00    +0.019 C 
ATOM     14  C   UNL     1      11.083  -0.800  -3.961  0.00  0.00    +0.007 C 
ATOM     15  C   UNL     1      10.479  -2.135  -4.400  0.00  0.00    -0.009 C 
ATOM     16  C   UNL     1      11.040  -2.523  -5.770  0.00  0.00    +0.007 C 
ATOM     17  C   UNL     1       8.957  -2.001  -4.491  0.00  0.00    +0.019 C 
ENDBRANCH   6   8
BRANCH   1  19
ATOM     18  N   UNL     1       2.849  -1.327  -4.820  0.00  0.00    -0.284 N 
ATOM     19  C   UNL     1       4.194  -1.402  -4.853  0.00  0.00    +0.238 C 
ATOM     20  O   UNL     1       4.843  -1.102  -3.873  0.00  0.00    -0.273 OA
ATOM     21  H   UNL     1       2.327  -1.630  -5.580  0.00  0.00    +0.155 HD
BRANCH  18  25
ATOM     22  C   UNL     1       0.931   0.204  -1.453  0.00  0.00    +0.088 A 
ATOM     23  C   UNL     1       2.088  -0.539  -1.310  0.00  0.00    +0.029 A 
ATOM     24  C   UNL     1       2.727  -1.048  -2.424  0.00  0.00    +0.025 A 
ATOM     25  C   UNL     1       2.204  -0.813  -3.689  0.00  0.00    +0.034 A 
ATOM     26  C   UNL     1       1.042  -0.067  -3.830  0.00  0.00    +0.025 A 
ATOM     27  C   UNL     1       0.406   0.435  -2.711  0.00  0.00    +0.029 A 
BRANCH  22  29
ATOM     28  C   UNL     1      -1.044  -0.445   0.474  0.00  0.00    +0.200 C 
ATOM     29  S   UNL     1       0.120   0.852  -0.029  0.00  0.00    -0.006 S 
ATOM     30  O   UNL     1      -0.589   1.989  -0.502  0.00  0.00    -0.170 OA
ATOM     31  O   UNL     1       1.148   0.991   0.942  0.00  0.00    -0.170 OA
ENDBRANCH  22  29
ENDBRANCH  18  25
ENDBRANCH   1  19
TORSDOF 4
