REMARK  Name = ZINC10753668
REMARK  5 active torsions:
REMARK  status: ('A' for Active; 'I' for Inactive)
REMARK    1  A    between atoms: C_3  and  S_6
REMARK    2  A    between atoms: S_6  and  N_9
REMARK    3  A    between atoms: C_13  and  C_16
REMARK    4  A    between atoms: N_18  and  C_19
REMARK    5  A    between atoms: C_20  and  C_28
REMARK                            x       y       z     vdW  Elec       q    Type
REMARK                         _______ _______ _______ _____ _____    ______ ____
ROOT
ATOM      1  C   UNL     1      -1.083   6.259   4.446  0.00  0.00    +0.222 C 
ATOM      2  O   UNL     1      -1.188   7.397   4.039  0.00  0.00    -0.275 OA
ATOM      3  N   UNL     1      -0.475   6.018   5.625  0.00  0.00    -0.279 N 
ATOM      4  H   UNL     1      -0.392   5.108   5.950  0.00  0.00    +0.155 HD
ENDROOT
BRANCH   3   5
ATOM      5  C   UNL     1       0.032   7.072   6.372  0.00  0.00    +0.090 A 
ATOM      6  C   UNL     1       0.678   7.026   7.598  0.00  0.00    +0.084 A 
ATOM      7  C   UNL     1       1.119   8.284   8.173  0.00  0.00    -0.018 A 
ATOM      8  C   UNL     1       0.835   9.383   7.439  0.00  0.00    -0.004 A 
ATOM      9  S   UNL     1       0.003   8.764   6.004  0.00  0.00    -0.077 S 
ATOM     10  C   UNL     1       1.159  10.805   7.779  0.00  0.00    +0.043 C 
ATOM     11  C   UNL     1       1.532  10.873   9.267  0.00  0.00    +0.005 C 
ATOM     12  C   UNL     1       2.539   9.761   9.575  0.00  0.00    +0.005 C 
ATOM     13  C   UNL     1       1.847   8.399   9.507  0.00  0.00    +0.037 C 
BRANCH   6  14
ATOM     14  C   UNL     1       0.906   5.782   8.271  0.00  0.00    +0.102 C 
ATOM     15  N   UNL     1       1.087   4.796   8.804  0.00  0.00    -0.191 NA
ENDBRANCH   6  14
ENDBRANCH   3   5
BRANCH   1  20
ATOM     16  N   UNL     1      -2.913   4.548   1.635  0.00  0.00    -0.175 NA
ATOM     17  C   UNL     1      -3.889   3.717   2.353  0.00  0.00    +0.109 C 
ATOM     18  C   UNL     1      -3.233   3.192   3.639  0.00  0.00    +0.018 C 
ATOM     19  C   UNL     1      -2.696   4.374   4.450  0.00  0.00    +0.015 C 
ATOM     20  C   UNL     1      -1.634   5.115   3.635  0.00  0.00    +0.091 C 
ATOM     21  C   UNL     1      -2.268   5.658   2.350  0.00  0.00    +0.122 C 
BRANCH  16  22
ATOM     22  S   UNL     1      -2.551   4.243   0.049  0.00  0.00    +0.067 S 
ATOM     23  O   UNL     1      -2.072   5.463  -0.500  0.00  0.00    -0.152 OA
ATOM     24  O   UNL     1      -3.664   3.547  -0.496  0.00  0.00    -0.152 OA
BRANCH  22  27
ATOM     25  C   UNL     1      -0.013   1.076   0.008  0.00  0.00    +0.010 A 
ATOM     26  C   UNL     1      -1.213   1.761   0.017  0.00  0.00    +0.036 A 
ATOM     27  C   UNL     1      -1.196   3.116   0.030  0.00  0.00    +0.143 A 
ATOM     28  S   UNL     1       0.555   3.464   0.015  0.00  0.00    -0.077 S 
ATOM     29  C   UNL     1       1.146   1.780   0.001  0.00  0.00    +0.047 A 
ENDBRANCH  22  27
ENDBRANCH  16  22
ENDBRANCH   1  20
TORSDOF 5
