REMARK  Name = ZINC13395386
REMARK  10 active torsions:
REMARK  status: ('A' for Active; 'I' for Inactive)
REMARK    1  A    between atoms: C_4  and  C_7
REMARK    2  A    between atoms: C_7  and  C_9
REMARK    3  A    between atoms: C_7  and  S_26
REMARK    4  A    between atoms: N_11  and  C_12
REMARK    5  A    between atoms: C_15  and  S_18
REMARK    6  A    between atoms: S_18  and  N_21
REMARK    7  A    between atoms: N_21  and  C_22
REMARK    8  A    between atoms: C_22  and  C_23
REMARK    9  A    between atoms: C_23  and  C_24
REMARK   10  A    between atoms: S_26  and  C_27
REMARK                            x       y       z     vdW  Elec       q    Type
REMARK                         _______ _______ _______ _____ _____    ______ ____
ROOT
ATOM      1  C   UNL     1      -1.460   6.038  -5.155  0.00  0.00    +0.235 C 
ATOM      2  O   UNL     1      -0.954   6.566  -4.188  0.00  0.00    -0.274 OA
ATOM      3  N   UNL     1      -1.842   4.747  -5.096  0.00  0.00    -0.284 N 
ATOM      4  H   UNL     1      -2.184   4.305  -5.889  0.00  0.00    +0.155 HD
ENDROOT
BRANCH   3   5
ATOM      5  C   UNL     1      -1.744   4.043  -3.891  0.00  0.00    +0.034 A 
ATOM      6  C   UNL     1      -0.693   4.298  -3.019  0.00  0.00    +0.025 A 
ATOM      7  C   UNL     1      -0.600   3.602  -1.830  0.00  0.00    +0.030 A 
ATOM      8  C   UNL     1      -1.551   2.652  -1.506  0.00  0.00    +0.105 A 
ATOM      9  C   UNL     1      -2.595   2.392  -2.374  0.00  0.00    +0.030 A 
ATOM     10  C   UNL     1      -2.697   3.088  -3.563  0.00  0.00    +0.025 A 
BRANCH   8  11
ATOM     11  S   UNL     1      -1.428   1.767   0.012  0.00  0.00    +0.058 S 
ATOM     12  O   UNL     1      -0.059   1.802   0.393  0.00  0.00    -0.153 OA
ATOM     13  O   UNL     1      -2.137   0.549  -0.170  0.00  0.00    -0.153 OA
BRANCH  11  14
ATOM     14  N   UNL     1      -2.260   2.633   1.153  0.00  0.00    -0.189 NA
ATOM     15  H   UNL     1      -1.787   3.025   1.903  0.00  0.00    +0.148 HD
BRANCH  14  16
ATOM     16  C   UNL     1      -3.708   2.811   1.025  0.00  0.00    +0.117 C 
BRANCH  16  17
ATOM     17  C   UNL     1      -4.279   3.310   2.353  0.00  0.00    +0.142 C 
BRANCH  17  18
ATOM     18  C   UNL     1      -5.770   3.494   2.222  0.00  0.00    +0.357 C 
ATOM     19  O   UNL     1      -6.318   3.250   1.173  0.00  0.00    -0.246 OA
ATOM     20  O   UNL     1      -6.487   3.928   3.270  0.00  0.00    -0.246 OA
ENDBRANCH  17  18
ENDBRANCH  16  17
ENDBRANCH  14  16
ENDBRANCH  11  14
ENDBRANCH   8  11
ENDBRANCH   3   5
BRANCH   1  21
ATOM     21  C   UNL     1      -1.662   6.825  -6.424  0.00  0.00    +0.167 C 
BRANCH  21  25
ATOM     22  C   UNL     1      -5.625   8.419  -6.494  0.00  0.00    +0.000 A 
ATOM     23  C   UNL     1      -5.208   7.558  -7.493  0.00  0.00    +0.000 A 
ATOM     24  C   UNL     1      -3.926   7.042  -7.470  0.00  0.00    +0.005 A 
ATOM     25  C   UNL     1      -3.060   7.388  -6.449  0.00  0.00    -0.025 A 
ATOM     26  C   UNL     1      -3.478   8.245  -5.448  0.00  0.00    +0.005 A 
ATOM     27  C   UNL     1      -4.759   8.764  -5.473  0.00  0.00    +0.000 A 
ENDBRANCH  21  25
BRANCH  21  28
ATOM     28  S   UNL     1      -0.463   8.185  -6.490  0.00  0.00    -0.108 S 
BRANCH  28  29
ATOM     29  C   UNL     1      -0.725   8.908  -8.075  0.00  0.00    +0.009 A 
ATOM     30  C   UNL     1      -1.688   8.386  -8.929  0.00  0.00    +0.015 A 
ATOM     31  C   UNL     1      -1.894   8.958 -10.168  0.00  0.00    +0.001 A 
ATOM     32  C   UNL     1      -1.135  10.045 -10.564  0.00  0.00    +0.000 A 
ATOM     33  C   UNL     1      -0.172  10.565  -9.719  0.00  0.00    +0.001 A 
ATOM     34  C   UNL     1       0.036  10.000  -8.476  0.00  0.00    +0.015 A 
ENDBRANCH  28  29
ENDBRANCH  21  28
ENDBRANCH   1  21
TORSDOF 10
