REMARK  Name = ZINC02393013
REMARK  4 active torsions:
REMARK  status: ('A' for Active; 'I' for Inactive)
REMARK    1  A    between atoms: C_6  and  C_7
REMARK    2  A    between atoms: C_7  and  C_8
REMARK    3  A    between atoms: C_8  and  C_10
REMARK    4  A    between atoms: C_13  and  N_16
REMARK                            x       y       z     vdW  Elec       q    Type
REMARK                         _______ _______ _______ _____ _____    ______ ____
ROOT
ATOM      1  C   UNL     1      -1.738  -1.024  -1.408  0.00  0.00    +0.167 C 
ATOM      2  O   UNL     1      -1.070  -0.616  -2.334  0.00  0.00    -0.292 OA
ENDROOT
BRANCH   1   3
ATOM      3  C   UNL     1      -2.984  -1.763  -1.669  0.00  0.00    +0.018 A 
ATOM      4  C   UNL     1      -3.760  -2.230  -0.603  0.00  0.00    +0.013 A 
ATOM      5  C   UNL     1      -4.926  -2.922  -0.856  0.00  0.00    +0.033 A 
ATOM      6  C   UNL     1      -5.328  -3.154  -2.160  0.00  0.00    +0.126 A 
ATOM      7  C   UNL     1      -4.566  -2.695  -3.220  0.00  0.00    +0.033 A 
ATOM      8  C   UNL     1      -3.400  -1.997  -2.983  0.00  0.00    +0.013 A 
BRANCH   6   9
ATOM      9  N   UNL     1      -6.581  -3.898  -2.422  0.00  0.00    +0.056 N 
ATOM     10  O   UNL     1      -7.249  -4.301  -1.499  0.00  0.00    -0.126 OA
ATOM     11  O   UNL     1      -6.935  -4.103  -3.560  0.00  0.00    -0.126 OA
ENDBRANCH   6   9
ENDBRANCH   1   3
BRANCH   1  12
ATOM     12  C   UNL     1      -1.293  -0.775   0.010  0.00  0.00    +0.114 C 
BRANCH  12  18
ATOM     13  C   UNL     1      -0.017   1.378   0.010  0.00  0.00    +0.005 A 
ATOM     14  C   UNL     1       1.171   2.086   0.002  0.00  0.00    +0.015 A 
ATOM     15  C   UNL     1       2.378   1.411  -0.013  0.00  0.00    +0.018 A 
ATOM     16  C   UNL     1       2.396   0.027  -0.021  0.00  0.00    +0.015 A 
ATOM     17  C   UNL     1       1.208  -0.679  -0.013  0.00  0.00    +0.005 A 
ATOM     18  C   UNL     1       0.002  -0.004   0.002  0.00  0.00    -0.040 A 
ATOM     19 BR   UNL     1       4.003   2.378  -0.024  0.00  0.00    -0.050 Br
ENDBRANCH  12  18
ENDBRANCH   1  12
TORSDOF 4
