REMARK  Name = ZINC09572455
REMARK  7 active torsions:
REMARK  status: ('A' for Active; 'I' for Inactive)
REMARK    1  A    between atoms: C_1  and  C_2
REMARK    2  A    between atoms: C_2  and  N_3
REMARK    3  A    between atoms: C_6  and  C_28
REMARK    4  A    between atoms: N_10  and  C_11
REMARK    5  A    between atoms: C_14  and  N_17
REMARK    6  A    between atoms: N_17  and  S_18
REMARK    7  A    between atoms: S_18  and  C_21
REMARK                            x       y       z     vdW  Elec       q    Type
REMARK                         _______ _______ _______ _____ _____    ______ ____
ROOT
ATOM      1  C   UNL     1       4.274  -1.894  -4.120  0.00  0.00    +0.034 A 
ATOM      2  C   UNL     1       3.543  -3.074  -4.102  0.00  0.00    +0.025 A 
ATOM      3  C   UNL     1       2.705  -3.350  -3.040  0.00  0.00    +0.026 A 
ATOM      4  C   UNL     1       2.593  -2.448  -1.990  0.00  0.00    +0.048 A 
ATOM      5  C   UNL     1       3.320  -1.265  -2.011  0.00  0.00    +0.026 A 
ATOM      6  C   UNL     1       4.163  -0.992  -3.070  0.00  0.00    +0.025 A 
ENDROOT
BRANCH   1  14
ATOM      7  N   UNL     1       7.270   1.467  -8.013  0.00  0.00    -0.329 N 
ATOM      8  C   UNL     1       6.336   1.195  -7.027  0.00  0.00    +0.124 A 
ATOM      9  C   UNL     1       5.556   2.220  -6.488  0.00  0.00    +0.066 A 
ATOM     10  C   UNL     1       4.636   1.902  -5.507  0.00  0.00    +0.045 A 
ATOM     11  N   UNL     1       4.518   0.642  -5.113  0.00  0.00    -0.219 NA
ATOM     12  C   UNL     1       5.275  -0.309  -5.639  0.00  0.00    +0.221 A 
ATOM     13  N   UNL     1       6.168  -0.046  -6.582  0.00  0.00    -0.199 NA
ATOM     14  N   UNL     1       5.125  -1.613  -5.197  0.00  0.00    -0.284 N 
ATOM     15  C   UNL     1       3.773   2.975  -4.896  0.00  0.00    +0.066 C 
ATOM     16  H   UNL     1       7.808   0.750  -8.383  0.00  0.00    +0.147 HD
ATOM     17  H   UNL     1       5.608  -2.332  -5.633  0.00  0.00    +0.155 HD
BRANCH   7  19
ATOM     18  C   UNL     1       8.531   2.864  -9.576  0.00  0.00    +0.024 C 
ATOM     19  C   UNL     1       7.446   2.839  -8.497  0.00  0.00    +0.099 C 
ENDBRANCH   7  19
ENDBRANCH   1  14
BRANCH   4  20
ATOM     20  N   UNL     1       1.744  -2.728  -0.914  0.00  0.00    -0.216 N 
ATOM     21  H   UNL     1       0.901  -2.257  -0.825  0.00  0.00    +0.174 HD
BRANCH  20  22
ATOM     22  S   UNL     1       2.178  -3.866   0.209  0.00  0.00    +0.072 S 
ATOM     23  O   UNL     1       2.528  -5.038  -0.514  0.00  0.00    -0.150 OA
ATOM     24  O   UNL     1       1.165  -3.860   1.206  0.00  0.00    -0.150 OA
BRANCH  22  25
ATOM     25  C   UNL     1       3.652  -3.294   0.987  0.00  0.00    +0.109 A 
ATOM     26  C   UNL     1       3.576  -2.413   2.049  0.00  0.00    +0.030 A 
ATOM     27  C   UNL     1       4.733  -1.965   2.659  0.00  0.00    +0.017 A 
ATOM     28  C   UNL     1       5.966  -2.398   2.206  0.00  0.00    +0.018 A 
ATOM     29  C   UNL     1       6.041  -3.280   1.143  0.00  0.00    +0.017 A 
ATOM     30  C   UNL     1       4.884  -3.728   0.534  0.00  0.00    +0.030 A 
ATOM     31 BR   UNL     1       7.548  -1.786   3.041  0.00  0.00    -0.050 Br
ENDBRANCH  22  25
ENDBRANCH  20  22
ENDBRANCH   4  20
TORSDOF 5
