REMARK  Name = ZINC09152188
REMARK  6 active torsions:
REMARK  status: ('A' for Active; 'I' for Inactive)
REMARK    1  A    between atoms: C_1  and  C_2
REMARK    2  A    between atoms: C_7  and  S_15
REMARK    3  A    between atoms: C_12  and  C_14
REMARK    4  A    between atoms: S_15  and  N_18
REMARK    5  A    between atoms: C_21  and  C_24
REMARK    6  A    between atoms: N_29  and  C_32
REMARK                            x       y       z     vdW  Elec       q    Type
REMARK                         _______ _______ _______ _____ _____    ______ ____
ROOT
ATOM      1  N   UNL     1      -3.709  -4.771   3.240  0.00  0.00    -0.177 NA
ATOM      2  C   UNL     1      -4.740  -4.885   2.199  0.00  0.00    +0.110 C 
ATOM      3  C   UNL     1      -5.647  -6.074   2.531  0.00  0.00    +0.030 C 
ATOM      4  C   UNL     1      -4.791  -7.330   2.707  0.00  0.00    +0.078 C 
ATOM      5  C   UNL     1      -3.817  -7.126   3.870  0.00  0.00    +0.030 C 
ATOM      6  C   UNL     1      -2.885  -5.948   3.549  0.00  0.00    +0.110 C 
ENDROOT
BRANCH   4   7
ATOM      7  C   UNL     1      -5.683  -8.508   3.000  0.00  0.00    +0.219 C 
ATOM      8  O   UNL     1      -6.713  -8.350   3.622  0.00  0.00    -0.275 OA
ATOM      9  N   UNL     1      -5.338  -9.739   2.571  0.00  0.00    -0.298 N 
ATOM     10  C   UNL     1      -4.029  -9.972   1.944  0.00  0.00    +0.126 C 
ATOM     11  C   UNL     1      -3.312 -11.091   2.709  0.00  0.00    +0.124 C 
ATOM     12  N   UNL     1      -4.236 -12.223   2.860  0.00  0.00    -0.327 N 
ATOM     13  C   UNL     1      -5.545 -11.990   3.487  0.00  0.00    +0.124 C 
ATOM     14  C   UNL     1      -6.260 -10.872   2.728  0.00  0.00    +0.126 C 
BRANCH  12  15
ATOM     15  C   UNL     1      -3.878 -13.498   2.416  0.00  0.00    +0.030 A 
ATOM     16  C   UNL     1      -2.587 -13.741   1.964  0.00  0.00    +0.023 A 
ATOM     17  C   UNL     1      -2.236 -15.002   1.526  0.00  0.00    +0.002 A 
ATOM     18  C   UNL     1      -3.168 -16.024   1.536  0.00  0.00    +0.000 A 
ATOM     19  C   UNL     1      -4.454 -15.786   1.985  0.00  0.00    +0.002 A 
ATOM     20  C   UNL     1      -4.810 -14.528   2.430  0.00  0.00    +0.023 A 
ENDBRANCH  12  15
ENDBRANCH   4   7
BRANCH   1  21
ATOM     21  S   UNL     1      -3.476  -3.343   4.045  0.00  0.00    +0.061 S 
ATOM     22  O   UNL     1      -2.868  -3.671   5.287  0.00  0.00    -0.153 OA
ATOM     23  O   UNL     1      -4.700  -2.625   3.961  0.00  0.00    -0.153 OA
BRANCH  21  29
ATOM     24  C   UNL     1      -0.340   2.112   0.171  0.00  0.00    +0.029 C 
ATOM     25  C   UNL     1      -0.507   0.609  -0.057  0.00  0.00    +0.083 C 
ATOM     26  C   UNL     1      -1.939   0.172   0.295  0.00  0.00    +0.059 C 
ATOM     27  C   UNL     1      -1.767  -0.827   1.417  0.00  0.00    -0.022 A 
ATOM     28  C   UNL     1      -2.698  -1.553   2.135  0.00  0.00    +0.034 A 
ATOM     29  C   UNL     1      -2.287  -2.418   3.131  0.00  0.00    +0.106 A 
ATOM     30  C   UNL     1      -0.939  -2.557   3.407  0.00  0.00    +0.030 A 
ATOM     31  C   UNL     1      -0.006  -1.836   2.694  0.00  0.00    +0.026 A 
ATOM     32  C   UNL     1      -0.414  -0.959   1.686  0.00  0.00    +0.040 A 
ATOM     33  N   UNL     1       0.361  -0.143   0.853  0.00  0.00    -0.268 N 
ATOM     34  C   UNL     1       1.706  -0.061   0.881  0.00  0.00    +0.217 C 
ATOM     35  O   UNL     1       2.341  -0.775   1.629  0.00  0.00    -0.276 OA
ATOM     36  C   UNL     1       2.420   0.917  -0.015  0.00  0.00    +0.109 C 
ENDBRANCH  21  29
ENDBRANCH   1  21
TORSDOF 4
