REMARK  Name = ZINC40036722
REMARK  6 active torsions:
REMARK  status: ('A' for Active; 'I' for Inactive)
REMARK    1  A    between atoms: C_1  and  C_2
REMARK    2  A    between atoms: C_2  and  O_3
REMARK    3  A    between atoms: O_3  and  C_4
REMARK    4  A    between atoms: C_9  and  C_10
REMARK    5  A    between atoms: N_11  and  N_12
REMARK    6  A    between atoms: N_19  and  C_20
REMARK                            x       y       z     vdW  Elec       q    Type
REMARK                         _______ _______ _______ _____ _____    ______ ____
ROOT
ATOM      1  N   UNL     1      -4.978   0.557   0.067  0.00  0.00    -0.206 N 
ATOM      2  C   UNL     1      -4.834   1.919   0.000  0.00  0.00    +0.223 A 
ATOM      3  N   UNL     1      -3.642   2.431  -0.227  0.00  0.00    -0.214 NA
ATOM      4  C   UNL     1      -3.462   3.754  -0.294  0.00  0.00    +0.084 A 
ATOM      5  C   UNL     1      -4.548   4.606  -0.160  0.00  0.00    +0.050 A 
ATOM      6  C   UNL     1      -5.813   4.057   0.086  0.00  0.00    +0.264 A 
ATOM      7  O   UNL     1      -6.789   4.777   0.221  0.00  0.00    -0.267 OA
ATOM      8  N   UNL     1      -5.930   2.714   0.165  0.00  0.00    -0.248 N 
ATOM      9  C   UNL     1      -4.373   6.094  -0.304  0.00  0.00    +0.007 C 
ATOM     10  C   UNL     1      -5.507   6.809   0.438  0.00  0.00    +0.012 C 
ATOM     11  C   UNL     1      -5.337   8.322   0.290  0.00  0.00    +0.001 C 
ATOM     12  C   UNL     1      -5.388   8.699  -1.192  0.00  0.00    +0.000 C 
ATOM     13  C   UNL     1      -4.261   7.982  -1.938  0.00  0.00    +0.001 C 
ATOM     14  C   UNL     1      -4.429   6.470  -1.788  0.00  0.00    +0.012 C 
ATOM     15  C   UNL     1      -3.032   6.534   0.279  0.00  0.00    +0.047 C 
ATOM     16  C   UNL     1      -1.911   5.689  -0.265  0.00  0.00    -0.037 A 
ATOM     17  C   UNL     1      -2.121   4.335  -0.527  0.00  0.00    +0.004 A 
ATOM     18  C   UNL     1      -1.078   3.547  -1.005  0.00  0.00    +0.010 A 
ATOM     19  C   UNL     1       0.161   4.116  -1.231  0.00  0.00    +0.001 A 
ATOM     20  C   UNL     1       0.361   5.462  -0.984  0.00  0.00    +0.000 A 
ATOM     21  C   UNL     1      -0.672   6.246  -0.501  0.00  0.00    +0.004 A 
ATOM     22  H   UNL     1      -5.858   0.168   0.186  0.00  0.00    +0.177 HD
ENDROOT
BRANCH   8  23
ATOM     23  C   UNL     1      -7.180   2.137   0.423  0.00  0.00    +0.053 A 
ATOM     24  C   UNL     1      -7.411   1.487   1.628  0.00  0.00    +0.026 A 
ATOM     25  C   UNL     1      -8.644   0.919   1.879  0.00  0.00    +0.002 A 
ATOM     26  C   UNL     1      -9.649   0.997   0.932  0.00  0.00    +0.000 A 
ATOM     27  C   UNL     1      -9.422   1.643  -0.269  0.00  0.00    +0.002 A 
ATOM     28  C   UNL     1      -8.193   2.218  -0.524  0.00  0.00    +0.026 A 
ENDBRANCH   8  23
BRANCH   1  30
ATOM     29  C   UNL     1      -3.999  -1.560  -0.091  0.00  0.00    +0.142 C 
ATOM     30  N   UNL     1      -3.853  -0.271  -0.037  0.00  0.00    -0.187 NA
BRANCH  29  36
ATOM     31  C   UNL     1      -1.557  -1.899   0.277  0.00  0.00    +0.129 A 
ATOM     32  C   UNL     1      -0.457  -2.736   0.367  0.00  0.00    +0.046 A 
ATOM     33  C   UNL     1      -0.604  -4.097   0.180  0.00  0.00    +0.004 A 
ATOM     34  C   UNL     1      -1.849  -4.635  -0.099  0.00  0.00    +0.001 A 
ATOM     35  C   UNL     1      -2.955  -3.817  -0.192  0.00  0.00    +0.013 A 
ATOM     36  C   UNL     1      -2.821  -2.440   0.001  0.00  0.00    +0.036 A 
BRANCH  31  37
ATOM     37  O   UNL     1      -1.414  -0.561   0.462  0.00  0.00    -0.492 OA
BRANCH  37  39
ATOM     38  C   UNL     1      -0.207   1.395   1.208  0.00  0.00    +0.048 C 
ATOM     39  C   UNL     1      -0.130  -0.099   0.887  0.00  0.00    +0.226 C 
ENDBRANCH  37  39
ENDBRANCH  31  37
ENDBRANCH  29  36
ENDBRANCH   1  30
TORSDOF 5
