REMARK  Name = ZINC14541742
REMARK  7 active torsions:
REMARK  status: ('A' for Active; 'I' for Inactive)
REMARK    1  A    between atoms: C_1  and  O_2
REMARK    2  A    between atoms: O_2  and  C_3
REMARK    3  A    between atoms: C_3  and  C_4
REMARK    4  A    between atoms: C_4  and  N_5
REMARK    5  A    between atoms: N_8  and  C_27
REMARK    6  A    between atoms: N_14  and  C_17
REMARK    7  A    between atoms: C_17  and  C_18
REMARK                            x       y       z     vdW  Elec       q    Type
REMARK                         _______ _______ _______ _____ _____    ______ ____
ROOT
ATOM      1  N   UNL     1      -2.018   1.108   1.337  0.00  0.00    -0.269 N 
ATOM      2  C   UNL     1      -1.874   0.391   2.468  0.00  0.00    +0.312 C 
ATOM      3  O   UNL     1      -2.708  -0.389   2.885  0.00  0.00    -0.252 OA
ATOM      4  N   UNL     1      -0.709   0.632   3.080  0.00  0.00    -0.220 N 
ATOM      5  C   UNL     1       0.029   1.538   2.406  0.00  0.00    +0.247 C 
ATOM      6  O   UNL     1       1.125   1.961   2.705  0.00  0.00    -0.273 OA
ATOM      7  C   UNL     1      -0.798   1.913   1.199  0.00  0.00    +0.118 C 
ATOM      8  C   UNL     1      -0.061   1.552  -0.087  0.00  0.00    +0.051 C 
ATOM      9  C   UNL     1      -0.910   1.969  -1.292  0.00  0.00    +0.087 C 
ATOM     10  N   UNL     1      -1.177   3.411  -1.227  0.00  0.00    -0.296 NA
ATOM     11  C   UNL     1      -1.947   3.757  -0.025  0.00  0.00    +0.087 C 
ATOM     12  C   UNL     1      -1.134   3.401   1.222  0.00  0.00    +0.051 C 
ENDROOT
BRANCH   4  13
ATOM     13  C   UNL     1      -0.287  -0.009   4.329  0.00  0.00    +0.094 C 
ATOM     14  C   UNL     1      -0.312  -1.546   4.192  0.00  0.00    +0.058 C 
ATOM     15  C   UNL     1      -0.752  -2.054   5.552  0.00  0.00    -0.042 A 
ATOM     16  C   UNL     1      -0.654  -3.317   6.111  0.00  0.00    +0.004 A 
ATOM     17  C   UNL     1      -1.128  -3.551   7.387  0.00  0.00    +0.000 A 
ATOM     18  C   UNL     1      -1.702  -2.521   8.109  0.00  0.00    +0.000 A 
ATOM     19  C   UNL     1      -1.801  -1.261   7.553  0.00  0.00    +0.004 A 
ATOM     20  C   UNL     1      -1.326  -1.024   6.274  0.00  0.00    -0.042 A 
ATOM     21  C   UNL     1      -1.315   0.246   5.451  0.00  0.00    +0.058 C 
ENDBRANCH   4  13
BRANCH   1  22
ATOM     22  C   UNL     1      -3.165   1.089   0.425  0.00  0.00    +0.138 C 
BRANCH  22  23
ATOM     23  C   UNL     1      -4.408   1.595   1.159  0.00  0.00    +0.178 C 
BRANCH  23  25
ATOM     24  C   UNL     1      -5.324   3.531   2.236  0.00  0.00    +0.194 C 
ATOM     25  O   UNL     1      -4.214   2.958   1.540  0.00  0.00    -0.381 OA
ENDBRANCH  23  25
ENDBRANCH  22  23
ENDBRANCH   1  22
BRANCH  10  26
ATOM     26  C   UNL     1      -1.860   3.876  -2.442  0.00  0.00    +0.147 C 
BRANCH  26  27
ATOM     27  C   UNL     1      -1.898   5.382  -2.452  0.00  0.00    +0.093 A 
ATOM     28  N   UNL     1      -1.025   6.209  -2.953  0.00  0.00    -0.243 NA
ATOM     29  C   UNL     1      -1.180   7.549  -2.897  0.00  0.00    +0.079 A 
ATOM     30  C   UNL     1      -0.330   8.565  -3.388  0.00  0.00    +0.029 A 
ATOM     31  C   UNL     1      -0.656   9.877  -3.236  0.00  0.00    +0.002 A 
ATOM     32  C   UNL     1      -1.825  10.267  -2.598  0.00  0.00    +0.001 A 
ATOM     33  C   UNL     1      -2.683   9.303  -2.102  0.00  0.00    +0.017 A 
ATOM     34  C   UNL     1      -2.363   7.975  -2.251  0.00  0.00    +0.039 A 
ATOM     35  S   UNL     1      -3.120   6.433  -1.807  0.00  0.00    -0.071 S 
ENDBRANCH  26  27
ENDBRANCH  10  26
TORSDOF 6
