REMARK  Name = ZINC44426499
REMARK  2 active torsions:
REMARK  status: ('A' for Active; 'I' for Inactive)
REMARK    1  A    between atoms: C_4  and  C_7
REMARK    2  A    between atoms: C_4  and  C_9
REMARK                            x       y       z     vdW  Elec       q    Type
REMARK                         _______ _______ _______ _____ _____    ______ ____
ROOT
ATOM      1  C   UNL     1       2.859  -0.454  -2.507  0.00  0.00    +0.236 C 
ATOM      2  O   UNL     1       3.224   0.340  -3.348  0.00  0.00    -0.274 OA
ATOM      3  N   UNL     1       3.087  -1.771  -2.680  0.00  0.00    -0.300 N 
ATOM      4  C   UNL     1       2.555  -2.755  -1.728  0.00  0.00    +0.108 C 
ATOM      5  C   UNL     1       3.708  -3.632  -1.232  0.00  0.00    +0.023 C 
ATOM      6  C   UNL     1       4.431  -4.249  -2.432  0.00  0.00    -0.005 C 
ATOM      7  C   UNL     1       5.562  -5.149  -1.930  0.00  0.00    +0.004 C 
ATOM      8  C   UNL     1       6.294  -5.766  -3.123  0.00  0.00    +0.000 C 
ATOM      9  C   UNL     1       6.879  -4.651  -3.993  0.00  0.00    +0.000 C 
ATOM     10  C   UNL     1       5.747  -3.755  -4.499  0.00  0.00    +0.005 C 
ATOM     11  C   UNL     1       5.010  -3.136  -3.309  0.00  0.00    +0.010 C 
ATOM     12  C   UNL     1       3.868  -2.252  -3.828  0.00  0.00    +0.111 C 
ENDROOT
BRANCH   1  16
ATOM     13  C   UNL     1       0.004   1.566   0.004  0.00  0.00    +0.000 C 
ATOM     14  C   UNL     1       1.454   2.054   0.021  0.00  0.00    +0.002 C 
ATOM     15  C   UNL     1       2.173   1.561  -1.236  0.00  0.00    +0.031 C 
ATOM     16  C   UNL     1       2.150   0.032  -1.269  0.00  0.00    +0.133 C 
ATOM     17  C   UNL     1       0.700  -0.456  -1.287  0.00  0.00    +0.031 C 
ATOM     18  C   UNL     1      -0.019   0.037  -0.030  0.00  0.00    +0.002 C 
BRANCH  16  19
ATOM     19  C   UNL     1       2.831  -0.496  -0.076  0.00  0.00    +0.079 C 
ATOM     20  N   UNL     1       3.356  -0.903   0.846  0.00  0.00    -0.195 NA
ENDBRANCH  16  19
ENDBRANCH   1  16
TORSDOF 2
