REMARK  Name = ZINC28535271
REMARK  9 active torsions:
REMARK  status: ('A' for Active; 'I' for Inactive)
REMARK    1  A    between atoms: C_1  and  O_2
REMARK    2  A    between atoms: O_2  and  C_3
REMARK    3  A    between atoms: C_7  and  N_9
REMARK    4  A    between atoms: N_13  and  N_27
REMARK    5  A    between atoms: C_14  and  S_17
REMARK    6  A    between atoms: S_17  and  C_18
REMARK    7  A    between atoms: C_18  and  C_19
REMARK    8  A    between atoms: C_24  and  O_25
REMARK    9  A    between atoms: O_25  and  C_26
REMARK                            x       y       z     vdW  Elec       q    Type
REMARK                         _______ _______ _______ _____ _____    ______ ____
ROOT
ATOM      1  N   UNL     1      -4.722   1.592   3.756  0.00  0.00    -0.294 N 
ATOM      2  C   UNL     1      -6.078   1.284   3.871  0.00  0.00    +0.212 A 
ATOM      3  C   UNL     1      -6.838   1.783   4.962  0.00  0.00    +0.312 A 
ATOM      4  O   UNL     1      -6.325   2.487   5.815  0.00  0.00    -0.262 OA
ATOM      5  N   UNL     1      -8.150   1.458   5.023  0.00  0.00    -0.205 N 
ATOM      6  C   UNL     1      -8.672   0.663   4.044  0.00  0.00    +0.210 A 
ATOM      7  N   UNL     1      -7.912   0.226   3.058  0.00  0.00    -0.121 NA
ATOM      8  N   UNL     1      -6.666   0.523   2.972  0.00  0.00    -0.126 NA
ATOM      9  H   UNL     1      -4.216   2.152   4.556  0.00  0.00    +0.154 HD
ENDROOT
BRANCH   1  14
ATOM     10  C   UNL     1      -3.926   0.722   0.273  0.00  0.00    +0.122 A 
ATOM     11  C   UNL     1      -2.584   0.384   0.389  0.00  0.00    +0.046 A 
ATOM     12  C   UNL     1      -1.956   0.457   1.617  0.00  0.00    +0.005 A 
ATOM     13  C   UNL     1      -2.662   0.855   2.736  0.00  0.00    +0.023 A 
ATOM     14  C   UNL     1      -4.007   1.189   2.626  0.00  0.00    +0.036 A 
ATOM     15  C   UNL     1      -4.638   1.122   1.391  0.00  0.00    +0.069 A 
BRANCH  10  17
ATOM     16  C   UNL     1      -3.745   0.236  -2.048  0.00  0.00    +0.277 C 
ATOM     17  O   UNL     1      -4.541   0.656  -0.938  0.00  0.00    -0.495 OA
ENDBRANCH  10  17
ENDBRANCH   1  14
BRANCH   5  18
ATOM     18  N   UNL     1      -8.935   1.911   6.046  0.00  0.00    -0.293 N 
ATOM     19  H   UNL     1     -10.000   1.640   6.084  0.00  0.00    +0.163 HD
ATOM     20  H   UNL     1      -8.501   2.548   6.831  0.00  0.00    +0.163 HD
ENDBRANCH   5  18
BRANCH   6  21
ATOM     21  S   UNL     1     -10.376   0.215   4.097  0.00  0.00    -0.080 S 
BRANCH  21  22
ATOM     22  C   UNL     1     -10.480  -0.802   2.604  0.00  0.00    +0.116 C 
BRANCH  22  23
ATOM     23  C   UNL     1     -11.890  -1.310   2.440  0.00  0.00    +0.004 A 
ATOM     24  C   UNL     1     -12.259  -2.517   3.002  0.00  0.00    +0.008 A 
ATOM     25  C   UNL     1     -13.553  -2.981   2.856  0.00  0.00    +0.001 A 
ATOM     26  C   UNL     1     -14.478  -2.245   2.139  0.00  0.00    +0.004 A 
ATOM     27  C   UNL     1     -14.112  -1.040   1.570  0.00  0.00    +0.046 A 
ATOM     28  C   UNL     1     -12.815  -0.570   1.720  0.00  0.00    +0.124 A 
BRANCH  28  29
ATOM     29  O   UNL     1     -12.452   0.615   1.161  0.00  0.00    -0.495 OA
ATOM     30  C   UNL     1     -13.457   1.324   0.433  0.00  0.00    +0.277 C 
ENDBRANCH  28  29
ENDBRANCH  22  23
ENDBRANCH  21  22
ENDBRANCH   6  21
TORSDOF 7
