REMARK  Name = ZINC05340498
REMARK  9 active torsions:
REMARK  status: ('A' for Active; 'I' for Inactive)
REMARK    1  A    between atoms: C_1  and  C_2
REMARK    2  A    between atoms: C_2  and  C_3
REMARK    3  A    between atoms: C_6  and  C_9
REMARK    4  A    between atoms: C_12  and  C_23
REMARK    5  A    between atoms: N_19  and  C_20
REMARK    6  A    between atoms: C_20  and  C_21
REMARK    7  A    between atoms: C_21  and  O_22
REMARK    8  A    between atoms: C_26  and  C_30
REMARK    9  A    between atoms: C_28  and  O_29
REMARK                            x       y       z     vdW  Elec       q    Type
REMARK                         _______ _______ _______ _____ _____    ______ ____
ROOT
ATOM      1  C   UNL     1       2.707  -1.868  -4.752  0.00  0.00    +0.141 C 
ATOM      2  C   UNL     1       3.394  -0.720  -5.440  0.00  0.00    +0.035 A 
ATOM      3  C   UNL     1       3.277   0.485  -6.054  0.00  0.00    +0.075 A 
ATOM      4  N   UNL     1       4.539   0.864  -6.416  0.00  0.00    -0.276 N 
ATOM      5  H   UNL     1       4.762   1.689  -6.875  0.00  0.00    +0.189 HD
ATOM      6  N   UNL     1       5.386  -0.033  -6.056  0.00  0.00    -0.168 NA
ATOM      7  C   UNL     1       4.772  -1.033  -5.455  0.00  0.00    +0.153 A 
ATOM      8  C   UNL     1       4.947  -2.340  -4.796  0.00  0.00    +0.268 C 
ATOM      9  O   UNL     1       6.014  -2.901  -4.641  0.00  0.00    -0.268 OA
ATOM     10  N   UNL     1       3.760  -2.824  -4.390  0.00  0.00    -0.283 N 
ENDROOT
BRANCH   3  11
ATOM     11  C   UNL     1       2.027   1.241  -6.288  0.00  0.00    +0.043 A 
ATOM     12  C   UNL     1       1.574   1.462  -7.588  0.00  0.00    +0.034 A 
ATOM     13  C   UNL     1       0.406   2.167  -7.800  0.00  0.00    +0.045 A 
ATOM     14  C   UNL     1      -0.317   2.657  -6.725  0.00  0.00    -0.029 A 
ATOM     15  C   UNL     1       0.123   2.444  -5.432  0.00  0.00    +0.050 A 
ATOM     16  C   UNL     1       1.290   1.733  -5.204  0.00  0.00    +0.126 A 
ATOM     17  C   UNL     1      -1.590   3.427  -6.965  0.00  0.00    +0.045 C 
ATOM     18 CL   UNL     1      -0.158   2.441  -9.418  0.00  0.00    -0.083 Cl
BRANCH  16  19
ATOM     19  O   UNL     1       1.721   1.518  -3.934  0.00  0.00    -0.506 OA
ATOM     20  H   UNL     1       2.306   2.209  -3.595  0.00  0.00    +0.292 HD
ENDBRANCH  16  19
ENDBRANCH   3  11
BRANCH   1  24
ATOM     21  C   UNL     1       0.707  -0.490  -1.238  0.00  0.00    -0.048 A 
ATOM     22  C   UNL     1      -0.011  -0.719  -2.397  0.00  0.00    +0.004 A 
ATOM     23  C   UNL     1       0.636  -1.164  -3.534  0.00  0.00    +0.006 A 
ATOM     24  C   UNL     1       2.002  -1.381  -3.513  0.00  0.00    -0.022 A 
ATOM     25  C   UNL     1       2.720  -1.152  -2.354  0.00  0.00    +0.006 A 
ATOM     26  C   UNL     1       2.073  -0.702  -1.218  0.00  0.00    +0.004 A 
BRANCH  21  28
ATOM     27  C   UNL     1      -0.019   1.526   0.010  0.00  0.00    +0.009 C 
ATOM     28  C   UNL     1       0.002  -0.004   0.002  0.00  0.00    +0.032 C 
ENDBRANCH  21  28
ENDBRANCH   1  24
BRANCH  10  29
ATOM     29  C   UNL     1       3.550  -4.099  -3.698  0.00  0.00    +0.137 C 
BRANCH  29  30
ATOM     30  C   UNL     1       3.312  -5.205  -4.728  0.00  0.00    +0.175 C 
BRANCH  30  31
ATOM     31  O   UNL     1       4.494  -5.389  -5.511  0.00  0.00    -0.393 OA
ATOM     32  H   UNL     1       4.415  -6.077  -6.186  0.00  0.00    +0.209 HD
ENDBRANCH  30  31
ENDBRANCH  29  30
ENDBRANCH  10  29
TORSDOF 7
