REMARK  Name = ZINC24389743
REMARK  3 active torsions:
REMARK  status: ('A' for Active; 'I' for Inactive)
REMARK    1  A    between atoms: C_5  and  C_6
REMARK    2  A    between atoms: N_8  and  N_9
REMARK    3  A    between atoms: C_10  and  C_12
REMARK                            x       y       z     vdW  Elec       q    Type
REMARK                         _______ _______ _______ _____ _____    ______ ____
ROOT
ATOM      1  C   UNL     1       2.549   1.323  -0.009  0.00  0.00    +0.267 C 
ATOM      2  O   UNL     1       2.778   0.128  -0.011  0.00  0.00    -0.268 OA
ATOM      3  N   UNL     1       3.568   2.205  -0.015  0.00  0.00    -0.230 N 
ATOM      4  H   UNL     1       3.361   3.285  -0.013  0.00  0.00    +0.173 HD
ENDROOT
BRANCH   1   9
ATOM      5  C   UNL     1      -0.013   1.076   0.008  0.00  0.00    +0.024 A 
ATOM      6  C   UNL     1      -1.214   1.774   0.017  0.00  0.00    -0.036 A 
ATOM      7  C   UNL     1      -1.129   3.124   0.004  0.00  0.00    -0.006 A 
ATOM      8  S   UNL     1       0.553   3.482   0.005  0.00  0.00    -0.088 S 
ATOM      9  C   UNL     1       1.164   1.804   0.001  0.00  0.00    +0.076 A 
ATOM     10  C   UNL     1      -2.283   4.100  -0.036  0.00  0.00    +0.043 C 
ATOM     11  C   UNL     1      -3.009   4.003   1.317  0.00  0.00    +0.005 C 
ATOM     12  C   UNL     1      -3.903   2.786   1.346  0.00  0.00    +0.001 C 
ATOM     13  C   UNL     1      -3.214   1.449   1.434  0.00  0.00    +0.005 C 
ATOM     14  C   UNL     1      -2.563   1.051   0.108  0.00  0.00    +0.036 C 
ENDBRANCH   1   9
BRANCH   3  15
ATOM     15  N   UNL     1       4.891   1.746  -0.024  0.00  0.00    -0.234 N 
ATOM     16  C   UNL     1       5.911   2.628  -0.031  0.00  0.00    +0.232 C 
ATOM     17  O   UNL     1       5.682   3.819  -0.028  0.00  0.00    -0.274 OA
ATOM     18  H   UNL     1       5.099   0.666  -0.027  0.00  0.00    +0.173 HD
BRANCH  16  19
ATOM     19  C   UNL     1       7.335   2.134  -0.041  0.00  0.00    +0.080 C 
ATOM     20  C   UNL     1       8.295   3.329  -0.073  0.00  0.00    +0.017 C 
ATOM     21  C   UNL     1       9.723   2.808   0.098  0.00  0.00    +0.027 C 
ATOM     22  C   UNL     1       9.976   1.674  -0.852  0.00  0.00    -0.031 C 
ATOM     23  C   UNL     1       9.042   1.009  -1.453  0.00  0.00    -0.030 C 
ATOM     24  C   UNL     1       7.576   1.285  -1.291  0.00  0.00    +0.039 C 
ENDBRANCH  16  19
ENDBRANCH   3  15
TORSDOF 3
