REMARK  Name = ZINC39159987
REMARK  6 active torsions:
REMARK  status: ('A' for Active; 'I' for Inactive)
REMARK    1  A    between atoms: C_1  and  C_2
REMARK    2  A    between atoms: C_4  and  N_15
REMARK    3  A    between atoms: N_7  and  C_8
REMARK    4  A    between atoms: C_8  and  C_9
REMARK    5  A    between atoms: C_16  and  C_18
REMARK    6  A    between atoms: C_18  and  C_19
REMARK                            x       y       z     vdW  Elec       q    Type
REMARK                         _______ _______ _______ _____ _____    ______ ____
ROOT
ATOM      1  N   UNL     1       1.239  -2.851  -1.138  0.00  0.00    -0.295 N 
ATOM      2  C   UNL     1       1.160  -4.089  -1.665  0.00  0.00    +0.219 C 
ATOM      3  O   UNL     1       0.088  -4.651  -1.735  0.00  0.00    -0.275 OA
ATOM      4  H   UNL     1       2.097  -2.402  -1.082  0.00  0.00    +0.151 HD
ENDROOT
BRANCH   1   8
ATOM      5  C   UNL     1      -0.018   1.503   0.010  0.00  0.00    +0.062 C 
ATOM      6  C   UNL     1       0.002  -0.004   0.002  0.00  0.00    +0.018 C 
ATOM      7  C   UNL     1       0.007  -0.737  -1.093  0.00  0.00    +0.032 C 
ATOM      8  C   UNL     1       0.029  -2.184  -0.650  0.00  0.00    +0.183 C 
ATOM      9  N   UNL     1       0.035  -2.114   0.825  0.00  0.00    -0.216 NA
ATOM     10  N   UNL     1       0.024  -0.785   1.141  0.00  0.00    -0.265 N 
ATOM     11  H   UNL     1      -0.767  -2.588   1.213  0.00  0.00    +0.147 HD
BRANCH  10  12
ATOM     12  C   UNL     1       0.030  -0.258   2.507  0.00  0.00    +0.159 C 
BRANCH  12  13
ATOM     13  C   UNL     1      -1.389  -0.096   2.990  0.00  0.00    -0.029 A 
ATOM     14  C   UNL     1      -2.061   1.093   2.775  0.00  0.00    +0.005 A 
ATOM     15  C   UNL     1      -3.362   1.242   3.218  0.00  0.00    +0.000 A 
ATOM     16  C   UNL     1      -3.991   0.201   3.874  0.00  0.00    +0.000 A 
ATOM     17  C   UNL     1      -3.320  -0.989   4.088  0.00  0.00    +0.000 A 
ATOM     18  C   UNL     1      -2.021  -1.139   3.642  0.00  0.00    +0.005 A 
ENDBRANCH  12  13
ENDBRANCH  10  12
ENDBRANCH   1   8
BRANCH   2  19
ATOM     19  C   UNL     1       2.404  -4.775  -2.167  0.00  0.00    +0.133 C 
BRANCH  19  20
ATOM     20  C   UNL     1       2.046  -6.137  -2.703  0.00  0.00    -0.014 A 
ATOM     21  C   UNL     1       1.566  -6.444  -4.053  0.00  0.00    +0.003 A 
ATOM     22  C   UNL     1       1.303  -5.675  -5.188  0.00  0.00    +0.010 A 
ATOM     23  C   UNL     1       0.852  -6.279  -6.327  0.00  0.00    +0.001 A 
ATOM     24  C   UNL     1       0.653  -7.652  -6.366  0.00  0.00    +0.002 A 
ATOM     25  C   UNL     1       0.906  -8.430  -5.257  0.00  0.00    +0.026 A 
ATOM     26  C   UNL     1       1.366  -7.837  -4.087  0.00  0.00    +0.047 A 
ATOM     27  N   UNL     1       1.703  -8.326  -2.845  0.00  0.00    -0.360 N 
ATOM     28  C   UNL     1       2.110  -7.300  -2.036  0.00  0.00    +0.087 A 
ATOM     29  H   UNL     1       1.661  -9.259  -2.583  0.00  0.00    +0.165 HD
ENDBRANCH  19  20
ENDBRANCH   2  19
TORSDOF 5
