REMARK  Name = ZINC04927371
REMARK  9 active torsions:
REMARK  status: ('A' for Active; 'I' for Inactive)
REMARK    1  A    between atoms: C_1  and  C_2
REMARK    2  A    between atoms: C_2  and  C_3
REMARK    3  A    between atoms: C_2  and  C_4
REMARK    4  A    between atoms: C_4  and  N_5
REMARK    5  A    between atoms: C_6  and  C_8
REMARK    6  A    between atoms: C_8  and  S_9
REMARK    7  A    between atoms: S_9  and  C_10
REMARK    8  A    between atoms: C_14  and  C_17
REMARK    9  A    between atoms: N_25  and  C_26
REMARK                            x       y       z     vdW  Elec       q    Type
REMARK                         _______ _______ _______ _____ _____    ______ ____
ROOT
ATOM      1  C   UNL     1       1.105   2.016   0.002  0.00  0.00    +0.173 A 
ATOM      2  N   UNL     1      -0.016   1.324   0.009  0.00  0.00    -0.216 NA
ATOM      3  C   UNL     1       0.002  -0.004   0.002  0.00  0.00    +0.117 A 
ATOM      4  C   UNL     1       1.204  -0.733  -0.013  0.00  0.00    +0.080 A 
ATOM      5  C   UNL     1       1.045  -2.184  -0.020  0.00  0.00    +0.004 A 
ATOM      6  C   UNL     1      -0.205  -2.703  -0.011  0.00  0.00    +0.056 A 
ATOM      7  S   UNL     1      -1.251  -1.260   0.007  0.00  0.00    -0.076 S 
ATOM      8  C   UNL     1       2.404   0.043  -0.021  0.00  0.00    +0.263 A 
ATOM      9  O   UNL     1       3.493  -0.504  -0.034  0.00  0.00    -0.267 OA
ATOM     10  N   UNL     1       2.316   1.386  -0.013  0.00  0.00    -0.290 N 
ATOM     11  C   UNL     1       3.543   2.187  -0.021  0.00  0.00    +0.154 C 
ENDROOT
BRANCH   5  12
ATOM     12  C   UNL     1       2.231  -3.073  -0.035  0.00  0.00    -0.017 A 
ATOM     13  C   UNL     1       3.245  -2.871  -0.971  0.00  0.00    +0.008 A 
ATOM     14  C   UNL     1       4.349  -3.699  -0.977  0.00  0.00    +0.001 A 
ATOM     15  C   UNL     1       4.447  -4.734  -0.064  0.00  0.00    +0.000 A 
ATOM     16  C   UNL     1       3.441  -4.942   0.863  0.00  0.00    +0.001 A 
ATOM     17  C   UNL     1       2.335  -4.118   0.882  0.00  0.00    +0.008 A 
ENDBRANCH   5  12
BRANCH   1  18
ATOM     18  S   UNL     1       1.041   3.776   0.012  0.00  0.00    -0.078 S 
BRANCH  18  19
ATOM     19  C   UNL     1      -0.752   4.025   0.031  0.00  0.00    +0.173 C 
BRANCH  19  21
ATOM     20  N   UNL     1      -2.333   5.928   0.056  0.00  0.00    -0.314 N 
ATOM     21  C   UNL     1      -1.054   5.502   0.042  0.00  0.00    +0.223 C 
ATOM     22  O   UNL     1      -0.147   6.306   0.037  0.00  0.00    -0.275 OA
ATOM     23  H   UNL     1      -3.058   5.284   0.060  0.00  0.00    +0.149 HD
BRANCH  20  24
ATOM     24  C   UNL     1      -2.626   7.363   0.067  0.00  0.00    +0.107 C 
BRANCH  24  26
ATOM     25  C   UNL     1      -4.448   9.066   0.219  0.00  0.00    +0.009 C 
ATOM     26  C   UNL     1      -4.142   7.573   0.082  0.00  0.00    -0.000 C 
ATOM     27  C   UNL     1      -4.743   7.046  -1.222  0.00  0.00    +0.009 C 
ENDBRANCH  24  26
ENDBRANCH  20  24
ENDBRANCH  19  21
ENDBRANCH  18  19
ENDBRANCH   1  18
TORSDOF 6
