REMARK  Name = ZINC13561513
REMARK  15 active torsions:
REMARK  status: ('A' for Active; 'I' for Inactive)
REMARK    1  A    between atoms: C_1  and  C_2
REMARK    2  A    between atoms: C_2  and  C_3
REMARK    3  A    between atoms: C_3  and  C_5
REMARK    4  A    between atoms: C_3  and  N_6
REMARK    5  A    between atoms: N_6  and  C_7
REMARK    6  A    between atoms: N_6  and  C_31
REMARK    7  A    between atoms: C_7  and  C_8
REMARK    8  A    between atoms: C_8  and  N_9
REMARK    9  A    between atoms: N_14  and  C_15
REMARK   10  A    between atoms: C_15  and  C_16
REMARK   11  A    between atoms: N_25  and  C_30
REMARK   12  A    between atoms: N_28  and  C_29
REMARK   13  A    between atoms: C_31  and  C_33
REMARK   14  A    between atoms: C_31  and  C_34
REMARK   15  A    between atoms: C_34  and  C_35
REMARK                            x       y       z     vdW  Elec       q    Type
REMARK                         _______ _______ _______ _____ _____    ______ ____
ROOT
ATOM      1  N   UNL     1      -1.752   2.168   5.750  0.00  0.00    -0.317 N 
ATOM      2  C   UNL     1      -1.476   2.319   7.089  0.00  0.00    +0.198 A 
ATOM      3  N   UNL     1      -0.272   2.298   7.625  0.00  0.00    -0.196 NA
ATOM      4  C   UNL     1      -0.358   2.476   8.944  0.00  0.00    +0.170 A 
ATOM      5  C   UNL     1      -1.706   2.610   9.263  0.00  0.00    +0.153 A 
ATOM      6  N   UNL     1      -2.402   2.506   8.066  0.00  0.00    -0.302 N 
ATOM      7  C   UNL     1      -2.078   2.806  10.604  0.00  0.00    +0.282 A 
ATOM      8  O   UNL     1      -3.253   2.925  10.906  0.00  0.00    -0.265 OA
ATOM      9  N   UNL     1      -1.121   2.860  11.554  0.00  0.00    -0.262 N 
ATOM     10  C   UNL     1       0.178   2.730  11.236  0.00  0.00    +0.333 A 
ATOM     11  O   UNL     1       1.013   2.785  12.118  0.00  0.00    -0.246 OA
ATOM     12  N   UNL     1       0.578   2.541   9.964  0.00  0.00    -0.280 N 
ATOM     13  C   UNL     1       2.004   2.403   9.658  0.00  0.00    +0.155 C 
ATOM     14  C   UNL     1      -1.504   3.064  12.953  0.00  0.00    +0.157 C 
ATOM     15  H   UNL     1      -2.793   2.195   5.396  0.00  0.00    +0.149 HD
ENDROOT
BRANCH   1  16
ATOM     16  C   UNL     1      -0.659   1.971   4.794  0.00  0.00    +0.086 C 
BRANCH  16  17
ATOM     17  C   UNL     1      -1.235   1.832   3.383  0.00  0.00    -0.059 C 
BRANCH  17  18
ATOM     18  N   UNL     1      -0.136   1.772   2.410  0.00  0.00    +0.384 N 
ATOM     19  H   UNL     1       0.586   2.562   2.666  0.00  0.00    -0.081 HD
BRANCH  18  20
ATOM     20  C   UNL     1       0.563   0.482   2.482  0.00  0.00    -0.072 C 
ATOM     21  C   UNL     1      -0.414  -0.601   2.946  0.00  0.00    -0.013 C 
BRANCH  20  23
ATOM     22  C   UNL     1       2.752   1.588   2.958  0.00  0.00    +0.002 C 
ATOM     23  C   UNL     1       1.721   0.585   3.477  0.00  0.00    -0.019 C 
ENDBRANCH  20  23
ENDBRANCH  18  20
BRANCH  18  24
ATOM     24  C   UNL     1      -0.624   2.031   1.048  0.00  0.00    -0.072 C 
ATOM     25  C   UNL     1      -1.813   1.116   0.751  0.00  0.00    -0.013 C 
BRANCH  24  26
ATOM     26  C   UNL     1      -1.063   3.492   0.933  0.00  0.00    -0.019 C 
ATOM     27  C   UNL     1       0.133   4.407   1.204  0.00  0.00    +0.002 C 
ENDBRANCH  24  26
ENDBRANCH  18  24
ENDBRANCH  17  18
ENDBRANCH  16  17
ENDBRANCH   1  16
BRANCH   6  28
ATOM     28  C   UNL     1      -3.854   2.584   7.890  0.00  0.00    +0.160 C 
BRANCH  28  29
ATOM     29  C   UNL     1      -4.449   1.204   8.008  0.00  0.00    -0.028 A 
ATOM     30  C   UNL     1      -4.593   0.415   6.881  0.00  0.00    +0.007 A 
ATOM     31  C   UNL     1      -5.133  -0.852   6.989  0.00  0.00    +0.020 A 
ATOM     32  C   UNL     1      -5.540  -1.328   8.223  0.00  0.00    +0.041 A 
ATOM     33  C   UNL     1      -5.401  -0.536   9.349  0.00  0.00    +0.020 A 
ATOM     34  C   UNL     1      -4.856   0.730   9.241  0.00  0.00    +0.007 A 
ATOM     35 CL   UNL     1      -6.224  -2.917   8.359  0.00  0.00    -0.084 Cl
ENDBRANCH  28  29
ENDBRANCH   6  28
TORSDOF 9
