REMARK  Name = ZINC11858141
REMARK  7 active torsions:
REMARK  status: ('A' for Active; 'I' for Inactive)
REMARK    1  A    between atoms: C_1  and  C_2
REMARK    2  A    between atoms: C_5  and  N_9
REMARK    3  A    between atoms: N_9  and  S_10
REMARK    4  A    between atoms: S_10  and  C_13
REMARK    5  A    between atoms: C_14  and  C_28
REMARK    6  A    between atoms: C_16  and  N_20
REMARK    7  A    between atoms: C_18  and  C_19
REMARK                            x       y       z     vdW  Elec       q    Type
REMARK                         _______ _______ _______ _____ _____    ______ ____
ROOT
ATOM      1  C   UNL     1       5.715   0.233  -0.347  0.00  0.00    +0.114 A 
ATOM      2  C   UNL     1       4.586  -0.546  -0.518  0.00  0.00    -0.022 A 
ATOM      3  C   UNL     1       3.349  -0.067  -0.133  0.00  0.00    +0.030 A 
ATOM      4  C   UNL     1       3.240   1.199   0.427  0.00  0.00    +0.060 A 
ATOM      5  C   UNL     1       4.375   1.982   0.593  0.00  0.00    +0.030 A 
ATOM      6  C   UNL     1       5.610   1.494   0.211  0.00  0.00    -0.022 A 
ATOM      7  C   UNL     1       6.843   2.340   0.396  0.00  0.00    +0.046 C 
ATOM      8  C   UNL     1       4.704  -1.920  -1.126  0.00  0.00    +0.046 C 
ENDROOT
BRANCH   4   9
ATOM      9  N   UNL     1       1.989   1.687   0.819  0.00  0.00    -0.144 N 
ATOM     10  C   UNL     1       0.923   0.946   1.158  0.00  0.00    +0.240 C 
ATOM     11  O   UNL     1       0.991  -0.265   1.177  0.00  0.00    -0.274 OA
ATOM     12  C   UNL     1      -0.354   1.649   1.508  0.00  0.00    +0.122 C 
ATOM     13  C   UNL     1      -0.023   3.123   1.872  0.00  0.00    +0.198 C 
ATOM     14  S   UNL     1       1.556   3.300   0.946  0.00  0.00    +0.052 S 
ATOM     15  O   UNL     1       2.555   3.903   1.757  0.00  0.00    -0.155 OA
ATOM     16  O   UNL     1       1.319   3.740  -0.384  0.00  0.00    -0.155 OA
ENDBRANCH   4   9
BRANCH   1  17
ATOM     17  S   UNL     1       7.291  -0.383  -0.839  0.00  0.00    +0.073 S 
ATOM     18  O   UNL     1       7.046  -1.512  -1.665  0.00  0.00    -0.150 OA
ATOM     19  O   UNL     1       8.044   0.738  -1.283  0.00  0.00    -0.150 OA
BRANCH  17  20
ATOM     20  N   UNL     1       8.043  -0.948   0.524  0.00  0.00    -0.216 N 
ATOM     21  H   UNL     1       8.822  -0.489   0.874  0.00  0.00    +0.174 HD
BRANCH  20  26
ATOM     22  C   UNL     1       6.058  -5.568   3.148  0.00  0.00    +0.045 C 
ATOM     23  C   UNL     1       6.586  -4.340   2.450  0.00  0.00    -0.036 A 
ATOM     24  C   UNL     1       5.715  -3.335   2.070  0.00  0.00    +0.006 A 
ATOM     25  C   UNL     1       6.196  -2.207   1.436  0.00  0.00    +0.025 A 
ATOM     26  C   UNL     1       7.554  -2.086   1.170  0.00  0.00    +0.049 A 
ATOM     27  C   UNL     1       8.427  -3.096   1.554  0.00  0.00    +0.040 A 
ATOM     28  C   UNL     1       7.940  -4.221   2.193  0.00  0.00    +0.023 A 
ATOM     29 BR   UNL     1       9.126  -5.598   2.716  0.00  0.00    -0.050 Br
ENDBRANCH  20  26
ENDBRANCH  17  20
ENDBRANCH   1  17
TORSDOF 4
