REMARK  Name = ZINC65601793
REMARK  11 active torsions:
REMARK  status: ('A' for Active; 'I' for Inactive)
REMARK    1  A    between atoms: C_1  and  C_2
REMARK    2  A    between atoms: N_5  and  C_8
REMARK    3  A    between atoms: C_8  and  C_9
REMARK    4  A    between atoms: C_8  and  C_10
REMARK    5  A    between atoms: C_10  and  N_11
REMARK    6  A    between atoms: C_12  and  C_14
REMARK    7  A    between atoms: N_16  and  C_17
REMARK    8  A    between atoms: C_22  and  O_23
REMARK    9  A    between atoms: O_23  and  C_24
REMARK   10  A    between atoms: C_24  and  C_25
REMARK   11  A    between atoms: C_24  and  C_26
REMARK                            x       y       z     vdW  Elec       q    Type
REMARK                         _______ _______ _______ _____ _____    ______ ____
ROOT
ATOM      1  N   UNL     1       1.521  -2.901   2.432  0.00  0.00    -0.309 N 
ATOM      2  C   UNL     1       2.320  -3.180   3.480  0.00  0.00    +0.299 C 
ATOM      3  O   UNL     1       3.495  -3.425   3.300  0.00  0.00    -0.265 OA
ATOM      4  H   UNL     1       0.582  -2.705   2.576  0.00  0.00    +0.149 HD
ENDROOT
BRANCH   2   5
ATOM      5  C   UNL     1       1.760  -3.188   4.865  0.00  0.00    +0.303 C 
ATOM      6  O   UNL     1       0.585  -2.943   5.046  0.00  0.00    -0.265 OA
ATOM      7  N   UNL     1       2.560  -3.466   5.913  0.00  0.00    -0.275 N 
ATOM      8  H   UNL     1       3.483  -3.724   5.765  0.00  0.00    +0.155 HD
BRANCH   7   9
ATOM      9  C   UNL     1       2.058  -3.384   7.217  0.00  0.00    +0.076 A 
ATOM     10  C   UNL     1       0.708  -3.595   7.457  0.00  0.00    +0.027 A 
ATOM     11  C   UNL     1       0.215  -3.514   8.745  0.00  0.00    +0.002 A 
ATOM     12  C   UNL     1       1.064  -3.222   9.797  0.00  0.00    +0.004 A 
ATOM     13  C   UNL     1       2.410  -3.010   9.566  0.00  0.00    +0.047 A 
ATOM     14  C   UNL     1       2.914  -3.096   8.278  0.00  0.00    +0.142 A 
BRANCH  14  15
ATOM     15  O   UNL     1       4.239  -2.893   8.050  0.00  0.00    -0.488 OA
BRANCH  15  16
ATOM     16  C   UNL     1       5.034  -2.482   9.164  0.00  0.00    +0.167 C 
ATOM     17  C   UNL     1       5.471  -3.713   9.960  0.00  0.00    +0.051 C 
ATOM     18  C   UNL     1       6.270  -1.735   8.660  0.00  0.00    +0.051 C 
ENDBRANCH  15  16
ENDBRANCH  14  15
ENDBRANCH   7   9
ENDBRANCH   2   5
BRANCH   1  19
ATOM     19  C   UNL     1       2.070  -2.894   1.074  0.00  0.00    +0.089 C 
BRANCH  19  20
ATOM     20  C   UNL     1       0.998  -2.415   0.093  0.00  0.00    -0.054 C 
ATOM     21  C   UNL     1       1.611  -2.269  -1.302  0.00  0.00    -0.012 C 
BRANCH  20  26
ATOM     22  C   UNL     1      -0.760   2.974   0.725  0.00  0.00    +0.007 C 
ATOM     23  C   UNL     1      -0.190   1.677   0.145  0.00  0.00    -0.018 C 
ATOM     24  C   UNL     1       1.019   1.233   0.974  0.00  0.00    -0.016 C 
ATOM     25  C   UNL     1       1.534  -0.104   0.438  0.00  0.00    -0.078 C 
ATOM     26  N   UNL     1       0.475  -1.115   0.535  0.00  0.00    +0.382 N 
ATOM     27  C   UNL     1      -0.659  -0.732  -0.314  0.00  0.00    -0.078 C 
ATOM     28  C   UNL     1      -1.259   0.582   0.193  0.00  0.00    -0.016 C 
ATOM     29  H   UNL     1       0.167  -1.188   1.493  0.00  0.00    -0.081 HD
ENDBRANCH  20  26
ENDBRANCH  19  20
ENDBRANCH   1  19
TORSDOF 7
