REMARK  Name = ZINC20168395
REMARK  9 active torsions:
REMARK  status: ('A' for Active; 'I' for Inactive)
REMARK    1  A    between atoms: C_1  and  C_2
REMARK    2  A    between atoms: C_2  and  O_3
REMARK    3  A    between atoms: O_3  and  C_4
REMARK    4  A    between atoms: C_4  and  C_6
REMARK    5  A    between atoms: C_10  and  N_11
REMARK    6  A    between atoms: C_12  and  C_14
REMARK    7  A    between atoms: C_16  and  C_25
REMARK    8  A    between atoms: C_21  and  C_24
REMARK    9  A    between atoms: C_33  and  C_37
REMARK                            x       y       z     vdW  Elec       q    Type
REMARK                         _______ _______ _______ _____ _____    ______ ____
ROOT
ATOM      1  N   UNL     1       3.594   6.099   0.102  0.00  0.00    -0.275 N 
ATOM      2  C   UNL     1       2.422   5.440   0.008  0.00  0.00    +0.249 C 
ATOM      3  O   UNL     1       1.380   6.061  -0.070  0.00  0.00    -0.270 OA
ATOM      4  H   UNL     1       4.537   5.537   0.174  0.00  0.00    +0.156 HD
ENDROOT
BRANCH   2   5
ATOM      5  C   UNL     1       2.404   3.962   0.001  0.00  0.00    +0.048 A 
ATOM      6  C   UNL     1       3.581   3.225  -0.028  0.00  0.00    +0.042 A 
ATOM      7  C   UNL     1       3.516   1.824  -0.035  0.00  0.00    +0.072 A 
ATOM      8  N   UNL     1       2.372   1.173  -0.014  0.00  0.00    -0.247 NA
ATOM      9  C   UNL     1       1.195   1.799   0.015  0.00  0.00    +0.072 A 
ATOM     10  C   UNL     1       1.146   3.216   0.024  0.00  0.00    +0.013 A 
ATOM     11  C   UNL     1      -0.091   3.869   0.054  0.00  0.00    +0.014 A 
ATOM     12  C   UNL     1      -1.240   3.135   0.075  0.00  0.00    -0.050 A 
ATOM     13  C   UNL     1      -1.198   1.743   0.061  0.00  0.00    +0.005 A 
ATOM     14  C   UNL     1      -0.012   1.076   0.037  0.00  0.00    +0.028 A 
ATOM     15  C   UNL     1      -2.572   3.839   0.108  0.00  0.00    +0.044 C 
BRANCH   7  16
ATOM     16  C   UNL     1       4.780   1.050  -0.066  0.00  0.00    +0.000 A 
ATOM     17  C   UNL     1       6.006   1.713  -0.094  0.00  0.00    +0.011 A 
ATOM     18  C   UNL     1       7.179   0.988  -0.119  0.00  0.00    +0.020 A 
ATOM     19  C   UNL     1       7.141  -0.396  -0.125  0.00  0.00    +0.041 A 
ATOM     20  C   UNL     1       5.926  -1.060  -0.101  0.00  0.00    +0.020 A 
ATOM     21  C   UNL     1       4.747  -0.344  -0.072  0.00  0.00    +0.011 A 
ATOM     22 CL   UNL     1       8.621  -1.303  -0.162  0.00  0.00    -0.084 Cl
ENDBRANCH   7  16
ENDBRANCH   2   5
BRANCH   1  27
ATOM     23  C   UNL     1       4.706   8.333   0.204  0.00  0.00    +0.091 A 
ATOM     24  C   UNL     1       4.449   9.764   0.183  0.00  0.00    -0.021 A 
ATOM     25  C   UNL     1       3.148  10.113   0.084  0.00  0.00    -0.004 A 
ATOM     26  S   UNL     1       2.271   8.577   0.010  0.00  0.00    -0.077 S 
ATOM     27  C   UNL     1       3.611   7.484   0.109  0.00  0.00    +0.087 A 
ATOM     28  C   UNL     1       2.586  11.501   0.047  0.00  0.00    +0.046 C 
ATOM     29  C   UNL     1       3.675  12.476   0.515  0.00  0.00    -0.009 C 
ATOM     30  C   UNL     1       4.977  12.154  -0.224  0.00  0.00    +0.008 C 
ATOM     31  C   UNL     1       5.541  10.822   0.272  0.00  0.00    +0.037 C 
ATOM     32  C   UNL     1       3.247  13.912   0.204  0.00  0.00    +0.008 C 
BRANCH  23  33
ATOM     33  C   UNL     1       6.068   7.808   0.315  0.00  0.00    +0.342 C 
ATOM     34  O   UNL     1       6.721   7.594  -0.688  0.00  0.00    -0.245 OA
BRANCH  33  35
ATOM     35  O   UNL     1       6.598   7.560   1.531  0.00  0.00    -0.461 OA
BRANCH  35  37
ATOM     36  C   UNL     1       8.380   6.824   3.019  0.00  0.00    +0.048 C 
ATOM     37  C   UNL     1       7.953   7.040   1.565  0.00  0.00    +0.229 C 
ENDBRANCH  35  37
ENDBRANCH  33  35
ENDBRANCH  23  33
ENDBRANCH   1  27
TORSDOF 6
