REMARK  Name = ZINC12160617
REMARK  10 active torsions:
REMARK  status: ('A' for Active; 'I' for Inactive)
REMARK    1  A    between atoms: C_1  and  C_2
REMARK    2  A    between atoms: C_4  and  C_32
REMARK    3  A    between atoms: C_5  and  C_9
REMARK    4  A    between atoms: C_7  and  C_8
REMARK    5  A    between atoms: C_9  and  N_65
REMARK    6  A    between atoms: C_15  and  C_19
REMARK    7  A    between atoms: C_19  and  C_20
REMARK    8  A    between atoms: C_20  and  N_21
REMARK    9  A    between atoms: C_22  and  C_24
REMARK   10  A    between atoms: C_24  and  C_25
REMARK                            x       y       z     vdW  Elec       q    Type
REMARK                         _______ _______ _______ _____ _____    ______ ____
ROOT
ATOM      1  C   UNL     1      -0.640   3.031  -1.283  0.00  0.00    -0.071 C 
ATOM      2  C   UNL     1      -0.889   3.463  -2.732  0.00  0.00    +0.058 C 
ATOM      3  C   UNL     1       0.423   3.458  -3.473  0.00  0.00    +0.132 A 
ATOM      4  N   UNL     1       0.894   4.376  -4.264  0.00  0.00    -0.134 NA
ATOM      5  N   UNL     1       2.035   4.001  -4.729  0.00  0.00    -0.134 NA
ATOM      6  C   UNL     1       2.344   2.826  -4.245  0.00  0.00    +0.135 A 
ATOM      7  N   UNL     1       1.337   2.457  -3.425  0.00  0.00    -0.317 N 
ATOM      8  C   UNL     1       1.239   1.240  -2.618  0.00  0.00    +0.106 C 
ATOM      9  C   UNL     1      -0.238   0.903  -2.394  0.00  0.00    -0.056 C 
ATOM     10  N   UNL     1      -0.757   1.561  -1.172  0.00  0.00    +0.384 N 
ATOM     11  H   UNL     1      -1.748   1.316  -1.061  0.00  0.00    -0.081 HD
ENDROOT
BRANCH  10  12
ATOM     12  C   UNL     1      -0.013   1.086   0.008  0.00  0.00    -0.043 C 
BRANCH  12  17
ATOM     13  C   UNL     1      -2.718   2.950   4.762  0.00  0.00    +0.044 C 
ATOM     14  C   UNL     1      -2.013   2.464   3.522  0.00  0.00    -0.047 A 
ATOM     15  C   UNL     1      -2.498   1.365   2.837  0.00  0.00    +0.007 A 
ATOM     16  C   UNL     1      -1.854   0.923   1.696  0.00  0.00    -0.049 A 
ATOM     17  C   UNL     1      -0.718   1.572   1.248  0.00  0.00    -0.061 A 
ATOM     18  C   UNL     1      -0.233   2.670   1.933  0.00  0.00    +0.005 A 
ATOM     19  C   UNL     1      -0.880   3.116   3.071  0.00  0.00    -0.047 A 
ATOM     20  C   UNL     1      -0.352   4.313   3.818  0.00  0.00    +0.044 C 
ATOM     21  C   UNL     1      -2.386  -0.270   0.945  0.00  0.00    +0.044 C 
ENDBRANCH  12  17
ENDBRANCH  10  12
BRANCH   6  22
ATOM     22  C   UNL     1       3.589   2.032  -4.547  0.00  0.00    +0.095 C 
BRANCH  22  23
ATOM     23  C   UNL     1       4.682   2.397  -3.540  0.00  0.00    +0.112 C 
BRANCH  23  24
ATOM     24  N   UNL     1       5.892   1.625  -3.833  0.00  0.00    -0.315 N 
ATOM     25  C   UNL     1       6.993   1.783  -3.071  0.00  0.00    +0.217 C 
ATOM     26  O   UNL     1       6.981   2.563  -2.143  0.00  0.00    -0.275 OA
ATOM     27  H   UNL     1       5.902   1.001  -4.576  0.00  0.00    +0.149 HD
BRANCH  25  28
ATOM     28  C   UNL     1       8.238   0.989  -3.373  0.00  0.00    +0.130 C 
BRANCH  28  29
ATOM     29  C   UNL     1       9.315   1.348  -2.382  0.00  0.00    -0.038 A 
ATOM     30  C   UNL     1      10.191   2.381  -2.658  0.00  0.00    +0.007 A 
ATOM     31  C   UNL     1      11.176   2.714  -1.747  0.00  0.00    +0.038 A 
ATOM     32  C   UNL     1      11.291   2.006  -0.563  0.00  0.00    +0.123 A 
ATOM     33  C   UNL     1      10.416   0.969  -0.290  0.00  0.00    +0.038 A 
ATOM     34  C   UNL     1       9.429   0.640  -1.199  0.00  0.00    +0.007 A 
ATOM     35  F   UNL     1      12.257   2.328   0.326  0.00  0.00    -0.205 F 
ENDBRANCH  28  29
ENDBRANCH  25  28
ENDBRANCH  23  24
ENDBRANCH  22  23
ENDBRANCH   6  22
TORSDOF 7
