REMARK  Name = ZINC67174462
REMARK  6 active torsions:
REMARK  status: ('A' for Active; 'I' for Inactive)
REMARK    1  A    between atoms: C_1  and  C_2
REMARK    2  A    between atoms: C_5  and  C_7
REMARK    3  A    between atoms: C_13  and  C_15
REMARK    4  A    between atoms: C_15  and  C_16
REMARK    5  A    between atoms: C_16  and  C_18
REMARK    6  A    between atoms: C_16  and  N_23
REMARK                            x       y       z     vdW  Elec       q    Type
REMARK                         _______ _______ _______ _____ _____    ______ ____
ROOT
ATOM      1  C   UNL     1       1.039  -4.034  -0.024  0.00  0.00    +0.177 A 
ATOM      2  N   UNL     1       2.341  -4.268  -0.026  0.00  0.00    -0.203 NA
ATOM      3  C   UNL     1       2.737  -5.527  -0.034  0.00  0.00    +0.185 A 
ATOM      4  S   UNL     1       1.285  -6.373  -0.040  0.00  0.00    +0.050 S 
ATOM      5  N   UNL     1       0.226  -5.074  -0.025  0.00  0.00    -0.187 NA
ATOM      6  N   UNL     1       4.031  -6.028  -0.038  0.00  0.00    -0.263 N 
ATOM      7  C   UNL     1       4.238  -7.360  -0.047  0.00  0.00    +0.221 C 
ATOM      8  O   UNL     1       3.293  -8.120  -0.052  0.00  0.00    -0.275 OA
ATOM      9  H   UNL     1       4.787  -5.420  -0.035  0.00  0.00    +0.157 HD
ENDROOT
BRANCH   1  14
ATOM     10  C   UNL     1      -0.018   1.503   0.010  0.00  0.00    +0.051 C 
ATOM     11  C   UNL     1       0.002  -0.004   0.002  0.00  0.00    -0.013 A 
ATOM     12  C   UNL     1      -1.042  -0.872   0.002  0.00  0.00    +0.011 A 
ATOM     13  C   UNL     1      -0.789  -2.226  -0.007  0.00  0.00    +0.019 A 
ATOM     14  C   UNL     1       0.512  -2.653  -0.015  0.00  0.00    +0.057 A 
ATOM     15  S   UNL     1       1.405  -1.107  -0.018  0.00  0.00    -0.090 S 
ENDBRANCH   1  14
BRANCH   7  16
ATOM     16  C   UNL     1       5.644  -7.904  -0.052  0.00  0.00    +0.123 C 
BRANCH  16  17
ATOM     17  C   UNL     1       5.598  -9.433  -0.062  0.00  0.00    +0.120 C 
BRANCH  17  18
ATOM     18  N   UNL     1       5.000  -9.896  -1.317  0.00  0.00    -0.292 N 
ATOM     19  C   UNL     1       5.574  -9.579  -2.494  0.00  0.00    +0.298 C 
ATOM     20  O   UNL     1       6.588  -8.910  -2.515  0.00  0.00    -0.253 OA
ATOM     21  N   UNL     1       5.023 -10.005  -3.648  0.00  0.00    -0.313 N 
ATOM     22  H   UNL     1       4.190 -10.430  -1.300  0.00  0.00    +0.151 HD
ATOM     23  H   UNL     1       4.213 -10.539  -3.631  0.00  0.00    +0.146 HD
ATOM     24  H   UNL     1       5.436  -9.777  -4.496  0.00  0.00    +0.146 HD
ENDBRANCH  17  18
BRANCH  17  25
ATOM     25  C   UNL     1       6.998  -9.978   0.057  0.00  0.00    +0.010 A 
ATOM     26  C   UNL     1       7.634 -10.466   1.151  0.00  0.00    +0.013 A 
ATOM     27  C   UNL     1       8.934 -10.918   1.024  0.00  0.00    +0.008 A 
ATOM     28  C   UNL     1       9.535 -10.859  -0.190  0.00  0.00    +0.045 A 
ATOM     29  S   UNL     1       8.247 -10.155  -1.206  0.00  0.00    -0.100 S 
ENDBRANCH  17  25
ENDBRANCH  16  17
ENDBRANCH   7  16
TORSDOF 5
