REMARK  Name = ZINC39690164
REMARK  6 active torsions:
REMARK  status: ('A' for Active; 'I' for Inactive)
REMARK    1  A    between atoms: C_1  and  C_2
REMARK    2  A    between atoms: C_6  and  C_9
REMARK    3  A    between atoms: C_13  and  C_22
REMARK    4  A    between atoms: N_24  and  C_25
REMARK    5  A    between atoms: C_25  and  C_26
REMARK    6  A    between atoms: C_29  and  N_32
REMARK                            x       y       z     vdW  Elec       q    Type
REMARK                         _______ _______ _______ _____ _____    ______ ____
ROOT
ATOM      1  C   UNL     1      -0.088  -2.611   2.279  0.00  0.00    +0.252 C 
ATOM      2  O   UNL     1       1.017  -2.828   2.738  0.00  0.00    -0.270 OA
ATOM      3  N   UNL     1      -1.185  -3.053   2.926  0.00  0.00    -0.296 N 
ATOM      4  C   UNL     1      -2.602  -2.893   2.525  0.00  0.00    +0.121 C 
ATOM      5  C   UNL     1      -3.264  -4.243   2.883  0.00  0.00    +0.100 C 
ATOM      6  C   UNL     1      -2.370  -4.838   3.984  0.00  0.00    -0.004 C 
ATOM      7  C   UNL     1      -1.245  -3.814   4.197  0.00  0.00    +0.115 C 
ATOM      8  C   UNL     1      -3.168  -5.022   5.271  0.00  0.00    -0.010 C 
ATOM      9  C   UNL     1      -2.274  -5.668   6.333  0.00  0.00    -0.082 C 
ATOM     10  N   UNL     1      -1.790  -6.965   5.845  0.00  0.00    +0.379 N 
ATOM     11  C   UNL     1      -0.946  -6.770   4.660  0.00  0.00    -0.082 C 
ATOM     12  C   UNL     1      -1.784  -6.170   3.527  0.00  0.00    -0.010 C 
ATOM     13  H   UNL     1      -1.251  -7.416   6.569  0.00  0.00    -0.086 HD
ATOM     14  H   UNL     1      -2.578  -7.547   5.603  0.00  0.00    -0.086 HD
ENDROOT
BRANCH   1  20
ATOM     15  C   UNL     1      -0.610   1.724  -0.143  0.00  0.00    +0.047 C 
ATOM     16  C   UNL     1      -0.480   0.223  -0.158  0.00  0.00    -0.014 A 
ATOM     17  C   UNL     1      -0.493  -0.459  -1.361  0.00  0.00    +0.009 A 
ATOM     18  C   UNL     1      -0.374  -1.836  -1.387  0.00  0.00    +0.039 A 
ATOM     19  C   UNL     1      -0.242  -2.545  -0.207  0.00  0.00    +0.138 A 
ATOM     20  C   UNL     1      -0.229  -1.863   1.015  0.00  0.00    +0.107 A 
ATOM     21  C   UNL     1      -0.343  -0.469   1.031  0.00  0.00    +0.141 A 
ATOM     22  F   UNL     1      -0.325   0.199   2.205  0.00  0.00    -0.204 F 
ATOM     23  F   UNL     1      -0.128  -3.890  -0.234  0.00  0.00    -0.205 F 
ENDBRANCH   1  20
BRANCH   5  24
ATOM     24  C   UNL     1      -3.292  -5.150   1.680  0.00  0.00    +0.218 C 
ATOM     25  O   UNL     1      -2.422  -5.067   0.838  0.00  0.00    -0.275 OA
ATOM     26  N   UNL     1      -4.283  -6.052   1.539  0.00  0.00    -0.311 N 
ATOM     27  H   UNL     1      -4.978  -6.118   2.212  0.00  0.00    +0.149 HD
BRANCH  26  28
ATOM     28  C   UNL     1      -4.310  -6.934   0.369  0.00  0.00    +0.139 C 
BRANCH  28  29
ATOM     29  C   UNL     1      -5.510  -7.841   0.451  0.00  0.00    -0.030 A 
ATOM     30  C   UNL     1      -5.409  -9.063   1.089  0.00  0.00    +0.007 A 
ATOM     31  C   UNL     1      -6.508  -9.897   1.166  0.00  0.00    +0.026 A 
ATOM     32  C   UNL     1      -7.715  -9.506   0.603  0.00  0.00    +0.046 A 
ATOM     33  C   UNL     1      -7.814  -8.277  -0.036  0.00  0.00    +0.026 A 
ATOM     34  C   UNL     1      -6.713  -7.446  -0.106  0.00  0.00    +0.007 A 
BRANCH  32  35
ATOM     35  N   UNL     1      -8.832 -10.350   0.679  0.00  0.00    -0.323 N 
ATOM     36  C   UNL     1      -8.864 -11.575   1.282  0.00  0.00    +0.091 A 
ATOM     37  C   UNL     1     -10.109 -12.077   1.148  0.00  0.00    +0.019 A 
ATOM     38  C   UNL     1     -10.873 -11.130   0.436  0.00  0.00    +0.019 A 
ATOM     39  C   UNL     1     -10.069 -10.082   0.167  0.00  0.00    +0.091 A 
ENDBRANCH  32  35
ENDBRANCH  28  29
ENDBRANCH  26  28
ENDBRANCH   5  24
TORSDOF 5
