REMARK  Name = ZINC39667462
REMARK  10 active torsions:
REMARK  status: ('A' for Active; 'I' for Inactive)
REMARK    1  A    between atoms: C_1  and  C_2
REMARK    2  A    between atoms: C_2  and  C_3
REMARK    3  A    between atoms: C_3  and  C_4
REMARK    4  A    between atoms: C_4  and  C_6
REMARK    5  A    between atoms: C_4  and  C_7
REMARK    6  A    between atoms: C_11  and  C_20
REMARK    7  A    between atoms: N_22  and  C_23
REMARK    8  A    between atoms: C_23  and  C_24
REMARK    9  A    between atoms: C_28  and  C_31
REMARK   10  A    between atoms: C_29  and  C_30
REMARK                            x       y       z     vdW  Elec       q    Type
REMARK                         _______ _______ _______ _____ _____    ______ ____
ROOT
ATOM      1  C   UNL     1       1.302  -2.756   2.713  0.00  0.00    +0.218 C 
ATOM      2  O   UNL     1       1.572  -2.048   3.661  0.00  0.00    -0.275 OA
ATOM      3  N   UNL     1       1.550  -4.080   2.769  0.00  0.00    -0.300 N 
ATOM      4  C   UNL     1       1.394  -5.079   1.686  0.00  0.00    +0.121 C 
ATOM      5  C   UNL     1       2.610  -6.019   1.844  0.00  0.00    +0.100 C 
ATOM      6  C   UNL     1       3.028  -5.875   3.317  0.00  0.00    -0.004 C 
ATOM      7  C   UNL     1       2.046  -4.864   3.925  0.00  0.00    +0.115 C 
ATOM      8  C   UNL     1       4.454  -5.340   3.412  0.00  0.00    -0.010 C 
ATOM      9  C   UNL     1       4.867  -5.260   4.884  0.00  0.00    -0.082 C 
ATOM     10  N   UNL     1       4.782  -6.594   5.492  0.00  0.00    +0.379 N 
ATOM     11  C   UNL     1       3.391  -7.062   5.480  0.00  0.00    -0.082 C 
ATOM     12  C   UNL     1       2.915  -7.218   4.033  0.00  0.00    -0.010 C 
ATOM     13  H   UNL     1       5.357  -7.237   4.968  0.00  0.00    -0.086 HD
ATOM     14  H   UNL     1       5.113  -6.550   6.444  0.00  0.00    -0.086 HD
ENDROOT
BRANCH   5  15
ATOM     15  C   UNL     1       2.216  -7.443   1.545  0.00  0.00    +0.218 C 
ATOM     16  O   UNL     1       1.084  -7.817   1.767  0.00  0.00    -0.275 OA
ATOM     17  N   UNL     1       3.120  -8.299   1.031  0.00  0.00    -0.311 N 
ATOM     18  H   UNL     1       4.026  -7.999   0.853  0.00  0.00    +0.149 HD
BRANCH  17  19
ATOM     19  C   UNL     1       2.737  -9.682   0.740  0.00  0.00    +0.139 C 
BRANCH  19  20
ATOM     20  C   UNL     1       3.921 -10.424   0.176  0.00  0.00    -0.027 A 
ATOM     21  C   UNL     1       4.033 -10.614  -1.188  0.00  0.00    +0.005 A 
ATOM     22  C   UNL     1       5.119 -11.295  -1.705  0.00  0.00    +0.001 A 
ATOM     23  C   UNL     1       6.095 -11.785  -0.857  0.00  0.00    +0.003 A 
ATOM     24  C   UNL     1       5.984 -11.595   0.508  0.00  0.00    -0.047 A 
ATOM     25  C   UNL     1       4.899 -10.910   1.024  0.00  0.00    -0.043 A 
ATOM     26  C   UNL     1       4.781 -10.698   2.511  0.00  0.00    +0.044 C 
ATOM     27  C   UNL     1       7.047 -12.130   1.432  0.00  0.00    +0.044 C 
ENDBRANCH  19  20
ENDBRANCH  17  19
ENDBRANCH   5  15
BRANCH   1  28
ATOM     28  C   UNL     1       0.690  -2.155   1.474  0.00  0.00    +0.072 C 
ATOM     29  C   UNL     1       1.801  -1.715   0.519  0.00  0.00    +0.017 C 
BRANCH  28  30
ATOM     30  C   UNL     1      -0.160  -0.944   1.862  0.00  0.00    +0.012 C 
BRANCH  30  32
ATOM     31  C   UNL     1      -1.730   0.803   1.009  0.00  0.00    +0.004 C 
ATOM     32  C   UNL     1      -0.880  -0.409   0.622  0.00  0.00    -0.003 C 
ENDBRANCH  30  32
ENDBRANCH  28  30
ENDBRANCH   1  28
TORSDOF 6
