REMARK  Name = ZINC44325551
REMARK  9 active torsions:
REMARK  status: ('A' for Active; 'I' for Inactive)
REMARK    1  A    between atoms: C_1  and  O_2
REMARK    2  A    between atoms: O_2  and  C_3
REMARK    3  A    between atoms: C_11  and  C_13
REMARK    4  A    between atoms: C_13  and  CA_14
REMARK    5  A    between atoms: CA_14  and  C_16
REMARK    6  A    between atoms: CA_14  and  N_19
REMARK    7  A    between atoms: C_20  and  O_22
REMARK    8  A    between atoms: O_22  and  C_23
REMARK    9  A    between atoms: C_23  and  C_24
REMARK                            x       y       z     vdW  Elec       q    Type
REMARK                         _______ _______ _______ _____ _____    ______ ____
ROOT
ATOM      1  N   UNL     1       1.587  -5.141  -1.788  0.00  0.00    -0.267 N 
ATOM      2  C   UNL     1       2.801  -5.042  -2.364  0.00  0.00    +0.401 C 
ATOM      3  O   UNL     1       3.728  -5.709  -1.948  0.00  0.00    -0.226 OA
ATOM      4  H   UNL     1       0.847  -4.609  -2.120  0.00  0.00    +0.153 HD
ENDROOT
BRANCH   1   5
ATOM      5  CA  UNL     1       1.384  -6.053  -0.659  0.00  0.00    +0.195 C 
BRANCH   5   6
ATOM      6  C   UNL     1       1.091  -7.437  -1.179  0.00  0.00    +0.376 C 
ATOM      7  O   UNL     1       0.527  -7.579  -2.251  0.00  0.00    -0.244 OA
ATOM      8  OXT UNL     1       1.417  -8.415  -0.527  0.00  0.00    -0.244 OA
ENDBRANCH   5   6
BRANCH   5   9
ATOM      9  C   UNL     1       0.205  -5.565   0.185  0.00  0.00    +0.087 C 
BRANCH   9  18
ATOM     10  C   UNL     1       0.626  -0.619   1.042  0.00  0.00    +0.144 A 
ATOM     11  C   UNL     1       1.201   0.133   2.049  0.00  0.00    +0.048 A 
ATOM     12  C   UNL     1       1.840  -0.484   3.115  0.00  0.00    +0.004 A 
ATOM     13  C   UNL     1       1.913  -1.847   3.187  0.00  0.00    +0.010 A 
ATOM     14  C   UNL     1       1.339  -2.628   2.180  0.00  0.00    +0.004 A 
ATOM     15  C   UNL     1       0.684  -2.011   1.100  0.00  0.00    +0.089 A 
ATOM     16  N   UNL     1       0.217  -3.016   0.280  0.00  0.00    -0.355 N 
ATOM     17  H   UNL     1      -0.272  -2.879  -0.546  0.00  0.00    +0.166 HD
ATOM     18  C   UNL     1       0.548  -4.235   0.805  0.00  0.00    +0.019 A 
ATOM     19  C   UNL     1       1.234  -4.070   1.947  0.00  0.00    +0.031 A 
BRANCH  10  21
ATOM     20  C   UNL     1      -0.017   1.425   0.010  0.00  0.00    +0.277 C 
ATOM     21  O   UNL     1       0.002  -0.004   0.002  0.00  0.00    -0.493 OA
ENDBRANCH  10  21
ENDBRANCH   9  18
ENDBRANCH   5   9
ENDBRANCH   1   5
BRANCH   2  22
ATOM     22  O   UNL     1       2.988  -4.204  -3.401  0.00  0.00    -0.449 OA
BRANCH  22  23
ATOM     23  C   UNL     1       4.300  -4.149  -3.963  0.00  0.00    +0.246 C 
BRANCH  23  24
ATOM     24  C   UNL     1       4.318  -3.150  -5.121  0.00  0.00    +0.088 C 
ATOM     25  C   UNL     1       3.499  -3.676  -6.274  0.00  0.00    -0.029 A 
ATOM     26  C   UNL     1       2.166  -4.010  -6.386  0.00  0.00    +0.005 A 
ATOM     27  C   UNL     1       1.668  -4.479  -7.589  0.00  0.00    +0.000 A 
ATOM     28  C   UNL     1       2.507  -4.613  -8.681  0.00  0.00    +0.001 A 
ATOM     29  C   UNL     1       3.842  -4.282  -8.578  0.00  0.00    +0.009 A 
ATOM     30  C   UNL     1       4.351  -3.808  -7.368  0.00  0.00    -0.014 A 
ATOM     31  C   UNL     1       5.720  -3.385  -6.982  0.00  0.00    -0.014 A 
ATOM     32  C   UNL     1       5.723  -2.989  -5.647  0.00  0.00    -0.029 A 
ATOM     33  C   UNL     1       6.889  -2.551  -5.055  0.00  0.00    +0.005 A 
ATOM     34  C   UNL     1       8.062  -2.503  -5.787  0.00  0.00    +0.000 A 
ATOM     35  C   UNL     1       8.069  -2.894  -7.113  0.00  0.00    +0.001 A 
ATOM     36  C   UNL     1       6.907  -3.334  -7.714  0.00  0.00    +0.009 A 
ENDBRANCH  23  24
ENDBRANCH  22  23
ENDBRANCH   2  22
TORSDOF 8
