REMARK  Name = ZINC39529236
REMARK  10 active torsions:
REMARK  status: ('A' for Active; 'I' for Inactive)
REMARK    1  A    between atoms: C_1  and  C_2
REMARK    2  A    between atoms: C_2  and  C_3
REMARK    3  A    between atoms: C_3  and  C_4
REMARK    4  A    between atoms: C_6  and  S_27
REMARK    5  A    between atoms: C_9  and  N_10
REMARK    6  A    between atoms: C_14  and  S_17
REMARK    7  A    between atoms: S_17  and  O_20
REMARK    8  A    between atoms: O_20  and  C_21
REMARK    9  A    between atoms: S_27  and  O_30
REMARK   10  A    between atoms: O_30  and  C_31
REMARK                            x       y       z     vdW  Elec       q    Type
REMARK                         _______ _______ _______ _____ _____    ______ ____
ROOT
ATOM      1  C   UNL     1       0.447  -2.394  -1.720  0.00  0.00    -0.024 A 
ATOM      2  C   UNL     1       1.505  -3.196  -1.339  0.00  0.00    +0.036 A 
ATOM      3  C   UNL     1       1.398  -4.572  -1.429  0.00  0.00    +0.128 A 
ATOM      4  C   UNL     1       0.232  -5.149  -1.900  0.00  0.00    +0.032 A 
ATOM      5  C   UNL     1      -0.829  -4.352  -2.282  0.00  0.00    +0.025 A 
ATOM      6  C   UNL     1      -0.727  -2.970  -2.188  0.00  0.00    +0.033 A 
ENDROOT
BRANCH   6   7
ATOM      7  N   UNL     1      -1.800  -2.161  -2.568  0.00  0.00    -0.331 N 
ATOM      8  C   UNL     1      -1.936  -1.687  -3.954  0.00  0.00    +0.086 C 
ATOM      9  C   UNL     1      -2.162  -0.172  -3.929  0.00  0.00    -0.061 C 
ATOM     10  N   UNL     1      -3.311   0.136  -3.068  0.00  0.00    +0.398 N 
ATOM     11  C   UNL     1      -3.012  -0.242  -1.681  0.00  0.00    +0.133 C 
ATOM     12  C   UNL     1      -2.830  -1.765  -1.596  0.00  0.00    +0.115 C 
ATOM     13  H   UNL     1      -3.507   1.125  -3.111  0.00  0.00    -0.083 HD
ATOM     14  H   UNL     1      -4.118  -0.378  -3.388  0.00  0.00    -0.083 HD
BRANCH  11  15
ATOM     15  S   UNL     1      -4.384   0.263  -0.607  0.00  0.00    +0.109 S 
ATOM     16  O   UNL     1      -5.591  -0.352  -1.034  0.00  0.00    -0.138 OA
ATOM     17  O   UNL     1      -3.985   0.208   0.756  0.00  0.00    -0.138 OA
BRANCH  15  18
ATOM     18  O   UNL     1      -4.580   1.745  -0.894  0.00  0.00    -0.347 OA
BRANCH  18  19
ATOM     19  C   UNL     1      -3.645   2.548  -0.321  0.00  0.00    +0.156 A 
ATOM     20  C   UNL     1      -3.789   2.951   0.998  0.00  0.00    +0.048 A 
ATOM     21  C   UNL     1      -2.837   3.767   1.578  0.00  0.00    +0.004 A 
ATOM     22  C   UNL     1      -1.741   4.181   0.844  0.00  0.00    +0.000 A 
ATOM     23  C   UNL     1      -1.595   3.781  -0.471  0.00  0.00    +0.004 A 
ATOM     24  C   UNL     1      -2.542   2.961  -1.054  0.00  0.00    +0.048 A 
ENDBRANCH  18  19
ENDBRANCH  15  18
ENDBRANCH  11  15
ENDBRANCH   6   7
BRANCH   3  25
ATOM     25  S   UNL     1       2.750  -5.592  -0.944  0.00  0.00    +0.151 S 
ATOM     26  O   UNL     1       2.599  -6.824  -1.636  0.00  0.00    -0.131 OA
ATOM     27  O   UNL     1       3.921  -4.795  -1.055  0.00  0.00    -0.131 OA
BRANCH  25  28
ATOM     28  O   UNL     1       2.572  -5.901   0.536  0.00  0.00    -0.342 OA
BRANCH  28  29
ATOM     29  C   UNL     1       1.601  -6.815   0.797  0.00  0.00    +0.157 A 
ATOM     30  C   UNL     1       0.295  -6.400   1.012  0.00  0.00    +0.048 A 
ATOM     31  C   UNL     1      -0.690  -7.331   1.277  0.00  0.00    +0.004 A 
ATOM     32  C   UNL     1      -0.376  -8.676   1.329  0.00  0.00    +0.000 A 
ATOM     33  C   UNL     1       0.925  -9.093   1.115  0.00  0.00    +0.004 A 
ATOM     34  C   UNL     1       1.913  -8.166   0.844  0.00  0.00    +0.048 A 
ENDBRANCH  28  29
ENDBRANCH  25  28
ENDBRANCH   3  25
BRANCH   1  35
ATOM     35  C   UNL     1       0.565  -0.894  -1.623  0.00  0.00    +0.037 C 
BRANCH  35  37
ATOM     36  C   UNL     1       0.096   1.100  -0.192  0.00  0.00    +0.004 C 
ATOM     37  C   UNL     1      -0.024  -0.422  -0.291  0.00  0.00    +0.001 C 
ENDBRANCH  35  37
ENDBRANCH   1  35
TORSDOF 9
