REMARK  Name = ZINC52902846
REMARK  4 active torsions:
REMARK  status: ('A' for Active; 'I' for Inactive)
REMARK    1  A    between atoms: C_3  and  C_6
REMARK    2  A    between atoms: C_6  and  C_8
REMARK    3  A    between atoms: C_6  and  C_10
REMARK    4  A    between atoms: C_10  and  C_12
REMARK                            x       y       z     vdW  Elec       q    Type
REMARK                         _______ _______ _______ _____ _____    ______ ____
ROOT
ATOM      1  C   UNL     1       3.761   1.845  -0.024  0.00  0.00    +0.202 C 
ENDROOT
BRANCH   1   4
ATOM      2  C   UNL     1      -0.016   1.351   0.009  0.00  0.00    +0.008 A 
ATOM      3  C   UNL     1       1.183   2.038   0.002  0.00  0.00    +0.013 A 
ATOM      4  C   UNL     1       2.343   1.336  -0.013  0.00  0.00    +0.014 A 
ATOM      5  S   UNL     1       1.754  -0.349  -0.017  0.00  0.00    -0.100 S 
ATOM      6  C   UNL     1       0.002  -0.004   0.002  0.00  0.00    +0.045 A 
ENDBRANCH   1   4
BRANCH   1   7
ATOM      7  C   UNL     1       4.445   1.364  -1.235  0.00  0.00    +0.079 C 
ATOM      8  N   UNL     1       4.974   0.993  -2.170  0.00  0.00    -0.195 NA
ENDBRANCH   1   7
BRANCH   1   9
ATOM      9  C   UNL     1       4.486   1.341   1.197  0.00  0.00    +0.220 C 
ATOM     10  O   UNL     1       4.175   0.275   1.690  0.00  0.00    -0.287 OA
BRANCH   9  11
ATOM     11  C   UNL     1       5.526   2.106   1.767  0.00  0.00    +0.173 A 
ATOM     12  C   UNL     1       6.275   1.764   2.876  0.00  0.00    +0.054 A 
ATOM     13  C   UNL     1       7.184   2.808   3.081  0.00  0.00    +0.057 A 
ATOM     14  C   UNL     1       6.963   3.729   2.112  0.00  0.00    +0.171 A 
ATOM     15  O   UNL     1       5.971   3.301   1.321  0.00  0.00    -0.445 OA
ATOM     16 BR   UNL     1       7.909   5.353   1.904  0.00  0.00    -0.008 Br
ENDBRANCH   9  11
ENDBRANCH   1   9
TORSDOF 4
