REMARK  Name = ZINC38897933
REMARK  9 active torsions:
REMARK  status: ('A' for Active; 'I' for Inactive)
REMARK    1  A    between atoms: C_1  and  C_2
REMARK    2  A    between atoms: C_2  and  O_3
REMARK    3  A    between atoms: O_3  and  C_4
REMARK    4  A    between atoms: C_7  and  C_10
REMARK    5  A    between atoms: C_11  and  C_32
REMARK    6  A    between atoms: C_12  and  C_16
REMARK    7  A    between atoms: N_18  and  N_19
REMARK    8  A    between atoms: C_20  and  C_21
REMARK    9  A    between atoms: C_30  and  O_31
REMARK                            x       y       z     vdW  Elec       q    Type
REMARK                         _______ _______ _______ _____ _____    ______ ____
ROOT
ATOM      1  C   UNL     1       0.604  -8.784  -3.625  0.00  0.00    +0.263 C 
ATOM      2  O   UNL     1      -0.553  -9.019  -3.346  0.00  0.00    -0.271 OA
ATOM      3  N   UNL     1       1.091  -9.130  -4.833  0.00  0.00    -0.205 N 
ATOM      4  H   UNL     1       2.016  -8.942  -5.056  0.00  0.00    +0.177 HD
ENDROOT
BRANCH   1   7
ATOM      5  C   UNL     1       1.120  -6.020  -1.839  0.00  0.00    +0.094 C 
ATOM      6  C   UNL     1       1.628  -6.624  -2.931  0.00  0.00    -0.010 C 
ATOM      7  C   UNL     1       1.498  -8.105  -2.619  0.00  0.00    +0.243 C 
ATOM      8  N   UNL     1       0.883  -8.114  -1.282  0.00  0.00    -0.170 NA
ATOM      9  N   UNL     1       0.716  -6.945  -0.929  0.00  0.00    -0.153 NA
ATOM     10  C   UNL     1       2.192  -5.981  -4.171  0.00  0.00    +0.044 C 
BRANCH   5  14
ATOM     11  C   UNL     1       0.837  -1.809  -1.308  0.00  0.00    +0.121 A 
ATOM     12  C   UNL     1       0.419  -2.386  -2.499  0.00  0.00    +0.046 A 
ATOM     13  C   UNL     1       0.510  -3.751  -2.674  0.00  0.00    +0.013 A 
ATOM     14  C   UNL     1       1.022  -4.551  -1.654  0.00  0.00    +0.002 A 
ATOM     15  C   UNL     1       1.440  -3.968  -0.459  0.00  0.00    +0.013 A 
ATOM     16  C   UNL     1       1.352  -2.602  -0.291  0.00  0.00    +0.046 A 
BRANCH  11  17
ATOM     17  O   UNL     1       0.747  -0.464  -1.138  0.00  0.00    -0.492 OA
BRANCH  17  19
ATOM     18  C   UNL     1       0.185   1.776  -1.851  0.00  0.00    +0.048 C 
ATOM     19  C   UNL     1       0.207   0.292  -2.224  0.00  0.00    +0.225 C 
ENDBRANCH  17  19
ENDBRANCH  11  17
ENDBRANCH   5  14
ENDBRANCH   1   7
BRANCH   3  20
ATOM     20  N   UNL     1       0.260  -9.761  -5.768  0.00  0.00    -0.188 NA
ATOM     21  C   UNL     1       0.728 -10.095  -6.934  0.00  0.00    +0.142 C 
BRANCH  21  22
ATOM     22  C   UNL     1      -0.144 -10.757  -7.914  0.00  0.00    +0.044 A 
ATOM     23  C   UNL     1       0.369 -11.145  -9.227  0.00  0.00    -0.006 A 
ATOM     24  C   UNL     1       1.698 -10.901  -9.594  0.00  0.00    +0.009 A 
ATOM     25  C   UNL     1       2.136 -11.278 -10.828  0.00  0.00    +0.001 A 
ATOM     26  C   UNL     1       1.280 -11.904 -11.731  0.00  0.00    +0.001 A 
ATOM     27  C   UNL     1      -0.018 -12.156 -11.406  0.00  0.00    +0.008 A 
ATOM     28  C   UNL     1      -0.505 -11.781 -10.142  0.00  0.00    -0.017 A 
ATOM     29  C   UNL     1      -1.839 -12.026  -9.772  0.00  0.00    +0.012 A 
ATOM     30  C   UNL     1      -2.299 -11.660  -8.546  0.00  0.00    +0.046 A 
ATOM     31  C   UNL     1      -1.476 -11.035  -7.610  0.00  0.00    +0.126 A 
BRANCH  31  32
ATOM     32  O   UNL     1      -1.976 -10.691  -6.396  0.00  0.00    -0.506 OA
ATOM     33  H   UNL     1      -2.359  -9.803  -6.365  0.00  0.00    +0.292 HD
ENDBRANCH  31  32
ENDBRANCH  21  22
ENDBRANCH   3  20
TORSDOF 7
