REMARK  Name = ZINC66080048
REMARK  11 active torsions:
REMARK  status: ('A' for Active; 'I' for Inactive)
REMARK    1  A    between atoms: C_1  and  C_2
REMARK    2  A    between atoms: C_2  and  O_3
REMARK    3  A    between atoms: O_3  and  C_4
REMARK    4  A    between atoms: C_6  and  C_24
REMARK    5  A    between atoms: C_7  and  O_23
REMARK    6  A    between atoms: C_8  and  C_10
REMARK    7  A    between atoms: C_10  and  N_11
REMARK    8  A    between atoms: C_15  and  C_18
REMARK    9  A    between atoms: C_18  and  C_19
REMARK   10  A    between atoms: C_19  and  C_20
REMARK   11  A    between atoms: C_24  and  C_25
REMARK                            x       y       z     vdW  Elec       q    Type
REMARK                         _______ _______ _______ _____ _____    ______ ____
ROOT
ATOM      1  C   UNL     1       2.281  -4.287   3.761  0.00  0.00    -0.039 C 
ENDROOT
BRANCH   1   2
ATOM      2  N   UNL     1       3.681  -4.564   3.413  0.00  0.00    +0.383 N 
ATOM      3  C   UNL     1       3.727  -5.526   2.305  0.00  0.00    -0.078 C 
ATOM      4  C   UNL     1       5.179  -5.756   1.885  0.00  0.00    -0.018 C 
ATOM      5  C   UNL     1       5.968  -6.309   3.075  0.00  0.00    -0.000 C 
ATOM      6  C   UNL     1       5.852  -5.332   4.249  0.00  0.00    -0.027 C 
ATOM      7  C   UNL     1       4.374  -5.117   4.582  0.00  0.00    -0.075 C 
ATOM      8  H   UNL     1       4.132  -3.707   3.130  0.00  0.00    -0.081 HD
BRANCH   6   9
ATOM      9  C   UNL     1       6.572  -5.911   5.469  0.00  0.00    +0.011 C 
BRANCH   9  10
ATOM     10  C   UNL     1       8.070  -6.013   5.175  0.00  0.00    +0.096 C 
BRANCH  10  11
ATOM     11  C   UNL     1       8.780  -6.583   6.376  0.00  0.00    +0.210 C 
ATOM     12  O   UNL     1       8.150  -6.879   7.369  0.00  0.00    -0.276 OA
ATOM     13  N   UNL     1      10.115  -6.765   6.346  0.00  0.00    -0.329 N 
ATOM     14  H   UNL     1      10.620  -6.529   5.552  0.00  0.00    +0.145 HD
ATOM     15  H   UNL     1      10.572  -7.132   7.119  0.00  0.00    +0.145 HD
ENDBRANCH  10  11
ENDBRANCH   9  10
ENDBRANCH   6   9
ENDBRANCH   1   2
BRANCH   1  20
ATOM     16  C   UNL     1       0.093  -3.640   0.748  0.00  0.00    +0.121 A 
ATOM     17  C   UNL     1       0.364  -2.305   0.490  0.00  0.00    +0.053 A 
ATOM     18  C   UNL     1       1.253  -1.613   1.289  0.00  0.00    +0.001 A 
ATOM     19  C   UNL     1       1.876  -2.255   2.350  0.00  0.00    +0.122 A 
ATOM     20  C   UNL     1       1.605  -3.590   2.609  0.00  0.00    -0.019 A 
ATOM     21  C   UNL     1       0.711  -4.280   1.812  0.00  0.00    +0.051 A 
BRANCH  19  22
ATOM     22  O   UNL     1       2.752  -1.574   3.137  0.00  0.00    -0.506 OA
ATOM     23  H   UNL     1       2.333  -1.077   3.853  0.00  0.00    +0.292 HD
ENDBRANCH  19  22
BRANCH  16  24
ATOM     24  O   UNL     1      -0.782  -4.321  -0.039  0.00  0.00    -0.492 OA
BRANCH  24  26
ATOM     25  C   UNL     1      -2.329  -4.524  -1.884  0.00  0.00    +0.048 C 
ATOM     26  C   UNL     1      -1.381  -3.600  -1.117  0.00  0.00    +0.225 C 
ENDBRANCH  24  26
ENDBRANCH  16  24
BRANCH  18  27
ATOM     27  C   UNL     1       1.548  -0.162   1.008  0.00  0.00    +0.065 C 
BRANCH  27  28
ATOM     28  C   UNL     1       2.788  -0.057   0.157  0.00  0.00    -0.030 C 
ATOM     29  C   UNL     1       2.749   0.595  -0.978  0.00  0.00    +0.004 C 
ENDBRANCH  27  28
ENDBRANCH  18  27
ENDBRANCH   1  20
TORSDOF 10
