REMARK  Name = ZINC08966645
REMARK  6 active torsions:
REMARK  status: ('A' for Active; 'I' for Inactive)
REMARK    1  A    between atoms: C_1  and  O_2
REMARK    2  A    between atoms: O_2  and  C_3
REMARK    3  A    between atoms: C_6  and  S_9
REMARK    4  A    between atoms: S_9  and  N_12
REMARK    5  A    between atoms: N_14  and  C_23
REMARK    6  A    between atoms: C_23  and  C_24
REMARK                            x       y       z     vdW  Elec       q    Type
REMARK                         _______ _______ _______ _____ _____    ______ ____
ROOT
ATOM      1  N   UNL     1      -0.528  -3.950  -0.013  0.00  0.00    -0.103 NA
ATOM      2  C   UNL     1      -0.199  -2.685  -0.010  0.00  0.00    +0.196 A 
ATOM      3  N   UNL     1       1.054  -2.123  -0.019  0.00  0.00    -0.307 N 
ATOM      4  C   UNL     1       1.193  -0.743  -0.013  0.00  0.00    +0.059 A 
ATOM      5  C   UNL     1       2.389  -0.006  -0.021  0.00  0.00    +0.028 A 
ATOM      6  C   UNL     1       2.371   1.369  -0.013  0.00  0.00    +0.017 A 
ATOM      7  C   UNL     1       1.178   2.071   0.002  0.00  0.00    +0.019 A 
ATOM      8  C   UNL     1      -0.017   1.370   0.010  0.00  0.00    +0.032 A 
ATOM      9  C   UNL     1       0.002  -0.004   0.002  0.00  0.00    +0.040 A 
ATOM     10  S   UNL     1      -1.262  -1.252   0.008  0.00  0.00    -0.048 S 
ATOM     11 BR   UNL     1       1.179   3.962   0.011  0.00  0.00    -0.050 Br
ENDROOT
BRANCH   1  12
ATOM     12  S   UNL     1      -2.125  -4.390   0.000  0.00  0.00    +0.101 S 
ATOM     13  O   UNL     1      -2.650  -3.973   1.253  0.00  0.00    -0.146 OA
ATOM     14  O   UNL     1      -2.675  -3.960  -1.238  0.00  0.00    -0.146 OA
BRANCH  12  18
ATOM     15  C   UNL     1      -2.268  -8.916  -0.023  0.00  0.00    +0.120 A 
ATOM     16  C   UNL     1      -2.234  -8.228   1.181  0.00  0.00    +0.047 A 
ATOM     17  C   UNL     1      -2.191  -6.847   1.186  0.00  0.00    +0.032 A 
ATOM     18  C   UNL     1      -2.181  -6.151  -0.009  0.00  0.00    +0.113 A 
ATOM     19  C   UNL     1      -2.220  -6.834  -1.210  0.00  0.00    +0.032 A 
ATOM     20  C   UNL     1      -2.258  -8.215  -1.220  0.00  0.00    +0.047 A 
BRANCH  15  22
ATOM     21  C   UNL     1      -2.344 -10.916  -1.306  0.00  0.00    +0.277 C 
ATOM     22  O   UNL     1      -2.311 -10.274  -0.030  0.00  0.00    -0.495 OA
ENDBRANCH  15  22
ENDBRANCH  12  18
ENDBRANCH   1  12
BRANCH   3  23
ATOM     23  C   UNL     1       2.242  -2.979  -0.035  0.00  0.00    +0.213 C 
BRANCH  23  24
ATOM     24  C   UNL     1       2.655  -3.273   1.347  0.00  0.00    -0.084 C 
ATOM     25  C   UNL     1       2.983  -3.507   2.449  0.00  0.00    +0.005 C 
ENDBRANCH  23  24
ENDBRANCH   3  23
TORSDOF 5
