REMARK  Name = ZINC07194797
REMARK  9 active torsions:
REMARK  status: ('A' for Active; 'I' for Inactive)
REMARK    1  A    between atoms: C_1  and  C_2
REMARK    2  A    between atoms: C_7  and  C_8
REMARK    3  A    between atoms: C_8  and  C_9
REMARK    4  A    between atoms: C_8  and  C_10
REMARK    5  A    between atoms: C_11  and  C_16
REMARK    6  A    between atoms: C_16  and  S_17
REMARK    7  A    between atoms: S_17  and  C_18
REMARK    8  A    between atoms: C_21  and  C_23
REMARK    9  A    between atoms: C_27  and  C_28
REMARK                            x       y       z     vdW  Elec       q    Type
REMARK                         _______ _______ _______ _____ _____    ______ ____
ROOT
ATOM      1  C   UNL     1       8.867  -2.931   8.269  0.00  0.00    +0.044 C 
ATOM      2  C   UNL     1       8.381  -1.794   7.408  0.00  0.00    -0.044 A 
ATOM      3  C   UNL     1       8.911  -0.532   7.580  0.00  0.00    +0.050 A 
ATOM      4  C   UNL     1       8.466   0.518   6.788  0.00  0.00    +0.140 A 
ATOM      5  C   UNL     1       7.477   0.278   5.817  0.00  0.00    +0.022 A 
ATOM      6  C   UNL     1       6.953  -1.008   5.658  0.00  0.00    +0.016 A 
ATOM      7  C   UNL     1       7.406  -2.027   6.449  0.00  0.00    -0.041 A 
ATOM      8  C   UNL     1       7.013   1.392   4.984  0.00  0.00    -0.020 A 
ATOM      9  C   UNL     1       7.567   2.615   5.184  0.00  0.00    +0.097 A 
ATOM     10  C   UNL     1       8.552   2.785   6.181  0.00  0.00    +0.338 A 
ATOM     11  O   UNL     1       9.036   3.889   6.354  0.00  0.00    -0.245 OA
ATOM     12  O   UNL     1       8.971   1.761   6.939  0.00  0.00    -0.422 OA
ENDROOT
BRANCH   7  13
ATOM     13  C   UNL     1       6.841  -3.413   6.279  0.00  0.00    +0.013 C 
ATOM     14  C   UNL     1       5.363  -3.414   6.673  0.00  0.00    +0.012 C 
ATOM     15  C   UNL     1       6.979  -3.844   4.817  0.00  0.00    +0.012 C 
ENDBRANCH   7  13
BRANCH   8  16
ATOM     16  C   UNL     1       5.956   1.184   3.931  0.00  0.00    +0.115 C 
BRANCH  16  17
ATOM     17  S   UNL     1       4.320   1.453   4.657  0.00  0.00    -0.061 S 
BRANCH  17  18
ATOM     18  C   UNL     1       3.306   1.153   3.247  0.00  0.00    +0.278 A 
ATOM     19  N   UNL     1       3.723   0.829   2.047  0.00  0.00    -0.101 NA
ATOM     20  N   UNL     1       2.711   0.687   1.265  0.00  0.00    -0.106 NA
ATOM     21  C   UNL     1       1.608   0.914   1.936  0.00  0.00    +0.253 A 
ATOM     22  O   UNL     1       1.961   1.219   3.204  0.00  0.00    -0.411 OA
BRANCH  21  23
ATOM     23  C   UNL     1       0.231   0.855   1.401  0.00  0.00    +0.079 A 
ATOM     24  C   UNL     1      -1.017   1.105   2.135  0.00  0.00    +0.054 A 
ATOM     25  C   UNL     1      -2.009   0.936   1.246  0.00  0.00    +0.196 A 
ATOM     26  O   UNL     1      -1.481   0.615   0.055  0.00  0.00    -0.467 OA
ATOM     27  C   UNL     1      -0.144   0.555   0.128  0.00  0.00    +0.114 A 
ATOM     28  C   UNL     1       0.786   0.220  -1.009  0.00  0.00    +0.087 C 
ENDBRANCH  21  23
ENDBRANCH  17  18
ENDBRANCH  16  17
ENDBRANCH   8  16
TORSDOF 5
