REMARK  Name = ZINC28527524
REMARK  5 active torsions:
REMARK  status: ('A' for Active; 'I' for Inactive)
REMARK    1  A    between atoms: C_6  and  C_7
REMARK    2  A    between atoms: C_7  and  S_8
REMARK    3  A    between atoms: S_8  and  C_9
REMARK    4  A    between atoms: N_15  and  N_16
REMARK    5  A    between atoms: N_17  and  C_18
REMARK                            x       y       z     vdW  Elec       q    Type
REMARK                         _______ _______ _______ _____ _____    ______ ____
ROOT
ATOM      1  C   UNL     1       3.617  -4.721   0.234  0.00  0.00    +0.210 A 
ATOM      2  N   UNL     1       2.506  -4.017   0.149  0.00  0.00    -0.121 NA
ATOM      3  N   UNL     1       2.512  -2.735   0.067  0.00  0.00    -0.126 NA
ATOM      4  C   UNL     1       3.638  -2.054   0.051  0.00  0.00    +0.212 A 
ATOM      5  C   UNL     1       4.872  -2.752   0.140  0.00  0.00    +0.312 A 
ATOM      6  O   UNL     1       5.934  -2.152   0.133  0.00  0.00    -0.262 OA
ATOM      7  N   UNL     1       4.834  -4.101   0.231  0.00  0.00    -0.205 N 
ATOM      8  N   UNL     1       3.620  -0.662  -0.045  0.00  0.00    -0.294 N 
ATOM      9  H   UNL     1       4.558  -0.092   0.037  0.00  0.00    +0.154 HD
ENDROOT
BRANCH   8  10
ATOM     10  C   UNL     1       2.409   0.010  -0.246  0.00  0.00    +0.036 A 
ATOM     11  C   UNL     1       2.202   1.256   0.331  0.00  0.00    +0.027 A 
ATOM     12  C   UNL     1       1.006   1.919   0.133  0.00  0.00    +0.051 A 
ATOM     13  C   UNL     1       0.009   1.343  -0.640  0.00  0.00    +0.162 A 
ATOM     14  C   UNL     1       0.215   0.097  -1.221  0.00  0.00    +0.164 A 
ATOM     15  C   UNL     1       1.414  -0.569  -1.022  0.00  0.00    +0.072 A 
ATOM     16  O   UNL     1      -0.749  -0.480  -1.990  0.00  0.00    -0.485 OA
ATOM     17  C   UNL     1      -2.075   0.043  -1.862  0.00  0.00    +0.270 C 
ATOM     18  C   UNL     1      -1.993   1.575  -1.903  0.00  0.00    +0.270 C 
ATOM     19  O   UNL     1      -1.166   2.008  -0.817  0.00  0.00    -0.485 OA
ENDBRANCH   8  10
BRANCH   7  20
ATOM     20  N   UNL     1       5.987  -4.828   0.319  0.00  0.00    -0.293 N 
ATOM     21  H   UNL     1       6.961  -4.316   0.315  0.00  0.00    +0.163 HD
ATOM     22  H   UNL     1       5.942  -5.924   0.392  0.00  0.00    +0.163 HD
ENDBRANCH   7  20
BRANCH   1  23
ATOM     23  S   UNL     1       3.532  -6.477   0.353  0.00  0.00    -0.080 S 
BRANCH  23  24
ATOM     24  C   UNL     1       1.737  -6.707   0.310  0.00  0.00    +0.112 C 
BRANCH  24  30
ATOM     25  C   UNL     1       1.304  -8.932  -0.751  0.00  0.00    +0.005 A 
ATOM     26  C   UNL     1       1.016 -10.282  -0.668  0.00  0.00    +0.015 A 
ATOM     27  C   UNL     1       0.830 -10.874   0.568  0.00  0.00    +0.018 A 
ATOM     28  C   UNL     1       0.938 -10.117   1.720  0.00  0.00    +0.015 A 
ATOM     29  C   UNL     1       1.232  -8.769   1.637  0.00  0.00    +0.005 A 
ATOM     30  C   UNL     1       1.417  -8.177   0.401  0.00  0.00    -0.037 A 
ATOM     31 BR   UNL     1       0.429 -12.719   0.682  0.00  0.00    -0.050 Br
ENDBRANCH  24  30
ENDBRANCH  23  24
ENDBRANCH   1  23
TORSDOF 5
