REMARK  Name = ZINC39884077
REMARK  4 active torsions:
REMARK  status: ('A' for Active; 'I' for Inactive)
REMARK    1  A    between atoms: C_4  and  N_7
REMARK    2  A    between atoms: C_8  and  C_10
REMARK    3  A    between atoms: C_10  and  N_11
REMARK    4  A    between atoms: C_17  and  C_32
REMARK                            x       y       z     vdW  Elec       q    Type
REMARK                         _______ _______ _______ _____ _____    ______ ____
ROOT
ATOM      1  N   UNL     1       4.669  -4.345   0.024  0.00  0.00    -0.288 N 
ATOM      2  C   UNL     1       4.550  -4.847   1.296  0.00  0.00    +0.091 A 
ATOM      3  C   UNL     1       4.304  -6.174   1.367  0.00  0.00    +0.033 A 
ATOM      4  S   UNL     1       4.261  -6.667  -0.336  0.00  0.00    -0.030 S 
ATOM      5  C   UNL     1       4.539  -5.164  -1.037  0.00  0.00    +0.292 A 
ATOM      6  O   UNL     1       4.609  -4.883  -2.221  0.00  0.00    -0.259 OA
ATOM      7  C   UNL     1       4.100  -7.045   2.574  0.00  0.00    +0.078 C 
ATOM      8  C   UNL     1       3.714  -6.166   3.738  0.00  0.00    +0.111 C 
ATOM      9  C   UNL     1       4.879  -5.169   4.017  0.00  0.00    +0.152 C 
ATOM     10  S   UNL     1       4.714  -3.860   2.777  0.00  0.00    -0.093 S 
ATOM     11  C   UNL     1       4.529  -4.755   5.420  0.00  0.00    +0.244 C 
ATOM     12  O   UNL     1       4.758  -3.688   5.939  0.00  0.00    -0.273 OA
ATOM     13  N   UNL     1       3.905  -5.820   5.986  0.00  0.00    -0.162 N 
ATOM     14  C   UNL     1       3.569  -6.775   5.097  0.00  0.00    +0.235 C 
ATOM     15  O   UNL     1       3.211  -7.899   5.354  0.00  0.00    -0.274 OA
ATOM     16  C   UNL     1       3.663  -5.916   7.308  0.00  0.00    +0.313 C 
ATOM     17  O   UNL     1       3.100  -6.897   7.753  0.00  0.00    -0.252 OA
ATOM     18  N   UNL     1       4.046  -4.925   8.137  0.00  0.00    -0.313 N 
ATOM     19  H   UNL     1       4.495  -4.142   7.782  0.00  0.00    +0.147 HD
ATOM     20  H   UNL     1       3.872  -4.994   9.089  0.00  0.00    +0.147 HD
ENDROOT
BRANCH   7  21
ATOM     21  C   UNL     1       5.377  -7.779   2.891  0.00  0.00    -0.001 A 
ATOM     22  C   UNL     1       5.546  -9.060   3.301  0.00  0.00    +0.012 A 
ATOM     23  C   UNL     1       6.826  -9.526   3.534  0.00  0.00    +0.008 A 
ATOM     24  C   UNL     1       7.875  -8.689   3.344  0.00  0.00    +0.045 A 
ATOM     25  S   UNL     1       7.061  -7.191   2.815  0.00  0.00    -0.101 S 
ENDBRANCH   7  21
BRANCH   1  26
ATOM     26  C   UNL     1       4.931  -2.918  -0.179  0.00  0.00    +0.222 C 
BRANCH  26  28
ATOM     27  N   UNL     1       3.617  -0.841  -0.462  0.00  0.00    -0.284 N 
ATOM     28  C   UNL     1       3.623  -2.176  -0.274  0.00  0.00    +0.237 C 
ATOM     29  O   UNL     1       2.575  -2.779  -0.180  0.00  0.00    -0.274 OA
ATOM     30  H   UNL     1       4.451  -0.369  -0.611  0.00  0.00    +0.155 HD
BRANCH  27  34
ATOM     31  C   UNL     1       0.018   1.257  -0.402  0.00  0.00    +0.000 A 
ATOM     32  C   UNL     1       0.181   0.144   0.402  0.00  0.00    +0.002 A 
ATOM     33  C   UNL     1       1.373  -0.554   0.384  0.00  0.00    +0.023 A 
ATOM     34  C   UNL     1       2.408  -0.137  -0.442  0.00  0.00    +0.033 A 
ATOM     35  C   UNL     1       2.241   0.981  -1.249  0.00  0.00    +0.023 A 
ATOM     36  C   UNL     1       1.047   1.675  -1.226  0.00  0.00    +0.002 A 
ENDBRANCH  27  34
ENDBRANCH  26  28
ENDBRANCH   1  26
TORSDOF 4
