REMARK  Name = ZINC17114055
REMARK  5 active torsions:
REMARK  status: ('A' for Active; 'I' for Inactive)
REMARK    1  A    between atoms: C_1  and  C_2
REMARK    2  A    between atoms: C_2  and  C_4
REMARK    3  A    between atoms: C_2  and  C_20
REMARK    4  A    between atoms: C_4  and  C_5
REMARK    5  A    between atoms: N_7  and  N_8
REMARK                            x       y       z     vdW  Elec       q    Type
REMARK                         _______ _______ _______ _____ _____    ______ ____
ROOT
ATOM      1  C   UNL     1      -0.573  -2.031   1.309  0.00  0.00    +0.230 C 
ATOM      2  O   UNL     1       0.021  -2.622   0.432  0.00  0.00    -0.274 OA
ATOM      3  N   UNL     1      -1.119  -2.717   2.333  0.00  0.00    -0.224 N 
ATOM      4  H   UNL     1      -1.594  -2.245   3.034  0.00  0.00    +0.174 HD
ENDROOT
BRANCH   3   5
ATOM      5  N   UNL     1      -1.001  -4.112   2.383  0.00  0.00    -0.137 N 
ATOM      6  C   UNL     1      -0.168  -4.773   3.213  0.00  0.00    +0.263 C 
ATOM      7  O   UNL     1       0.592  -4.292   4.027  0.00  0.00    -0.271 OA
ATOM      8  C   UNL     1      -0.381  -6.240   2.916  0.00  0.00    +0.114 C 
ATOM      9  C   UNL     1      -0.893  -6.964   4.156  0.00  0.00    +0.035 C 
ATOM     10  C   UNL     1      -1.129  -8.440   3.827  0.00  0.00    +0.003 C 
ATOM     11  C   UNL     1       0.181  -9.072   3.352  0.00  0.00    +0.000 C 
ATOM     12  C   UNL     1       0.669  -8.351   2.094  0.00  0.00    +0.003 C 
ATOM     13  C   UNL     1       0.912  -6.874   2.416  0.00  0.00    +0.035 C 
ATOM     14  N   UNL     1      -1.399  -6.245   1.859  0.00  0.00    -0.284 N 
ATOM     15  C   UNL     1      -1.704  -4.955   1.617  0.00  0.00    +0.326 C 
ATOM     16  O   UNL     1      -2.524  -4.597   0.795  0.00  0.00    -0.251 OA
ATOM     17  H   UNL     1      -1.781  -7.023   1.423  0.00  0.00    +0.151 HD
ENDBRANCH   3   5
BRANCH   1  18
ATOM     18  C   UNL     1      -0.700  -0.530   1.255  0.00  0.00    +0.105 C 
BRANCH  18  20
ATOM     19  C   UNL     1      -0.724  -0.517  -1.243  0.00  0.00    +0.013 C 
ATOM     20  C   UNL     1       0.002  -0.004   0.002  0.00  0.00    +0.025 C 
BRANCH  20  21
ATOM     21  C   UNL     1      -0.018   1.503   0.010  0.00  0.00    -0.044 A 
ATOM     22  C   UNL     1      -1.225   2.178   0.020  0.00  0.00    +0.004 A 
ATOM     23  C   UNL     1      -1.244   3.560   0.032  0.00  0.00    +0.000 A 
ATOM     24  C   UNL     1      -0.056   4.267   0.025  0.00  0.00    +0.000 A 
ATOM     25  C   UNL     1       1.151   3.592   0.010  0.00  0.00    +0.000 A 
ATOM     26  C   UNL     1       1.169   2.210   0.003  0.00  0.00    +0.004 A 
ENDBRANCH  20  21
ENDBRANCH  18  20
ENDBRANCH   1  18
TORSDOF 4
