REMARK  Name = ZINC13871253
REMARK  15 active torsions:
REMARK  status: ('A' for Active; 'I' for Inactive)
REMARK    1  A    between atoms: C_1  and  C_2
REMARK    2  A    between atoms: C_2  and  C_3
REMARK    3  A    between atoms: C_6  and  O_9
REMARK    4  A    between atoms: O_9  and  C_10
REMARK    5  A    between atoms: C_10  and  C_12
REMARK    6  A    between atoms: C_10  and  C_13
REMARK    7  A    between atoms: C_16  and  S_19
REMARK    8  A    between atoms: N_17  and  C_18
REMARK    9  A    between atoms: S_19  and  C_20
REMARK   10  A    between atoms: C_20  and  C_21
REMARK   11  A    between atoms: N_23  and  C_24
REMARK   12  A    between atoms: C_25  and  C_33
REMARK   13  A    between atoms: C_33  and  O_35
REMARK   14  A    between atoms: O_35  and  C_36
REMARK   15  A    between atoms: C_36  and  C_37
REMARK                            x       y       z     vdW  Elec       q    Type
REMARK                         _______ _______ _______ _____ _____    ______ ____
ROOT
ATOM      1  C   UNL     1       5.389  -0.366  10.928  0.00  0.00    +0.173 C 
ENDROOT
BRANCH   1   2
ATOM      2  C   UNL     1       5.641   0.316  12.247  0.00  0.00    +0.228 C 
ATOM      3  O   UNL     1       4.771   0.989  12.758  0.00  0.00    -0.275 OA
ATOM      4  N   UNL     1       6.834   0.179  12.860  0.00  0.00    -0.279 N 
ATOM      5  H   UNL     1       7.530  -0.359  12.451  0.00  0.00    +0.155 HD
BRANCH   4   6
ATOM      6  C   UNL     1       7.066   0.807  14.073  0.00  0.00    +0.086 A 
ATOM      7  C   UNL     1       8.223   0.783  14.839  0.00  0.00    +0.091 A 
ATOM      8  C   UNL     1       8.210   1.532  16.084  0.00  0.00    -0.021 A 
ATOM      9  C   UNL     1       7.045   2.166  16.335  0.00  0.00    -0.004 A 
ATOM     10  S   UNL     1       6.014   1.778  14.952  0.00  0.00    -0.077 S 
ATOM     11  C   UNL     1       6.720   3.011  17.528  0.00  0.00    +0.043 C 
ATOM     12  C   UNL     1       7.777   2.745  18.610  0.00  0.00    +0.005 C 
ATOM     13  C   UNL     1       9.168   2.821  17.973  0.00  0.00    +0.005 C 
ATOM     14  C   UNL     1       9.384   1.622  17.048  0.00  0.00    +0.037 C 
BRANCH   7  15
ATOM     15  C   UNL     1       9.406   0.035  14.410  0.00  0.00    +0.342 C 
ATOM     16  O   UNL     1      10.252   0.576  13.723  0.00  0.00    -0.245 OA
BRANCH  15  17
ATOM     17  O   UNL     1       9.558  -1.254  14.776  0.00  0.00    -0.461 OA
BRANCH  17  18
ATOM     18  C   UNL     1      10.736  -1.923  14.322  0.00  0.00    +0.229 C 
ATOM     19  C   UNL     1      10.733  -3.365  14.834  0.00  0.00    +0.048 C 
ENDBRANCH  17  18
ENDBRANCH  15  17
ENDBRANCH   7  15
ENDBRANCH   4   6
ENDBRANCH   1   2
BRANCH   1  20
ATOM     20  S   UNL     1       3.705   0.008  10.365  0.00  0.00    -0.077 S 
BRANCH  20  24
ATOM     21  C   UNL     1       2.829  -1.663   6.951  0.00  0.00    +0.174 A 
ATOM     22  N   UNL     1       4.054  -2.061   7.153  0.00  0.00    -0.130 NA
ATOM     23  N   UNL     1       4.495  -1.584   8.262  0.00  0.00    -0.122 NA
ATOM     24  C   UNL     1       3.567  -0.850   8.832  0.00  0.00    +0.192 A 
ATOM     25  N   UNL     1       2.477  -0.874   8.011  0.00  0.00    -0.306 N 
ATOM     26  C   UNL     1       1.195  -0.197   8.222  0.00  0.00    +0.153 C 
BRANCH  21  27
ATOM     27  C   UNL     1       1.964  -2.005   5.766  0.00  0.00    +0.238 C 
ATOM     28  C   UNL     1       1.467  -3.447   5.896  0.00  0.00    +0.060 C 
BRANCH  27  29
ATOM     29  O   UNL     1       2.726  -1.871   4.565  0.00  0.00    -0.481 OA
BRANCH  29  33
ATOM     30  C   UNL     1       0.630  -1.129   1.089  0.00  0.00    -0.047 A 
ATOM     31  C   UNL     1      -0.051  -1.381   2.266  0.00  0.00    +0.007 A 
ATOM     32  C   UNL     1       0.648  -1.630   3.431  0.00  0.00    +0.046 A 
ATOM     33  C   UNL     1       2.036  -1.627   3.420  0.00  0.00    +0.122 A 
ATOM     34  C   UNL     1       2.717  -1.375   2.238  0.00  0.00    +0.046 A 
ATOM     35  C   UNL     1       2.013  -1.131   1.075  0.00  0.00    +0.007 A 
BRANCH  30  37
ATOM     36  C   UNL     1      -0.400  -2.177  -0.908  0.00  0.00    +0.009 C 
ATOM     37  C   UNL     1      -0.135  -0.858  -0.180  0.00  0.00    +0.032 C 
ENDBRANCH  30  37
ENDBRANCH  29  33
ENDBRANCH  27  29
ENDBRANCH  21  27
ENDBRANCH  20  24
ENDBRANCH   1  20
TORSDOF 11
