REMARK  Name = ZINC15774663
REMARK  5 active torsions:
REMARK  status: ('A' for Active; 'I' for Inactive)
REMARK    1  A    between atoms: C_4  and  N_7
REMARK    2  A    between atoms: C_8  and  C_10
REMARK    3  A    between atoms: C_10  and  N_11
REMARK    4  A    between atoms: N_19  and  N_20
REMARK    5  A    between atoms: N_20  and  C_21
REMARK                            x       y       z     vdW  Elec       q    Type
REMARK                         _______ _______ _______ _____ _____    ______ ____
ROOT
ATOM      1  N   UNL     1       5.171  -4.275   0.279  0.00  0.00    -0.257 N 
ATOM      2  C   UNL     1       5.173  -5.021   1.452  0.00  0.00    +0.047 A 
ATOM      3  C   UNL     1       5.451  -4.672   2.769  0.00  0.00    +0.024 A 
ATOM      4  C   UNL     1       5.380  -5.623   3.767  0.00  0.00    +0.002 A 
ATOM      5  C   UNL     1       5.032  -6.931   3.471  0.00  0.00    +0.001 A 
ATOM      6  C   UNL     1       4.753  -7.295   2.170  0.00  0.00    +0.012 A 
ATOM      7  C   UNL     1       4.822  -6.345   1.157  0.00  0.00    +0.028 A 
ATOM      8  C   UNL     1       4.590  -6.400  -0.304  0.00  0.00    +0.153 C 
ATOM      9  N   UNL     1       4.240  -7.446  -1.020  0.00  0.00    -0.177 NA
ATOM     10  C   UNL     1       4.832  -5.028  -0.781  0.00  0.00    +0.272 C 
ATOM     11  O   UNL     1       4.743  -4.644  -1.933  0.00  0.00    -0.268 OA
ENDROOT
BRANCH   9  12
ATOM     12  N   UNL     1       3.928  -8.552  -0.435  0.00  0.00    -0.237 N 
ATOM     13  H   UNL     1       3.872  -8.590   0.533  0.00  0.00    +0.174 HD
BRANCH  12  14
ATOM     14  C   UNL     1       3.670  -9.694  -1.194  0.00  0.00    +0.048 A 
ATOM     15  C   UNL     1       3.755  -9.643  -2.580  0.00  0.00    +0.025 A 
ATOM     16  C   UNL     1       3.499 -10.775  -3.328  0.00  0.00    +0.002 A 
ATOM     17  C   UNL     1       3.159 -11.959  -2.699  0.00  0.00    +0.000 A 
ATOM     18  C   UNL     1       3.073 -12.014  -1.320  0.00  0.00    +0.002 A 
ATOM     19  C   UNL     1       3.334 -10.887  -0.565  0.00  0.00    +0.025 A 
ENDBRANCH  12  14
ENDBRANCH   9  12
BRANCH   1  20
ATOM     20  C   UNL     1       5.492  -2.847   0.208  0.00  0.00    +0.210 C 
BRANCH  20  22
ATOM     21  N   UNL     1       4.287  -0.693   0.367  0.00  0.00    -0.284 N 
ATOM     22  C   UNL     1       4.234  -2.040   0.395  0.00  0.00    +0.235 C 
ATOM     23  O   UNL     1       3.173  -2.602   0.570  0.00  0.00    -0.274 OA
ATOM     24  H   UNL     1       5.119  -0.245   0.152  0.00  0.00    +0.155 HD
BRANCH  21  28
ATOM     25  C   UNL     1       0.874   1.544   1.209  0.00  0.00    +0.000 A 
ATOM     26  C   UNL     1       1.088   0.341   1.857  0.00  0.00    +0.002 A 
ATOM     27  C   UNL     1       2.218  -0.403   1.581  0.00  0.00    +0.023 A 
ATOM     28  C   UNL     1       3.140   0.058   0.650  0.00  0.00    +0.033 A 
ATOM     29  C   UNL     1       2.922   1.266  -0.000  0.00  0.00    +0.023 A 
ATOM     30  C   UNL     1       1.790   2.005   0.281  0.00  0.00    +0.002 A 
ENDBRANCH  21  28
ENDBRANCH  20  22
ENDBRANCH   1  20
TORSDOF 5
