REMARK  Name = ZINC13943478
REMARK  10 active torsions:
REMARK  status: ('A' for Active; 'I' for Inactive)
REMARK    1  A    between atoms: C_1  and  C_2
REMARK    2  A    between atoms: C_7  and  C_8
REMARK    3  A    between atoms: C_10  and  C_13
REMARK    4  A    between atoms: C_13  and  C_36
REMARK    5  A    between atoms: C_14  and  C_15
REMARK    6  A    between atoms: C_18  and  O_23
REMARK    7  A    between atoms: C_19  and  O_21
REMARK    8  A    between atoms: O_21  and  C_22
REMARK    9  A    between atoms: O_23  and  C_24
REMARK   10  A    between atoms: C_24  and  C_26
REMARK                            x       y       z     vdW  Elec       q    Type
REMARK                         _______ _______ _______ _____ _____    ______ ____
ROOT
ATOM      1  C   UNL     1       1.571  -0.336  -0.482  0.00  0.00    -0.020 A 
ATOM      2  C   UNL     1       2.622   0.590  -0.448  0.00  0.00    +0.012 A 
ATOM      3  C   UNL     1       3.914   0.173  -0.678  0.00  0.00    +0.051 A 
ATOM      4  C   UNL     1       4.178  -1.162  -0.957  0.00  0.00    +0.173 A 
ATOM      5  C   UNL     1       3.137  -2.089  -0.998  0.00  0.00    +0.163 A 
ATOM      6  C   UNL     1       1.839  -1.682  -0.762  0.00  0.00    +0.057 A 
ENDROOT
BRANCH   1   8
ATOM      7  C   UNL     1      -0.069   0.971   0.790  0.00  0.00    +0.094 C 
ATOM      8  C   UNL     1       0.195   0.103  -0.230  0.00  0.00    +0.030 C 
BRANCH   7  18
ATOM      9  C   UNL     1       4.354   3.537   6.166  0.00  0.00    +0.044 C 
ATOM     10  C   UNL     1       3.828   2.738   5.001  0.00  0.00    -0.045 A 
ATOM     11  C   UNL     1       2.562   2.991   4.514  0.00  0.00    +0.031 A 
ATOM     12  C   UNL     1       2.076   2.258   3.441  0.00  0.00    +0.067 A 
ATOM     13  C   UNL     1       2.874   1.260   2.854  0.00  0.00    +0.090 A 
ATOM     14  C   UNL     1       4.155   1.017   3.361  0.00  0.00    +0.033 A 
ATOM     15  C   UNL     1       4.620   1.755   4.426  0.00  0.00    -0.045 A 
ATOM     16  C   UNL     1       6.000   1.493   4.971  0.00  0.00    +0.044 C 
ATOM     17  N   UNL     1       2.154   0.711   1.846  0.00  0.00    -0.227 NA
ATOM     18  C   UNL     1       0.984   1.300   1.768  0.00  0.00    +0.150 A 
ATOM     19  N   UNL     1       0.886   2.264   2.737  0.00  0.00    -0.337 N 
ATOM     20  H   UNL     1       0.101   2.861   2.904  0.00  0.00    +0.167 HD
ENDBRANCH   7  18
BRANCH   7  21
ATOM     21  C   UNL     1      -1.366   1.567   0.906  0.00  0.00    +0.103 C 
ATOM     22  N   UNL     1      -2.395   2.039   0.999  0.00  0.00    -0.191 NA
ENDBRANCH   7  21
ENDBRANCH   1   8
BRANCH   5  23
ATOM     23  O   UNL     1       3.401  -3.395  -1.270  0.00  0.00    -0.491 OA
ATOM     24  C   UNL     1       2.287  -4.290  -1.296  0.00  0.00    +0.277 C 
ENDBRANCH   5  23
BRANCH   4  25
ATOM     25  O   UNL     1       5.454  -1.566  -1.189  0.00  0.00    -0.422 OA
BRANCH  25  26
ATOM     26  C   UNL     1       5.824  -1.707  -2.471  0.00  0.00    +0.319 C 
ATOM     27  O   UNL     1       5.066  -1.392  -3.358  0.00  0.00    -0.250 OA
BRANCH  26  28
ATOM     28  C   UNL     1       7.186  -2.259  -2.806  0.00  0.00    +0.069 C 
ATOM     29  C   UNL     1       7.323  -3.667  -2.224  0.00  0.00    +0.021 C 
ATOM     30  C   UNL     1       8.706  -4.228  -2.563  0.00  0.00    -0.009 C 
ATOM     31  C   UNL     1       8.874  -4.285  -4.083  0.00  0.00    +0.007 C 
ATOM     32  C   UNL     1       8.737  -2.876  -4.665  0.00  0.00    -0.009 C 
ATOM     33  C   UNL     1       7.355  -2.316  -4.325  0.00  0.00    +0.021 C 
ATOM     34  C   UNL     1       9.816  -1.971  -4.066  0.00  0.00    +0.007 C 
ATOM     35  C   UNL     1       9.647  -1.913  -2.546  0.00  0.00    -0.009 C 
ATOM     36  C   UNL     1       9.784  -3.322  -1.965  0.00  0.00    +0.007 C 
ATOM     37  C   UNL     1       8.265  -1.353  -2.207  0.00  0.00    +0.021 C 
ENDBRANCH  26  28
ENDBRANCH  25  26
ENDBRANCH   4  25
TORSDOF 7
