REMARK  Name = ZINC63907276
REMARK  8 active torsions:
REMARK  status: ('A' for Active; 'I' for Inactive)
REMARK    1  A    between atoms: C_1  and  N_2
REMARK    2  A    between atoms: N_2  and  C_3
REMARK    3  A    between atoms: C_3  and  C_4
REMARK    4  A    between atoms: C_3  and  C_10
REMARK    5  A    between atoms: C_16  and  C_18
REMARK    6  A    between atoms: C_18  and  N_19
REMARK    7  A    between atoms: C_22  and  C_27
REMARK    8  A    between atoms: C_27  and  C_28
REMARK                            x       y       z     vdW  Elec       q    Type
REMARK                         _______ _______ _______ _____ _____    ______ ____
ROOT
ATOM      1  N   UNL     1      -0.272  -1.070  -3.568  0.00  0.00    -0.216 N 
ATOM      2  C   UNL     1       0.884  -1.217  -4.244  0.00  0.00    +0.244 C 
ATOM      3  O   UNL     1       1.919  -0.613  -4.066  0.00  0.00    -0.273 OA
ATOM      4  C   UNL     1       0.620  -2.297  -5.275  0.00  0.00    +0.165 C 
ATOM      5  N   UNL     1      -0.786  -2.667  -5.037  0.00  0.00    -0.287 N 
ATOM      6  C   UNL     1      -1.218  -1.901  -4.020  0.00  0.00    +0.310 C 
ATOM      7  O   UNL     1      -2.344  -1.955  -3.564  0.00  0.00    -0.252 OA
ATOM      8  H   UNL     1      -1.299  -3.335  -5.519  0.00  0.00    +0.151 HD
ENDROOT
BRANCH   1   9
ATOM      9  C   UNL     1      -0.467  -0.121  -2.469  0.00  0.00    +0.213 C 
BRANCH   9  12
ATOM     10  C   UNL     1      -0.671   1.294  -0.021  0.00  0.00    +0.133 C 
ATOM     11  N   UNL     1      -0.213  -0.097  -0.008  0.00  0.00    -0.292 N 
ATOM     12  C   UNL     1      -0.110  -0.784  -1.163  0.00  0.00    +0.234 C 
ATOM     13  O   UNL     1       0.270  -1.936  -1.152  0.00  0.00    -0.274 OA
BRANCH  11  14
ATOM     14  C   UNL     1       0.135  -0.742   1.261  0.00  0.00    +0.136 C 
BRANCH  14  15
ATOM     15  C   UNL     1       1.601  -1.092   1.262  0.00  0.00    -0.023 A 
ATOM     16  C   UNL     1       2.530  -0.176   0.805  0.00  0.00    +0.006 A 
ATOM     17  C   UNL     1       3.874  -0.497   0.806  0.00  0.00    +0.000 A 
ATOM     18  C   UNL     1       4.290  -1.733   1.264  0.00  0.00    +0.000 A 
ATOM     19  C   UNL     1       3.360  -2.648   1.722  0.00  0.00    +0.000 A 
ATOM     20  C   UNL     1       2.016  -2.326   1.725  0.00  0.00    +0.006 A 
ENDBRANCH  14  15
BRANCH  14  21
ATOM     21  C   UNL     1      -0.158   0.201   2.400  0.00  0.00    -0.023 A 
ATOM     22  C   UNL     1       0.419   1.457   2.423  0.00  0.00    +0.006 A 
ATOM     23  C   UNL     1       0.151   2.322   3.467  0.00  0.00    +0.000 A 
ATOM     24  C   UNL     1      -0.694   1.931   4.489  0.00  0.00    +0.000 A 
ATOM     25  C   UNL     1      -1.272   0.675   4.465  0.00  0.00    +0.000 A 
ATOM     26  C   UNL     1      -1.007  -0.188   3.418  0.00  0.00    +0.006 A 
ENDBRANCH  14  21
ENDBRANCH  11  14
ENDBRANCH   9  12
ENDBRANCH   1   9
BRANCH   4  27
ATOM     27  C   UNL     1       1.542  -3.496  -5.047  0.00  0.00    +0.065 C 
BRANCH  27  28
ATOM     28  C   UNL     1       1.345  -4.499  -6.154  0.00  0.00    -0.039 C 
ATOM     29  C   UNL     1       2.079  -4.616  -7.285  0.00  0.00    -0.001 A 
ATOM     30  C   UNL     1       3.234  -3.873  -7.802  0.00  0.00    +0.010 A 
ATOM     31  C   UNL     1       3.765  -4.231  -8.993  0.00  0.00    +0.001 A 
ATOM     32  C   UNL     1       3.240  -5.292  -9.745  0.00  0.00    +0.002 A 
ATOM     33  C   UNL     1       2.181  -6.021  -9.336  0.00  0.00    +0.026 A 
ATOM     34  C   UNL     1       1.544  -5.732  -8.097  0.00  0.00    +0.043 A 
ATOM     35  N   UNL     1       0.520  -6.283  -7.493  0.00  0.00    -0.380 N 
ATOM     36  C   UNL     1       0.292  -5.582  -6.224  0.00  0.00    +0.144 C 
ATOM     37  H   UNL     1       0.001  -7.032  -7.827  0.00  0.00    +0.160 HD
ENDBRANCH  27  28
ENDBRANCH   4  27
TORSDOF 7
