REMARK  Name = ZINC48839607
REMARK  3 active torsions:
REMARK  status: ('A' for Active; 'I' for Inactive)
REMARK    1  A    between atoms: C_1  and  N_2
REMARK    2  A    between atoms: C_10  and  C_11
REMARK    3  A    between atoms: C_11  and  N_12
REMARK                            x       y       z     vdW  Elec       q    Type
REMARK                         _______ _______ _______ _____ _____    ______ ____
ROOT
ATOM      1  C   UNL     1       0.090   1.746   0.241  0.00  0.00    +0.150 C 
ATOM      2  N   UNL     1       0.051   0.292   0.060  0.00  0.00    -0.332 N 
ATOM      3  C   UNL     1       0.041  -0.382  -1.146  0.00  0.00    +0.069 A 
ATOM      4  C   UNL     1       0.060   0.017  -2.475  0.00  0.00    +0.029 A 
ATOM      5  C   UNL     1       0.040  -0.930  -3.476  0.00  0.00    +0.022 A 
ATOM      6  C   UNL     1       0.000  -2.283  -3.164  0.00  0.00    +0.043 A 
ATOM      7  C   UNL     1      -0.019  -2.697  -1.851  0.00  0.00    +0.050 A 
ATOM      8  C   UNL     1       0.001  -1.749  -0.824  0.00  0.00    +0.091 A 
ATOM      9  N   UNL     1      -0.011  -1.837   0.531  0.00  0.00    -0.234 NA
ATOM     10  C   UNL     1       0.024  -0.643   1.047  0.00  0.00    +0.094 A 
ATOM     11 CL   UNL     1      -0.025  -3.461  -4.439  0.00  0.00    -0.083 Cl
ENDROOT
BRANCH  10  12
ATOM     12  C   UNL     1       0.030  -0.341   2.523  0.00  0.00    -0.003 C 
BRANCH  12  13
ATOM     13  N   UNL     1      -1.352  -0.205   3.001  0.00  0.00    +0.386 N 
ATOM     14  C   UNL     1      -2.024  -1.526   2.991  0.00  0.00    -0.074 C 
ATOM     15  C   UNL     1      -2.440  -1.784   4.473  0.00  0.00    -0.029 C 
ATOM     16  C   UNL     1      -1.089  -2.067   5.200  0.00  0.00    -0.000 C 
ATOM     17  C   UNL     1      -0.344  -0.712   5.154  0.00  0.00    -0.015 C 
ATOM     18  C   UNL     1      -1.360   0.267   4.420  0.00  0.00    -0.068 C 
ATOM     19  C   UNL     1      -2.731  -0.307   4.923  0.00  0.00    -0.014 C 
ATOM     20  H   UNL     1      -1.857   0.445   2.418  0.00  0.00    -0.081 HD
ENDBRANCH  12  13
ENDBRANCH  10  12
TORSDOF 2
