REMARK  Name = ZINC16397461
REMARK  7 active torsions:
REMARK  status: ('A' for Active; 'I' for Inactive)
REMARK    1  A    between atoms: C_1  and  C_2
REMARK    2  A    between atoms: C_2  and  N_3
REMARK    3  A    between atoms: C_12  and  S_14
REMARK    4  A    between atoms: S_14  and  C_15
REMARK    5  A    between atoms: C_15  and  C_17
REMARK    6  A    between atoms: C_15  and  C_18
REMARK    7  A    between atoms: C_23  and  C_26
REMARK                            x       y       z     vdW  Elec       q    Type
REMARK                         _______ _______ _______ _____ _____    ______ ____
ROOT
ATOM      1  N   UNL     1      -2.412  -2.646   0.010  0.00  0.00    -0.329 N 
ATOM      2  C   UNL     1      -1.204  -1.981   0.002  0.00  0.00    +0.131 A 
ATOM      3  C   UNL     1       0.020  -2.697  -0.014  0.00  0.00    +0.040 A 
ATOM      4  C   UNL     1       0.060  -4.095  -0.023  0.00  0.00    +0.013 A 
ATOM      5  C   UNL     1       1.267  -4.733  -0.038  0.00  0.00    +0.001 A 
ATOM      6  C   UNL     1       2.456  -4.011  -0.046  0.00  0.00    +0.002 A 
ATOM      7  C   UNL     1       2.450  -2.647  -0.038  0.00  0.00    +0.028 A 
ATOM      8  C   UNL     1       1.229  -1.961  -0.021  0.00  0.00    +0.077 A 
ATOM      9  N   UNL     1       1.169  -0.621  -0.018  0.00  0.00    -0.222 NA
ATOM     10  C   UNL     1       0.002  -0.004   0.002  0.00  0.00    +0.191 A 
ATOM     11  N   UNL     1      -1.157  -0.658   0.010  0.00  0.00    -0.206 NA
ATOM     12  H   UNL     1      -2.432  -3.615   0.005  0.00  0.00    +0.147 HD
ENDROOT
BRANCH   1  14
ATOM     13  C   UNL     1      -4.848  -2.857   0.032  0.00  0.00    +0.024 C 
ATOM     14  C   UNL     1      -3.665  -1.887   0.026  0.00  0.00    +0.099 C 
ENDBRANCH   1  14
BRANCH  10  15
ATOM     15  S   UNL     1      -0.022   1.758   0.012  0.00  0.00    -0.073 S 
BRANCH  15  16
ATOM     16  C   UNL     1       1.756   2.096  -0.004  0.00  0.00    +0.137 C 
ATOM     17  C   UNL     1       2.384   1.586   1.295  0.00  0.00    +0.029 C 
BRANCH  16  18
ATOM     18  C   UNL     1       1.984   3.581  -0.121  0.00  0.00    +0.229 C 
ATOM     19  O   UNL     1       1.131   4.357   0.256  0.00  0.00    -0.274 OA
ATOM     20  N   UNL     1       3.135   4.047  -0.646  0.00  0.00    -0.301 N 
ATOM     21  C   UNL     1       4.179   3.119  -1.101  0.00  0.00    +0.108 C 
ATOM     22  C   UNL     1       5.499   3.486  -0.426  0.00  0.00    +0.022 C 
ATOM     23  C   UNL     1       5.811   4.962  -0.688  0.00  0.00    -0.011 C 
ATOM     24  C   UNL     1       4.703   5.832  -0.091  0.00  0.00    +0.022 C 
ATOM     25  C   UNL     1       3.371   5.492  -0.768  0.00  0.00    +0.108 C 
ATOM     26  C   UNL     1       7.148   5.323  -0.039  0.00  0.00    +0.007 C 
ENDBRANCH  16  18
ENDBRANCH  15  16
ENDBRANCH  10  15
TORSDOF 4
