REMARK  Name = ZINC20367088
REMARK  5 active torsions:
REMARK  status: ('A' for Active; 'I' for Inactive)
REMARK    1  A    between atoms: C_1  and  C_2
REMARK    2  A    between atoms: C_5  and  C_8
REMARK    3  A    between atoms: C_8  and  N_9
REMARK    4  A    between atoms: N_11  and  C_12
REMARK    5  A    between atoms: C_24  and  C_26
REMARK                            x       y       z     vdW  Elec       q    Type
REMARK                         _______ _______ _______ _____ _____    ______ ____
ROOT
ATOM      1  N   UNL     1      -3.179   2.420   1.743  0.00  0.00    -0.310 N 
ATOM      2  C   UNL     1      -3.346   1.357   0.890  0.00  0.00    +0.208 C 
ATOM      3  N   UNL     1      -2.404   1.052   0.029  0.00  0.00    -0.216 NA
ATOM      4  N   UNL     1      -4.501   0.611   0.939  0.00  0.00    -0.235 N 
ATOM      5  C   UNL     1      -4.850  -0.477   0.169  0.00  0.00    +0.140 A 
ATOM      6  N   UNL     1      -4.048  -0.949  -0.764  0.00  0.00    -0.283 NA
ATOM      7  C   UNL     1      -6.090  -1.056   0.428  0.00  0.00    +0.058 A 
ATOM      8  C   UNL     1      -6.840  -0.492   1.403  0.00  0.00    +0.007 A 
ATOM      9  S   UNL     1      -5.853   0.814   1.964  0.00  0.00    -0.007 S 
ATOM     10  C   UNL     1      -8.207  -0.904   1.885  0.00  0.00    +0.053 C 
ATOM     11  H   UNL     1      -2.303   3.077   1.638  0.00  0.00    +0.149 HD
ATOM     12  H   UNL     1      -4.318  -1.716  -1.292  0.00  0.00    +0.188 HD
ENDROOT
BRANCH   3  13
ATOM     13  C   UNL     1      -1.312   1.868  -0.109  0.00  0.00    +0.069 A 
ATOM     14  C   UNL     1      -1.482   3.217  -0.428  0.00  0.00    +0.029 A 
ATOM     15  C   UNL     1      -0.379   4.033  -0.573  0.00  0.00    +0.023 A 
ATOM     16  C   UNL     1       0.895   3.519  -0.396  0.00  0.00    +0.059 A 
ATOM     17  C   UNL     1       1.070   2.183  -0.073  0.00  0.00    +0.061 A 
ATOM     18  C   UNL     1      -0.027   1.356   0.074  0.00  0.00    +0.049 A 
ATOM     19 CL   UNL     1       2.670   1.547   0.147  0.00  0.00    -0.082 Cl
ATOM     20 CL   UNL     1       2.277   4.552  -0.579  0.00  0.00    -0.082 Cl
ENDBRANCH   3  13
BRANCH   1  21
ATOM     21  C   UNL     1      -4.167   2.679   2.794  0.00  0.00    +0.139 C 
BRANCH  21  26
ATOM     22  C   UNL     1      -2.362   7.063   6.098  0.00  0.00    +0.044 C 
ATOM     23  C   UNL     1      -2.833   5.919   5.237  0.00  0.00    -0.050 A 
ATOM     24  C   UNL     1      -3.611   6.169   4.121  0.00  0.00    +0.003 A 
ATOM     25  C   UNL     1      -4.043   5.120   3.331  0.00  0.00    +0.005 A 
ATOM     26  C   UNL     1      -3.696   3.822   3.655  0.00  0.00    -0.030 A 
ATOM     27  C   UNL     1      -2.922   3.572   4.773  0.00  0.00    +0.005 A 
ATOM     28  C   UNL     1      -2.487   4.621   5.561  0.00  0.00    +0.003 A 
ENDBRANCH  21  26
ENDBRANCH   1  21
TORSDOF 3
