REMARK  Name = ZINC61439760
REMARK  4 active torsions:
REMARK  status: ('A' for Active; 'I' for Inactive)
REMARK    1  A    between atoms: C_1  and  C_2
REMARK    2  A    between atoms: C_9  and  S_11
REMARK    3  A    between atoms: S_11  and  C_12
REMARK    4  A    between atoms: C_17  and  N_18
REMARK                            x       y       z     vdW  Elec       q    Type
REMARK                         _______ _______ _______ _____ _____    ______ ____
ROOT
ATOM      1  C   UNL     1       0.691   1.465  -0.032  0.00  0.00    +0.044 C 
ATOM      2  C   UNL     1       0.600  -0.039  -0.030  0.00  0.00    -0.048 A 
ATOM      3  C   UNL     1       0.637  -0.733  -1.231  0.00  0.00    +0.005 A 
ATOM      4  C   UNL     1       0.555  -2.107  -1.247  0.00  0.00    +0.030 A 
ATOM      5  C   UNL     1       0.434  -2.809  -0.045  0.00  0.00    +0.090 A 
ATOM      6  C   UNL     1       0.397  -2.101   1.168  0.00  0.00    +0.067 A 
ATOM      7  C   UNL     1       0.486  -0.718   1.165  0.00  0.00    +0.031 A 
ATOM      8  N   UNL     1       0.274  -3.054   2.167  0.00  0.00    -0.333 N 
ATOM      9  C   UNL     1       0.240  -4.277   1.558  0.00  0.00    +0.172 A 
ATOM     10  N   UNL     1       0.335  -4.129   0.259  0.00  0.00    -0.222 NA
ATOM     11  H   UNL     1       0.222  -2.884   3.120  0.00  0.00    +0.168 HD
ENDROOT
BRANCH   9  12
ATOM     12  S   UNL     1       0.092  -5.820   2.394  0.00  0.00    -0.050 S 
BRANCH  12  13
ATOM     13  C   UNL     1      -0.047  -6.999   1.091  0.00  0.00    +0.036 A 
ATOM     14  C   UNL     1       1.036  -7.800   0.760  0.00  0.00    +0.018 A 
ATOM     15  C   UNL     1       0.925  -8.724  -0.262  0.00  0.00    +0.021 A 
ATOM     16  C   UNL     1      -0.265  -8.854  -0.957  0.00  0.00    +0.043 A 
ATOM     17  C   UNL     1      -1.350  -8.059  -0.632  0.00  0.00    +0.043 A 
ATOM     18  C   UNL     1      -1.248  -7.133   0.395  0.00  0.00    +0.040 A 
ATOM     19 CL   UNL     1      -0.396 -10.017  -2.239  0.00  0.00    -0.083 Cl
BRANCH  18  20
ATOM     20  N   UNL     1      -2.346  -6.332   0.729  0.00  0.00    -0.357 N 
ATOM     21  H   UNL     1      -2.272  -5.682   1.445  0.00  0.00    +0.142 HD
ATOM     22  H   UNL     1      -3.180  -6.426   0.243  0.00  0.00    +0.142 HD
ENDBRANCH  18  20
ENDBRANCH  12  13
ENDBRANCH   9  12
TORSDOF 3
