REMARK  Name = ZINC36372360
REMARK  8 active torsions:
REMARK  status: ('A' for Active; 'I' for Inactive)
REMARK    1  A    between atoms: C_1  and  C_2
REMARK    2  A    between atoms: C_2  and  O_4
REMARK    3  A    between atoms: O_4  and  C_5
REMARK    4  A    between atoms: C_5  and  C_6
REMARK    5  A    between atoms: C_6  and  C_8
REMARK    6  A    between atoms: C_14  and  C_33
REMARK    7  A    between atoms: C_16  and  O_32
REMARK    8  A    between atoms: C_29  and  C_30
REMARK                            x       y       z     vdW  Elec       q    Type
REMARK                         _______ _______ _______ _____ _____    ______ ____
ROOT
ATOM      1  C   UNL     1      -2.722  -4.191  -0.040  0.00  0.00    +0.165 C 
ATOM      2  C   UNL     1      -2.931  -4.807   1.376  0.00  0.00    +0.162 C 
ATOM      3  C   UNL     1      -4.370  -5.384   1.392  0.00  0.00    +0.039 C 
ATOM      4  C   UNL     1      -5.082  -4.557   0.317  0.00  0.00    +0.007 C 
ATOM      5  C   UNL     1      -4.004  -4.513  -0.805  0.00  0.00    +0.012 C 
ATOM      6  C   UNL     1      -4.460  -3.474  -1.813  0.00  0.00    +0.044 C 
ATOM      7  C   UNL     1      -5.762  -3.993  -2.444  0.00  0.00    +0.154 C 
ATOM      8  C   UNL     1      -6.832  -4.254  -1.388  0.00  0.00    +0.153 C 
ATOM      9  C   UNL     1      -6.339  -5.174  -0.270  0.00  0.00    +0.034 C 
ATOM     10  C   UNL     1      -7.404  -5.313   0.820  0.00  0.00    +0.011 C 
ATOM     11  C   UNL     1      -8.663  -5.960   0.233  0.00  0.00    +0.032 C 
ATOM     12  C   UNL     1      -9.107  -5.132  -0.958  0.00  0.00    -0.053 C 
ATOM     13  C   UNL     1     -10.362  -4.710  -1.018  0.00  0.00    +0.051 C 
ATOM     14  C   UNL     1     -10.822  -3.888  -2.147  0.00  0.00    +0.179 C 
ATOM     15  O   UNL     1     -11.983  -3.530  -2.224  0.00  0.00    -0.288 OA
ATOM     16  C   UNL     1      -9.846  -3.506  -3.182  0.00  0.00    +0.047 C 
ATOM     17  C   UNL     1      -8.599  -3.944  -3.105  0.00  0.00    -0.009 C 
ATOM     18  C   UNL     1      -8.064  -4.875  -2.054  0.00  0.00    +0.044 C 
ATOM     19  C   UNL     1      -7.631  -6.189  -2.706  0.00  0.00    +0.023 C 
ATOM     20  F   UNL     1      -7.194  -3.042  -0.790  0.00  0.00    -0.238 F 
ATOM     21  C   UNL     1      -3.879  -5.880  -1.478  0.00  0.00    +0.015 C 
ATOM     22  O   UNL     1      -1.975  -5.882   1.453  0.00  0.00    -0.342 OA
ATOM     23  C   UNL     1      -0.945  -5.508   0.526  0.00  0.00    +0.172 C 
ATOM     24  O   UNL     1      -1.627  -4.938  -0.616  0.00  0.00    -0.331 OA
ATOM     25  C   UNL     1       0.011  -4.488   1.160  0.00  0.00    +0.065 C 
ATOM     26  C   UNL     1       1.214  -5.344   1.633  0.00  0.00    +0.005 C 
ATOM     27  C   UNL     1       1.349  -6.401   0.508  0.00  0.00    +0.005 C 
ATOM     28  C   UNL     1      -0.110  -6.723   0.114  0.00  0.00    +0.065 C 
ENDROOT
BRANCH   1  29
ATOM     29  C   UNL     1      -2.442  -2.712   0.011  0.00  0.00    +0.205 C 
ATOM     30  O   UNL     1      -2.885  -2.044   0.914  0.00  0.00    -0.291 OA
BRANCH  29  31
ATOM     31  C   UNL     1      -1.607  -2.065  -1.065  0.00  0.00    +0.309 C 
BRANCH  31  32
ATOM     32  O   UNL     1      -1.585  -0.651  -0.865  0.00  0.00    -0.457 OA
BRANCH  32  34
ATOM     33  C   UNL     1      -0.810   1.576  -1.597  0.00  0.00    +0.136 C 
ATOM     34  C   UNL     1      -0.879   0.078  -1.744  0.00  0.00    +0.304 C 
ATOM     35  O   UNL     1      -0.300  -0.467  -2.654  0.00  0.00    -0.251 OA
ENDBRANCH  32  34
ENDBRANCH  31  32
ENDBRANCH  29  31
ENDBRANCH   1  29
BRANCH   7  36
ATOM     36  O   UNL     1      -6.251  -3.021  -3.370  0.00  0.00    -0.389 OA
ATOM     37  H   UNL     1      -5.639  -2.823  -4.093  0.00  0.00    +0.210 HD
ENDBRANCH   7  36
TORSDOF 5
