REMARK  Name = ZINC21737507
REMARK  7 active torsions:
REMARK  status: ('A' for Active; 'I' for Inactive)
REMARK    1  A    between atoms: C_1  and  C_2
REMARK    2  A    between atoms: C_5  and  C_33
REMARK    3  A    between atoms: C_10  and  C_12
REMARK    4  A    between atoms: C_12  and  C_14
REMARK    5  A    between atoms: C_12  and  S_15
REMARK    6  A    between atoms: S_15  and  C_16
REMARK    7  A    between atoms: N_26  and  C_27
REMARK                            x       y       z     vdW  Elec       q    Type
REMARK                         _______ _______ _______ _____ _____    ______ ____
ROOT
ATOM      1  C   UNL     1       5.803  -2.339   0.563  0.00  0.00    +0.177 A 
ATOM      2  N   UNL     1       5.793  -1.095   0.975  0.00  0.00    -0.223 NA
ATOM      3  C   UNL     1       6.894  -0.312   0.887  0.00  0.00    +0.079 A 
ATOM      4  C   UNL     1       6.886   1.016   1.326  0.00  0.00    +0.028 A 
ATOM      5  C   UNL     1       8.021   1.770   1.219  0.00  0.00    +0.002 A 
ATOM      6  C   UNL     1       9.185   1.237   0.681  0.00  0.00    +0.001 A 
ATOM      7  C   UNL     1       9.224  -0.058   0.243  0.00  0.00    +0.015 A 
ATOM      8  C   UNL     1       8.081  -0.851   0.340  0.00  0.00    +0.065 A 
ATOM      9  C   UNL     1       8.065  -2.248  -0.113  0.00  0.00    +0.267 A 
ATOM     10  O   UNL     1       9.056  -2.767  -0.593  0.00  0.00    -0.267 OA
ATOM     11  N   UNL     1       6.909  -2.938   0.027  0.00  0.00    -0.255 N 
ENDROOT
BRANCH  11  12
ATOM     12  C   UNL     1       6.844  -4.275  -0.385  0.00  0.00    +0.052 A 
ATOM     13  C   UNL     1       7.577  -5.246   0.285  0.00  0.00    +0.026 A 
ATOM     14  C   UNL     1       7.511  -6.564  -0.124  0.00  0.00    +0.002 A 
ATOM     15  C   UNL     1       6.716  -6.916  -1.199  0.00  0.00    +0.000 A 
ATOM     16  C   UNL     1       5.985  -5.952  -1.868  0.00  0.00    +0.002 A 
ATOM     17  C   UNL     1       6.043  -4.633  -1.461  0.00  0.00    +0.026 A 
ENDBRANCH  11  12
BRANCH   1  18
ATOM     18  S   UNL     1       4.325  -3.285   0.715  0.00  0.00    -0.075 S 
BRANCH  18  19
ATOM     19  C   UNL     1       3.138  -2.131   1.456  0.00  0.00    +0.137 C 
ATOM     20  C   UNL     1       3.602  -1.757   2.865  0.00  0.00    +0.029 C 
BRANCH  19  28
ATOM     21  C   UNL     1      -2.918  -2.648   2.585  0.00  0.00    +0.009 C 
ATOM     22  C   UNL     1      -1.487  -2.118   2.686  0.00  0.00    +0.004 C 
ATOM     23  C   UNL     1      -1.506  -0.588   2.647  0.00  0.00    +0.009 C 
ATOM     24  C   UNL     1      -0.077  -0.055   2.781  0.00  0.00    +0.004 C 
ATOM     25  C   UNL     1       0.763  -0.558   1.603  0.00  0.00    +0.111 C 
ATOM     26  N   UNL     1       0.669  -2.023   1.546  0.00  0.00    -0.300 N 
ATOM     27  C   UNL     1      -0.662  -2.644   1.507  0.00  0.00    +0.111 C 
ATOM     28  C   UNL     1       1.782  -2.783   1.530  0.00  0.00    +0.229 C 
ATOM     29  O   UNL     1       1.692  -3.991   1.574  0.00  0.00    -0.274 OA
ATOM     30  C   UNL     1      -0.100   1.475   2.776  0.00  0.00    +0.009 C 
ENDBRANCH  19  28
ENDBRANCH  18  19
ENDBRANCH   1  18
TORSDOF 4
