REMARK  Name = ZINC06409362
REMARK  7 active torsions:
REMARK  status: ('A' for Active; 'I' for Inactive)
REMARK    1  A    between atoms: C_1  and  C_2
REMARK    2  A    between atoms: C_9  and  C_14
REMARK    3  A    between atoms: C_14  and  C_16
REMARK    4  A    between atoms: C_14  and  N_60
REMARK    5  A    between atoms: N_20  and  C_21
REMARK    6  A    between atoms: C_21  and  C_22
REMARK    7  A    between atoms: C_31  and  C_34
REMARK                            x       y       z     vdW  Elec       q    Type
REMARK                         _______ _______ _______ _____ _____    ______ ____
ROOT
ATOM      1  C   UNL     1       3.563   6.549   0.004  0.00  0.00    +0.039 C 
ENDROOT
BRANCH   1  10
ATOM      2  C   UNL     1       0.002  -0.004   0.002  0.00  0.00    +0.044 C 
ATOM      3  C   UNL     1      -0.018   1.503   0.010  0.00  0.00    -0.050 A 
ATOM      4  C   UNL     1      -1.234   2.174   0.020  0.00  0.00    +0.005 A 
ATOM      5  C   UNL     1      -1.276   3.552   0.033  0.00  0.00    +0.026 A 
ATOM      6  C   UNL     1      -0.090   4.279   0.026  0.00  0.00    +0.049 A 
ATOM      7  C   UNL     1       1.140   3.595   0.011  0.00  0.00    -0.001 A 
ATOM      8  C   UNL     1       1.159   2.196   0.003  0.00  0.00    +0.013 A 
ATOM      9  C   UNL     1       2.383   4.369   0.003  0.00  0.00    +0.017 A 
ATOM     10  C   UNL     1       2.303   5.722   0.012  0.00  0.00    +0.011 A 
ATOM     11  C   UNL     1       1.044   6.360   0.027  0.00  0.00    +0.251 A 
ATOM     12  O   UNL     1       0.994   7.577   0.035  0.00  0.00    -0.268 OA
ATOM     13  N   UNL     1      -0.103   5.657   0.034  0.00  0.00    -0.322 N 
ATOM     14  H   UNL     1      -0.951   6.127   0.045  0.00  0.00    +0.169 HD
ENDBRANCH   1  10
BRANCH   1  21
ATOM     15  C   UNL     1       3.325   6.777  -2.394  0.00  0.00    -0.077 C 
ATOM     16  C   UNL     1       3.146   7.792  -3.525  0.00  0.00    -0.018 C 
ATOM     17  C   UNL     1       4.389   8.682  -3.608  0.00  0.00    -0.001 C 
ATOM     18  C   UNL     1       4.603   9.373  -2.259  0.00  0.00    -0.031 C 
ATOM     19  C   UNL     1       4.740   8.312  -1.164  0.00  0.00    -0.074 C 
ATOM     20  C   UNL     1       5.878  10.218  -2.313  0.00  0.00    +0.005 C 
ATOM     21  N   UNL     1       3.502   7.506  -1.120  0.00  0.00    +0.389 N 
ATOM     22  H   UNL     1       2.701   8.133  -0.980  0.00  0.00    -0.080 HD
ENDBRANCH   1  21
BRANCH   1  23
ATOM     23  C   UNL     1       3.666   7.319   1.295  0.00  0.00    +0.143 A 
ATOM     24  N   UNL     1       2.975   8.382   1.630  0.00  0.00    -0.115 NA
ATOM     25  N   UNL     1       3.351   8.745   2.808  0.00  0.00    -0.023 NA
ATOM     26  N   UNL     1       4.263   7.942   3.233  0.00  0.00    -0.044 NA
ATOM     27  N   UNL     1       4.481   7.046   2.331  0.00  0.00    -0.226 N 
BRANCH  27  28
ATOM     28  C   UNL     1       5.439   5.941   2.417  0.00  0.00    +0.182 C 
BRANCH  28  29
ATOM     29  C   UNL     1       6.771   6.387   1.874  0.00  0.00    -0.026 A 
ATOM     30  C   UNL     1       7.062   6.222   0.532  0.00  0.00    +0.005 A 
ATOM     31  C   UNL     1       8.282   6.637   0.033  0.00  0.00    +0.000 A 
ATOM     32  C   UNL     1       9.217   7.207   0.877  0.00  0.00    +0.000 A 
ATOM     33  C   UNL     1       8.929   7.367   2.220  0.00  0.00    +0.000 A 
ATOM     34  C   UNL     1       7.706   6.957   2.718  0.00  0.00    +0.005 A 
ENDBRANCH  28  29
ENDBRANCH  27  28
ENDBRANCH   1  23
TORSDOF 5
