REMARK  Name = ZINC47355854
REMARK  6 active torsions:
REMARK  status: ('A' for Active; 'I' for Inactive)
REMARK    1  A    between atoms: C_1  and  C_2
REMARK    2  A    between atoms: C_5  and  C_8
REMARK    3  A    between atoms: C_10  and  C_13
REMARK    4  A    between atoms: C_13  and  N_14
REMARK    5  A    between atoms: C_17  and  C_21
REMARK    6  A    between atoms: C_17  and  C_22
REMARK                            x       y       z     vdW  Elec       q    Type
REMARK                         _______ _______ _______ _____ _____    ______ ____
ROOT
ATOM      1  N   UNL     1       1.427  -8.290   1.419  0.00  0.00    -0.218 N 
ATOM      2  C   UNL     1       2.498  -9.010   1.031  0.00  0.00    +0.251 C 
ATOM      3  O   UNL     1       2.560  -9.789   0.104  0.00  0.00    -0.272 OA
ATOM      4  C   UNL     1       3.610  -8.642   1.993  0.00  0.00    +0.140 C 
ATOM      5  N   UNL     1       2.977  -7.666   2.897  0.00  0.00    -0.281 N 
ATOM      6  C   UNL     1       1.706  -7.523   2.479  0.00  0.00    +0.310 C 
ATOM      7  O   UNL     1       0.901  -6.782   3.008  0.00  0.00    -0.252 OA
ATOM      8  C   UNL     1       4.780  -8.001   1.244  0.00  0.00    +0.047 C 
ATOM      9  H   UNL     1       3.396  -7.213   3.645  0.00  0.00    +0.152 HD
ENDROOT
BRANCH   4  10
ATOM     10  C   UNL     1       4.070  -9.855   2.760  0.00  0.00    +0.055 A 
ATOM     11  C   UNL     1       3.550 -10.118   4.016  0.00  0.00    +0.132 A 
ATOM     12  C   UNL     1       3.974 -11.233   4.720  0.00  0.00    +0.039 A 
ATOM     13  C   UNL     1       4.915 -12.082   4.169  0.00  0.00    +0.006 A 
ATOM     14  C   UNL     1       5.435 -11.820   2.916  0.00  0.00    +0.039 A 
ATOM     15  C   UNL     1       5.008 -10.709   2.208  0.00  0.00    +0.132 A 
ATOM     16  F   UNL     1       5.512 -10.456   0.980  0.00  0.00    -0.205 F 
ATOM     17  F   UNL     1       2.631  -9.288   4.554  0.00  0.00    -0.205 F 
ENDBRANCH   4  10
BRANCH   1  18
ATOM     18  C   UNL     1       0.120  -8.337   0.759  0.00  0.00    +0.176 C 
BRANCH  18  21
ATOM     19  C   UNL     1      -0.179  -5.418  -1.353  0.00  0.00    +0.227 A 
ATOM     20  N   UNL     1      -0.246  -6.006  -0.182  0.00  0.00    -0.212 NA
ATOM     21  C   UNL     1       0.072  -7.301  -0.334  0.00  0.00    +0.098 A 
ATOM     22  C   UNL     1       0.341  -7.509  -1.636  0.00  0.00    +0.222 A 
ATOM     23  O   UNL     1       0.178  -6.332  -2.272  0.00  0.00    -0.443 OA
BRANCH  19  28
ATOM     24  C   UNL     1      -1.261   0.139  -2.386  0.00  0.00    +0.044 C 
ATOM     25  C   UNL     1      -0.977  -1.316  -2.115  0.00  0.00    -0.050 A 
ATOM     26  C   UNL     1      -0.616  -2.152  -3.157  0.00  0.00    +0.004 A 
ATOM     27  C   UNL     1      -0.355  -3.486  -2.916  0.00  0.00    +0.013 A 
ATOM     28  C   UNL     1      -0.457  -3.990  -1.618  0.00  0.00    +0.037 A 
ATOM     29  C   UNL     1      -0.821  -3.140  -0.573  0.00  0.00    +0.013 A 
ATOM     30  C   UNL     1      -1.074  -1.808  -0.826  0.00  0.00    +0.004 A 
ENDBRANCH  19  28
ENDBRANCH  18  21
ENDBRANCH   1  18
TORSDOF 4
