REMARK  Name = ZINC63980790
REMARK  9 active torsions:
REMARK  status: ('A' for Active; 'I' for Inactive)
REMARK    1  A    between atoms: C_1  and  N_2
REMARK    2  A    between atoms: N_2  and  C_3
REMARK    3  A    between atoms: C_4  and  C_6
REMARK    4  A    between atoms: N_9  and  C_11
REMARK    5  A    between atoms: C_11  and  C_12
REMARK    6  A    between atoms: C_20  and  N_23
REMARK    7  A    between atoms: N_23  and  C_24
REMARK    8  A    between atoms: C_24  and  C_25
REMARK    9  A    between atoms: C_25  and  C_26
REMARK                            x       y       z     vdW  Elec       q    Type
REMARK                         _______ _______ _______ _____ _____    ______ ____
ROOT
ATOM      1  C   UNL     1       0.020  -2.149  -1.177  0.00  0.00    +0.151 A 
ATOM      2  C   UNL     1       0.026  -2.982  -2.308  0.00  0.00    +0.004 A 
ATOM      3  C   UNL     1       0.048  -4.252  -1.835  0.00  0.00    +0.043 A 
ATOM      4  N   UNL     1       0.052  -4.177  -0.494  0.00  0.00    -0.263 N 
ATOM      5  N   UNL     1       0.041  -2.944  -0.121  0.00  0.00    -0.166 NA
ATOM      6  C   UNL     1       0.066  -5.476  -2.715  0.00  0.00    +0.054 C 
ATOM      7  C   UNL     1       0.472  -5.046  -4.131  0.00  0.00    -0.009 C 
ATOM      8  C   UNL     1      -0.384  -3.857  -4.573  0.00  0.00    -0.067 C 
ATOM      9  C   UNL     1       0.011  -2.613  -3.766  0.00  0.00    +0.023 C 
ENDROOT
BRANCH   1  13
ATOM     10  C   UNL     1      -0.018   1.461   0.010  0.00  0.00    +0.132 C 
ATOM     11  N   UNL     1       0.002  -0.004   0.002  0.00  0.00    -0.302 N 
ATOM     12  C   UNL     1       0.024  -0.743   1.267  0.00  0.00    +0.132 C 
ATOM     13  C   UNL     1       0.000  -0.672  -1.169  0.00  0.00    +0.267 C 
ATOM     14  O   UNL     1      -0.018  -0.058  -2.218  0.00  0.00    -0.268 OA
ENDBRANCH   1  13
BRANCH   8  15
ATOM     15  N   UNL     1      -0.166  -3.602  -6.003  0.00  0.00    +0.381 N 
ATOM     16  H   UNL     1      -0.666  -2.769  -6.277  0.00  0.00    -0.086 HD
ATOM     17  H   UNL     1       0.820  -3.474  -6.176  0.00  0.00    -0.086 HD
BRANCH  15  18
ATOM     18  C   UNL     1      -0.656  -4.745  -6.785  0.00  0.00    -0.078 C 
BRANCH  18  19
ATOM     19  C   UNL     1      -0.429  -4.480  -8.274  0.00  0.00    +0.014 C 
BRANCH  19  20
ATOM     20  C   UNL     1      -0.931  -5.653  -9.076  0.00  0.00    -0.043 C 
ATOM     21  C   UNL     1      -2.145  -5.779  -9.659  0.00  0.00    -0.001 A 
ATOM     22  C   UNL     1      -3.317  -4.897  -9.717  0.00  0.00    +0.010 A 
ATOM     23  C   UNL     1      -4.414  -5.308 -10.392  0.00  0.00    +0.001 A 
ATOM     24  C   UNL     1      -4.461  -6.553 -11.035  0.00  0.00    +0.002 A 
ATOM     25  C   UNL     1      -3.425  -7.418 -11.025  0.00  0.00    +0.026 A 
ATOM     26  C   UNL     1      -2.220  -7.088 -10.346  0.00  0.00    +0.043 A 
ATOM     27  N   UNL     1      -1.096  -7.745 -10.194  0.00  0.00    -0.380 N 
ATOM     28  C   UNL     1      -0.177  -6.924  -9.398  0.00  0.00    +0.144 C 
ATOM     29  H   UNL     1      -0.902  -8.626 -10.553  0.00  0.00    +0.160 HD
ENDBRANCH  19  20
ENDBRANCH  18  19
ENDBRANCH  15  18
ENDBRANCH   8  15
BRANCH   4  30
ATOM     30  C   UNL     1       0.070  -5.329   0.411  0.00  0.00    +0.179 C 
BRANCH  30  31
ATOM     31  C   UNL     1       1.498  -5.704   0.717  0.00  0.00    -0.026 A 
ATOM     32  C   UNL     1       2.161  -6.612  -0.087  0.00  0.00    +0.005 A 
ATOM     33  C   UNL     1       3.470  -6.956   0.193  0.00  0.00    +0.000 A 
ATOM     34  C   UNL     1       4.116  -6.393   1.277  0.00  0.00    +0.000 A 
ATOM     35  C   UNL     1       3.453  -5.484   2.081  0.00  0.00    +0.000 A 
ATOM     36  C   UNL     1       2.145  -5.136   1.798  0.00  0.00    +0.005 A 
ENDBRANCH  30  31
ENDBRANCH   4  30
TORSDOF 7
