REMARK  Name = ZINC53327281
REMARK  8 active torsions:
REMARK  status: ('A' for Active; 'I' for Inactive)
REMARK    1  A    between atoms: C_1  and  C_2
REMARK    2  A    between atoms: C_5  and  S_7
REMARK    3  A    between atoms: S_7  and  C_8
REMARK    4  A    between atoms: C_8  and  C_9
REMARK    5  A    between atoms: C_12  and  C_15
REMARK    6  A    between atoms: N_17  and  C_18
REMARK    7  A    between atoms: C_18  and  C_20
REMARK    8  A    between atoms: C_18  and  C_21
REMARK                            x       y       z     vdW  Elec       q    Type
REMARK                         _______ _______ _______ _____ _____    ______ ____
ROOT
ATOM      1  C   UNL     1       0.098  -5.829   2.776  0.00  0.00    -0.037 A 
ATOM      2  C   UNL     1       1.307  -6.292   3.264  0.00  0.00    +0.005 A 
ATOM      3  C   UNL     1       1.333  -7.261   4.246  0.00  0.00    +0.013 A 
ATOM      4  C   UNL     1       0.136  -7.774   4.746  0.00  0.00    +0.037 A 
ATOM      5  C   UNL     1      -1.081  -7.303   4.249  0.00  0.00    +0.013 A 
ATOM      6  C   UNL     1      -1.092  -6.330   3.272  0.00  0.00    +0.005 A 
ENDROOT
BRANCH   4   7
ATOM      7  C   UNL     1       0.155  -8.813   5.798  0.00  0.00    +0.245 C 
ATOM      8  O   UNL     1       1.216  -9.222   6.229  0.00  0.00    -0.270 OA
ATOM      9  N   UNL     1      -1.003  -9.307   6.279  0.00  0.00    -0.300 N 
ATOM     10  H   UNL     1      -1.849  -8.981   5.936  0.00  0.00    +0.150 HD
BRANCH   9  11
ATOM     11  C   UNL     1      -0.983 -10.336   7.322  0.00  0.00    +0.156 C 
ATOM     12  C   UNL     1      -0.866  -9.671   8.694  0.00  0.00    +0.038 C 
BRANCH  11  13
ATOM     13  C   UNL     1      -2.257 -11.139   7.259  0.00  0.00    +0.231 C 
ATOM     14  O   UNL     1      -3.098 -10.877   6.426  0.00  0.00    -0.274 OA
ATOM     15  N   UNL     1      -2.461 -12.148   8.129  0.00  0.00    -0.328 N 
ATOM     16  H   UNL     1      -1.788 -12.358   8.795  0.00  0.00    +0.145 HD
ATOM     17  H   UNL     1      -3.281 -12.665   8.089  0.00  0.00    +0.145 HD
ENDBRANCH  11  13
ENDBRANCH   9  11
ENDBRANCH   4   7
BRANCH   1  18
ATOM     18  C   UNL     1       0.078  -4.771   1.703  0.00  0.00    +0.111 C 
BRANCH  18  19
ATOM     19  S   UNL     1       0.058  -3.129   2.474  0.00  0.00    -0.094 S 
BRANCH  19  24
ATOM     20  C   UNL     1      -0.018   1.503   0.010  0.00  0.00    +0.066 C 
ATOM     21  C   UNL     1       0.002  -0.004   0.002  0.00  0.00    +0.047 A 
ATOM     22  C   UNL     1       0.006  -0.705  -1.157  0.00  0.00    +0.070 A 
ATOM     23  S   UNL     1       0.032  -2.378  -0.535  0.00  0.00    -0.069 S 
ATOM     24  C   UNL     1       0.036  -2.016   1.108  0.00  0.00    +0.135 A 
ATOM     25  N   UNL     1       0.023  -0.700   1.125  0.00  0.00    -0.238 NA
ENDBRANCH  19  24
ENDBRANCH  18  19
ENDBRANCH   1  18
TORSDOF 6
