REMARK  Name = ZINC59308198
REMARK  13 active torsions:
REMARK  status: ('A' for Active; 'I' for Inactive)
REMARK    1  A    between atoms: C_1  and  C_2
REMARK    2  A    between atoms: C_2  and  N_3
REMARK    3  A    between atoms: N_3  and  C_4
REMARK    4  A    between atoms: N_3  and  C_6
REMARK    5  A    between atoms: C_4  and  C_5
REMARK    6  A    between atoms: C_6  and  C_8
REMARK    7  A    between atoms: C_6  and  C_28
REMARK    8  A    between atoms: C_8  and  N_9
REMARK    9  A    between atoms: C_16  and  C_18
REMARK   10  A    between atoms: C_21  and  O_26
REMARK   11  A    between atoms: C_23  and  O_24
REMARK   12  A    between atoms: O_24  and  C_25
REMARK   13  A    between atoms: O_26  and  C_27
REMARK                            x       y       z     vdW  Elec       q    Type
REMARK                         _______ _______ _______ _____ _____    ______ ____
ROOT
ATOM      1  N   UNL     1       2.659  -1.736  -2.243  0.00  0.00    -0.300 N 
ATOM      2  C   UNL     1       3.343  -1.685  -3.404  0.00  0.00    +0.303 C 
ATOM      3  O   UNL     1       2.775  -1.915  -4.454  0.00  0.00    -0.253 OA
ATOM      4  N   UNL     1       4.655  -1.380  -3.399  0.00  0.00    -0.278 N 
ATOM      5  C   UNL     1       5.491  -1.198  -2.198  0.00  0.00    +0.110 C 
ATOM      6  C   UNL     1       6.937  -1.486  -2.674  0.00  0.00    +0.021 C 
ATOM      7  C   UNL     1       6.923  -0.876  -4.100  0.00  0.00    +0.029 C 
ATOM      8  C   UNL     1       5.493  -1.181  -4.591  0.00  0.00    +0.111 C 
ATOM      9  H   UNL     1       3.092  -1.481  -1.414  0.00  0.00    +0.150 HD
ENDROOT
BRANCH   8  10
ATOM     10  C   UNL     1       4.971  -0.018  -5.395  0.00  0.00    +0.015 A 
ATOM     11  C   UNL     1       4.216   0.963  -4.781  0.00  0.00    +0.012 A 
ATOM     12  C   UNL     1       3.736   2.030  -5.516  0.00  0.00    +0.046 A 
ATOM     13  C   UNL     1       4.011   2.119  -6.873  0.00  0.00    +0.124 A 
ATOM     14  C   UNL     1       4.769   1.136  -7.492  0.00  0.00    +0.091 A 
ATOM     15  C   UNL     1       5.254   0.069  -6.751  0.00  0.00    +0.128 A 
BRANCH  15  16
ATOM     16  O   UNL     1       6.001  -0.892  -7.353  0.00  0.00    -0.495 OA
ATOM     17  C   UNL     1       6.253  -0.738  -8.751  0.00  0.00    +0.277 C 
ENDBRANCH  15  16
BRANCH  13  18
ATOM     18  O   UNL     1       3.539   3.169  -7.595  0.00  0.00    -0.495 OA
ATOM     19  C   UNL     1       2.765   4.144  -6.893  0.00  0.00    +0.277 C 
ENDBRANCH  13  18
ENDBRANCH   8  10
BRANCH   1  20
ATOM     20  C   UNL     1       1.261  -2.176  -2.235  0.00  0.00    +0.095 C 
BRANCH  20  21
ATOM     21  C   UNL     1       0.685  -2.019  -0.827  0.00  0.00    -0.020 C 
BRANCH  21  22
ATOM     22  C   UNL     1      -0.775  -2.389  -0.837  0.00  0.00    -0.052 A 
ATOM     23  C   UNL     1      -1.279  -3.285   0.088  0.00  0.00    +0.009 A 
ATOM     24  C   UNL     1      -2.597  -3.597   0.051  0.00  0.00    +0.045 A 
ATOM     25  S   UNL     1      -3.172  -2.611  -1.322  0.00  0.00    -0.105 S 
ATOM     26  C   UNL     1      -1.617  -1.845  -1.750  0.00  0.00    +0.047 A 
ENDBRANCH  21  22
BRANCH  21  27
ATOM     27  N   UNL     1       0.833  -0.624  -0.390  0.00  0.00    +0.385 N 
ATOM     28  H   UNL     1       1.807  -0.361  -0.430  0.00  0.00    -0.081 HD
BRANCH  27  30
ATOM     29  C   UNL     1       0.346   1.714  -0.932  0.00  0.00    -0.017 C 
ATOM     30  C   UNL     1       0.052   0.252  -1.273  0.00  0.00    -0.081 C 
ENDBRANCH  27  30
BRANCH  27  31
ATOM     31  C   UNL     1       0.346  -0.489   0.989  0.00  0.00    -0.081 C 
ATOM     32  C   UNL     1       1.247  -1.291   1.930  0.00  0.00    -0.017 C 
ENDBRANCH  27  31
ENDBRANCH  21  27
ENDBRANCH  20  21
ENDBRANCH   1  20
TORSDOF 9
