REMARK  Name = ZINC53627444
REMARK  8 active torsions:
REMARK  status: ('A' for Active; 'I' for Inactive)
REMARK    1  A    between atoms: C_1  and  C_2
REMARK    2  A    between atoms: C_13  and  C_15
REMARK    3  A    between atoms: C_15  and  C_16
REMARK    4  A    between atoms: C_16  and  C_17
REMARK    5  A    between atoms: N_19  and  C_20
REMARK    6  A    between atoms: C_20  and  C_21
REMARK    7  A    between atoms: C_21  and  C_22
REMARK    8  A    between atoms: C_29  and  C_30
REMARK                            x       y       z     vdW  Elec       q    Type
REMARK                         _______ _______ _______ _____ _____    ______ ____
ROOT
ATOM      1  C   UNL     1      -0.019   1.526   0.010  0.00  0.00    +0.013 C 
ATOM      2  C   UNL     1       0.002  -0.004   0.002  0.00  0.00    +0.033 C 
ATOM      3  C   UNL     1       0.705  -0.489  -1.241  0.00  0.00    -0.001 A 
ATOM      4  C   UNL     1      -0.001  -0.509  -2.418  0.00  0.00    +0.019 A 
ATOM      5  C   UNL     1       0.607  -0.942  -3.591  0.00  0.00    +0.028 A 
ATOM      6  C   UNL     1       1.947  -1.360  -3.579  0.00  0.00    +0.139 A 
ATOM      7  C   UNL     1       2.649  -1.337  -2.383  0.00  0.00    +0.093 A 
ATOM      8  C   UNL     1       2.029  -0.906  -1.218  0.00  0.00    +0.139 A 
ATOM      9  O   UNL     1       2.755  -0.919  -0.066  0.00  0.00    -0.425 OA
ATOM     10  C   UNL     1       2.222  -0.312   1.013  0.00  0.00    +0.316 C 
ATOM     11  O   UNL     1       2.896   0.358   1.759  0.00  0.00    -0.250 OA
ATOM     12  C   UNL     1       0.740  -0.510   1.245  0.00  0.00    +0.106 C 
ATOM     13  O   UNL     1       2.272  -1.719  -4.837  0.00  0.00    -0.462 OA
ATOM     14  C   UNL     1       1.229  -1.564  -5.670  0.00  0.00    +0.204 A 
ATOM     15  C   UNL     1       0.161  -1.090  -4.989  0.00  0.00    +0.028 A 
ENDROOT
BRANCH  15  16
ATOM     16  C   UNL     1      -1.183  -0.782  -5.536  0.00  0.00    -0.014 A 
ATOM     17  C   UNL     1      -2.324  -1.278  -4.907  0.00  0.00    +0.011 A 
ATOM     18  C   UNL     1      -3.572  -0.989  -5.420  0.00  0.00    +0.039 A 
ATOM     19  C   UNL     1      -3.692  -0.207  -6.557  0.00  0.00    +0.123 A 
ATOM     20  C   UNL     1      -2.561   0.288  -7.185  0.00  0.00    +0.039 A 
ATOM     21  C   UNL     1      -1.309   0.009  -6.677  0.00  0.00    +0.011 A 
ATOM     22  F   UNL     1      -4.916   0.073  -7.055  0.00  0.00    -0.205 F 
ENDBRANCH  15  16
BRANCH  12  23
ATOM     23  C   UNL     1       0.441  -1.995   1.458  0.00  0.00    +0.024 C 
BRANCH  23  24
ATOM     24  C   UNL     1       1.079  -2.462   2.768  0.00  0.00    +0.096 C 
BRANCH  24  25
ATOM     25  C   UNL     1       0.785  -3.925   2.977  0.00  0.00    +0.213 C 
ATOM     26  O   UNL     1       0.130  -4.535   2.159  0.00  0.00    -0.276 OA
ATOM     27  N   UNL     1       1.250  -4.556   4.073  0.00  0.00    -0.315 N 
ATOM     28  H   UNL     1       1.774  -4.068   4.728  0.00  0.00    +0.149 HD
BRANCH  27  29
ATOM     29  C   UNL     1       0.965  -5.978   4.277  0.00  0.00    +0.110 C 
BRANCH  29  30
ATOM     30  C   UNL     1       1.603  -6.444   5.587  0.00  0.00    +0.073 C 
BRANCH  30  31
ATOM     31  C   UNL     1       1.309  -7.907   5.796  0.00  0.00    +0.035 A 
ATOM     32  N   UNL     1       2.115  -8.959   5.452  0.00  0.00    -0.350 N 
ATOM     33  C   UNL     1       1.473 -10.090   5.816  0.00  0.00    +0.171 A 
ATOM     34  N   UNL     1       0.330  -9.767   6.356  0.00  0.00    -0.352 N 
ATOM     35  C   UNL     1       0.205  -8.432   6.362  0.00  0.00    +0.105 A 
ATOM     36  H   UNL     1       2.985  -8.902   5.027  0.00  0.00    +0.166 HD
ATOM     37  H   UNL     1      -0.325 -10.394   6.702  0.00  0.00    +0.166 HD
ENDBRANCH  30  31
ENDBRANCH  29  30
ENDBRANCH  27  29
ENDBRANCH  24  25
ENDBRANCH  23  24
ENDBRANCH  12  23
TORSDOF 7
