REMARK  Name = ZINC22854760
REMARK  7 active torsions:
REMARK  status: ('A' for Active; 'I' for Inactive)
REMARK    1  A    between atoms: C_1  and  C_2
REMARK    2  A    between atoms: C_2  and  C_3
REMARK    3  A    between atoms: C_8  and  O_33
REMARK    4  A    between atoms: C_9  and  C_11
REMARK    5  A    between atoms: C_11  and  C_13
REMARK    6  A    between atoms: C_11  and  N_20
REMARK    7  A    between atoms: N_23  and  C_26
REMARK                            x       y       z     vdW  Elec       q    Type
REMARK                         _______ _______ _______ _____ _____    ______ ____
ROOT
ATOM      1  C   UNL     1      -6.203  -0.532  -1.033  0.00  0.00    +0.129 C 
ENDROOT
BRANCH   1   8
ATOM      2  C   UNL     1     -11.084   2.817  -1.746  0.00  0.00    +0.152 A 
ATOM      3  N   UNL     1     -10.064   3.029  -2.574  0.00  0.00    -0.205 NA
ATOM      4  C   UNL     1      -9.089   2.214  -2.275  0.00  0.00    +0.199 A 
ATOM      5  N   UNL     1      -9.454   1.433  -1.222  0.00  0.00    -0.173 N 
ATOM      6  N   UNL     1     -10.769   1.864  -0.910  0.00  0.00    -0.147 NA
ATOM      7  C   UNL     1      -8.538   0.511  -0.774  0.00  0.00    +0.228 A 
ATOM      8  C   UNL     1      -7.340   0.400  -1.361  0.00  0.00    +0.076 A 
ATOM      9  S   UNL     1      -7.442   1.652  -2.632  0.00  0.00    -0.047 S 
BRANCH   2  11
ATOM     10  C   UNL     1     -12.303   4.788  -0.865  0.00  0.00    +0.012 C 
ATOM     11  C   UNL     1     -12.396   3.558  -1.770  0.00  0.00    +0.075 C 
ENDBRANCH   2  11
BRANCH   7  12
ATOM     12  O   UNL     1      -8.851  -0.296   0.275  0.00  0.00    -0.492 OA
ATOM     13  H   UNL     1      -8.121  -1.035   0.637  0.00  0.00    +0.294 HD
ENDBRANCH   7  12
ENDBRANCH   1   8
BRANCH   1  14
ATOM     14  C   UNL     1      -6.137  -1.628  -2.065  0.00  0.00    -0.024 A 
ATOM     15  C   UNL     1      -6.672  -2.873  -1.787  0.00  0.00    +0.005 A 
ATOM     16  C   UNL     1      -6.613  -3.878  -2.733  0.00  0.00    +0.002 A 
ATOM     17  C   UNL     1      -6.019  -3.641  -3.958  0.00  0.00    +0.020 A 
ATOM     18  C   UNL     1      -5.483  -2.396  -4.237  0.00  0.00    +0.041 A 
ATOM     19  C   UNL     1      -5.548  -1.388  -3.292  0.00  0.00    +0.025 A 
ATOM     20 CL   UNL     1      -4.736  -2.097  -5.776  0.00  0.00    -0.084 Cl
ENDBRANCH   1  14
BRANCH   1  21
ATOM     21  N   UNL     1      -4.939   0.217  -1.034  0.00  0.00    -0.288 NA
ATOM     22  C   UNL     1      -4.871   1.136   0.111  0.00  0.00    +0.104 C 
ATOM     23  C   UNL     1      -3.579   1.953   0.029  0.00  0.00    +0.120 C 
ATOM     24  N   UNL     1      -2.426   1.042   0.019  0.00  0.00    -0.327 N 
ATOM     25  C   UNL     1      -2.495   0.123  -1.126  0.00  0.00    +0.120 C 
ATOM     26  C   UNL     1      -3.786  -0.694  -1.045  0.00  0.00    +0.104 C 
BRANCH  24  27
ATOM     27  C   UNL     1      -1.225   1.755   0.017  0.00  0.00    +0.031 A 
ATOM     28  C   UNL     1      -0.013   1.076   0.008  0.00  0.00    +0.023 A 
ATOM     29  C   UNL     1       1.173   1.783   0.000  0.00  0.00    +0.003 A 
ATOM     30  C   UNL     1       1.156   3.166   0.008  0.00  0.00    +0.020 A 
ATOM     31  C   UNL     1      -0.049   3.845   0.023  0.00  0.00    +0.043 A 
ATOM     32  C   UNL     1      -1.240   3.143   0.031  0.00  0.00    +0.043 A 
ATOM     33 CL   UNL     1      -0.066   5.581   0.032  0.00  0.00    -0.083 Cl
ENDBRANCH  24  27
ENDBRANCH   1  21
TORSDOF 6
