REMARK  Name = ZINC00940768
REMARK  5 active torsions:
REMARK  status: ('A' for Active; 'I' for Inactive)
REMARK    1  A    between atoms: C_1  and  C_2
REMARK    2  A    between atoms: C_3  and  C_25
REMARK    3  A    between atoms: C_4  and  C_17
REMARK    4  A    between atoms: C_10  and  C_12
REMARK    5  A    between atoms: C_20  and  C_23
REMARK                            x       y       z     vdW  Elec       q    Type
REMARK                         _______ _______ _______ _____ _____    ______ ____
ROOT
ATOM      1  C   UNL     1       0.460   1.362   0.001  0.00  0.00    +0.066 C 
ATOM      2  C   UNL     1       0.267  -0.133   0.026  0.00  0.00    +0.052 C 
ATOM      3  C   UNL     1      -1.004  -0.637   0.006  0.00  0.00    +0.061 C 
ATOM      4  C   UNL     1      -1.151  -2.148   0.032  0.00  0.00    +0.164 C 
ATOM      5  N   UNL     1       0.098  -2.918   0.077  0.00  0.00    -0.207 N 
ATOM      6  C   UNL     1       1.296  -2.242   0.092  0.00  0.00    +0.237 C 
ATOM      7  N   UNL     1       1.332  -0.917   0.062  0.00  0.00    -0.218 NA
ATOM      8  N   UNL     1       2.275  -3.155   0.134  0.00  0.00    -0.196 NA
ATOM      9  C   UNL     1       1.764  -4.377   0.146  0.00  0.00    +0.153 C 
ATOM     10  N   UNL     1       0.394  -4.283   0.111  0.00  0.00    -0.244 N 
ATOM     11  H   UNL     1      -0.240  -5.017   0.111  0.00  0.00    +0.172 HD
ENDROOT
BRANCH   4  12
ATOM     12  C   UNL     1      -1.970  -2.519   1.242  0.00  0.00    -0.021 A 
ATOM     13  C   UNL     1      -1.434  -2.370   2.508  0.00  0.00    +0.007 A 
ATOM     14  C   UNL     1      -2.179  -2.708   3.620  0.00  0.00    +0.019 A 
ATOM     15  C   UNL     1      -3.476  -3.201   3.464  0.00  0.00    +0.052 A 
ATOM     16  C   UNL     1      -4.011  -3.348   2.183  0.00  0.00    +0.019 A 
ATOM     17  C   UNL     1      -3.257  -3.002   1.080  0.00  0.00    +0.007 A 
BRANCH  15  18
ATOM     18  C   UNL     1      -4.254  -3.554   4.613  0.00  0.00    +0.099 C 
ATOM     19  N   UNL     1      -4.871  -3.834   5.525  0.00  0.00    -0.191 NA
ENDBRANCH  15  18
ENDBRANCH   4  12
BRANCH   9  20
ATOM     20  C   UNL     1       2.532  -5.620   0.189  0.00  0.00    +0.053 A 
ATOM     21  C   UNL     1       3.909  -5.798   0.231  0.00  0.00    +0.019 A 
ATOM     22  C   UNL     1       4.341  -7.102   0.265  0.00  0.00    +0.008 A 
ATOM     23  C   UNL     1       3.423  -8.101   0.256  0.00  0.00    +0.046 A 
ATOM     24  S   UNL     1       1.945  -7.304   0.208  0.00  0.00    -0.094 S 
ENDBRANCH   9  20
BRANCH   3  25
ATOM     25  C   UNL     1      -2.127   0.208  -0.037  0.00  0.00    +0.241 C 
ATOM     26  O   UNL     1      -1.986   1.415   0.058  0.00  0.00    -0.271 OA
ATOM     27  N   UNL     1      -3.360  -0.317  -0.183  0.00  0.00    -0.325 N 
ATOM     28  H   UNL     1      -3.480  -1.279  -0.190  0.00  0.00    +0.145 HD
ATOM     29  H   UNL     1      -4.127   0.268  -0.282  0.00  0.00    +0.145 HD
ENDBRANCH   3  25
TORSDOF 4
