REMARK  Name = ZINC22011172
REMARK  6 active torsions:
REMARK  status: ('A' for Active; 'I' for Inactive)
REMARK    1  A    between atoms: C_1  and  C_2
REMARK    2  A    between atoms: C_2  and  C_4
REMARK    3  A    between atoms: C_2  and  N_18
REMARK    4  A    between atoms: N_10  and  C_11
REMARK    5  A    between atoms: N_21  and  C_24
REMARK    6  A    between atoms: C_24  and  C_25
REMARK                            x       y       z     vdW  Elec       q    Type
REMARK                         _______ _______ _______ _____ _____    ______ ____
ROOT
ATOM      1  C   UNL     1      -1.968   1.625   0.539  0.00  0.00    -0.005 C 
ATOM      2  C   UNL     1      -0.476   1.902   0.727  0.00  0.00    -0.002 C 
ENDROOT
BRANCH   2   3
ATOM      3  C   UNL     1       0.018   1.178   1.953  0.00  0.00    +0.123 A 
ATOM      4  N   UNL     1      -0.270   1.646   3.155  0.00  0.00    -0.201 NA
ATOM      5  C   UNL     1       0.165   1.010   4.241  0.00  0.00    +0.217 A 
ATOM      6  N   UNL     1       0.889  -0.097   4.114  0.00  0.00    -0.181 NA
ATOM      7  C   UNL     1       1.177  -0.564   2.904  0.00  0.00    +0.224 A 
ATOM      8  N   UNL     1       0.734   0.075   1.824  0.00  0.00    -0.201 NA
ATOM      9  N   UNL     1       1.930  -1.714   2.768  0.00  0.00    -0.284 N 
ATOM     10  N   UNL     1      -0.136   1.499   5.495  0.00  0.00    -0.327 N 
ATOM     11  H   UNL     1       2.088  -2.152   1.772  0.00  0.00    +0.155 HD
ATOM     12  H   UNL     1       0.223   0.973   6.392  0.00  0.00    +0.145 HD
ATOM     13  H   UNL     1      -0.736   2.415   5.599  0.00  0.00    +0.145 HD
BRANCH   9  14
ATOM     14  C   UNL     1       2.492  -2.319   3.896  0.00  0.00    +0.034 A 
ATOM     15  C   UNL     1       2.990  -1.538   4.931  0.00  0.00    +0.023 A 
ATOM     16  C   UNL     1       3.539  -2.139   6.046  0.00  0.00    +0.002 A 
ATOM     17  C   UNL     1       3.604  -3.518   6.128  0.00  0.00    +0.000 A 
ATOM     18  C   UNL     1       3.115  -4.299   5.097  0.00  0.00    +0.002 A 
ATOM     19  C   UNL     1       2.559  -3.704   3.982  0.00  0.00    +0.023 A 
ENDBRANCH   9  14
ENDBRANCH   2   3
BRANCH   2  20
ATOM     20  N   UNL     1      -0.262   3.346   0.891  0.00  0.00    +0.388 N 
ATOM     21  C   UNL     1      -0.799   4.091  -0.256  0.00  0.00    -0.062 C 
ATOM     22  C   UNL     1      -0.628   5.592  -0.010  0.00  0.00    +0.066 C 
ATOM     23  N   UNL     1       0.796   5.895   0.191  0.00  0.00    -0.302 NA
ATOM     24  C   UNL     1       1.333   5.149   1.337  0.00  0.00    +0.066 C 
ATOM     25  C   UNL     1       1.162   3.648   1.092  0.00  0.00    -0.062 C 
ATOM     26  H   UNL     1      -0.807   3.667   1.791  0.00  0.00    -0.081 HD
BRANCH  23  27
ATOM     27  C   UNL     1       1.009   7.339   0.355  0.00  0.00    +0.119 C 
BRANCH  27  28
ATOM     28  C   UNL     1       0.674   8.046  -0.933  0.00  0.00    -0.033 A 
ATOM     29  C   UNL     1       1.655   8.248  -1.886  0.00  0.00    +0.006 A 
ATOM     30  C   UNL     1       1.347   8.892  -3.070  0.00  0.00    +0.020 A 
ATOM     31  C   UNL     1       0.059   9.343  -3.297  0.00  0.00    +0.041 A 
ATOM     32  C   UNL     1      -0.921   9.145  -2.341  0.00  0.00    +0.020 A 
ATOM     33  C   UNL     1      -0.613   8.496  -1.159  0.00  0.00    +0.006 A 
ATOM     34 CL   UNL     1      -0.327  10.157  -4.780  0.00  0.00    -0.084 Cl
ENDBRANCH  27  28
ENDBRANCH  23  27
ENDBRANCH   2  20
TORSDOF 5
