REMARK  Name = ZINC43429576
REMARK  13 active torsions:
REMARK  status: ('A' for Active; 'I' for Inactive)
REMARK    1  A    between atoms: C_1  and  C_2
REMARK    2  A    between atoms: C_4  and  S_10
REMARK    3  A    between atoms: C_6  and  N_9
REMARK    4  A    between atoms: C_7  and  C_8
REMARK    5  A    between atoms: S_10  and  N_13
REMARK    6  A    between atoms: N_13  and  C_14
REMARK    7  A    between atoms: C_14  and  C_15
REMARK    8  A    between atoms: C_14  and  C_16
REMARK    9  A    between atoms: C_14  and  C_17
REMARK   10  A    between atoms: C_17  and  C_18
REMARK   11  A    between atoms: C_18  and  C_19
REMARK   12  A    between atoms: C_18  and  C_20
REMARK   13  A    between atoms: C_18  and  C_21
REMARK                            x       y       z     vdW  Elec       q    Type
REMARK                         _______ _______ _______ _____ _____    ______ ____
ROOT
ATOM      1  S   UNL     1       1.224  -3.013  -3.176  0.00  0.00    +0.059 S 
ATOM      2  O   UNL     1       1.125  -3.840  -2.025  0.00  0.00    -0.153 OA
ATOM      3  O   UNL     1       0.530  -3.300  -4.383  0.00  0.00    -0.153 OA
ENDROOT
BRANCH   1   7
ATOM      4  C   UNL     1      -0.410   1.825  -4.290  0.00  0.00    +0.044 C 
ATOM      5  C   UNL     1      -0.024   0.808  -3.248  0.00  0.00    -0.044 A 
ATOM      6  C   UNL     1       0.370  -0.461  -3.633  0.00  0.00    +0.032 A 
ATOM      7  C   UNL     1       0.724  -1.397  -2.680  0.00  0.00    +0.107 A 
ATOM      8  C   UNL     1       0.687  -1.069  -1.339  0.00  0.00    +0.051 A 
ATOM      9  C   UNL     1       0.293   0.205  -0.948  0.00  0.00    +0.030 A 
ATOM     10  C   UNL     1      -0.058   1.145  -1.909  0.00  0.00    -0.027 A 
ATOM     11  C   UNL     1      -0.481   2.530  -1.491  0.00  0.00    +0.046 C 
BRANCH   9  12
ATOM     12  N   UNL     1       0.254   0.541   0.407  0.00  0.00    -0.358 N 
ATOM     13  H   UNL     1       0.502  -0.116   1.077  0.00  0.00    +0.142 HD
ATOM     14  H   UNL     1      -0.022   1.430   0.678  0.00  0.00    +0.142 HD
ENDBRANCH   9  12
ENDBRANCH   1   7
BRANCH   1  15
ATOM     15  N   UNL     1       2.832  -2.931  -3.563  0.00  0.00    -0.184 NA
ATOM     16  H   UNL     1       3.118  -3.064  -4.480  0.00  0.00    +0.149 HD
BRANCH  15  17
ATOM     17  C   UNL     1       3.823  -2.657  -2.519  0.00  0.00    +0.035 C 
ATOM     18  C   UNL     1       3.726  -1.190  -2.096  0.00  0.00    +0.029 C 
ATOM     19  C   UNL     1       3.553  -3.556  -1.311  0.00  0.00    +0.029 C 
BRANCH  17  20
ATOM     20  C   UNL     1       5.226  -2.940  -3.062  0.00  0.00    +0.029 C 
BRANCH  20  21
ATOM     21  C   UNL     1       5.141  -3.987  -4.173  0.00  0.00    -0.036 C 
ATOM     22  C   UNL     1       4.666  -3.322  -5.466  0.00  0.00    +0.010 C 
ATOM     23  C   UNL     1       6.522  -4.607  -4.396  0.00  0.00    +0.010 C 
ATOM     24  C   UNL     1       4.151  -5.081  -3.769  0.00  0.00    +0.010 C 
ENDBRANCH  20  21
ENDBRANCH  17  20
ENDBRANCH  15  17
ENDBRANCH   1  15
TORSDOF 6
