REMARK  Name = ZINC20150422
REMARK  9 active torsions:
REMARK  status: ('A' for Active; 'I' for Inactive)
REMARK    1  A    between atoms: C_1  and  C_2
REMARK    2  A    between atoms: C_2  and  O_3
REMARK    3  A    between atoms: O_3  and  C_4
REMARK    4  A    between atoms: C_4  and  C_6
REMARK    5  A    between atoms: C_6  and  C_27
REMARK    6  A    between atoms: C_11  and  C_14
REMARK    7  A    between atoms: N_23  and  C_26
REMARK    8  A    between atoms: C_27  and  C_28
REMARK    9  A    between atoms: C_31  and  O_34
REMARK                            x       y       z     vdW  Elec       q    Type
REMARK                         _______ _______ _______ _____ _____    ______ ____
ROOT
ATOM      1  C   UNL     1       1.468  -2.353  -2.550  0.00  0.00    +0.133 C 
ATOM      2  C   UNL     1       0.880  -3.709  -2.929  0.00  0.00    +0.120 C 
ATOM      3  C   UNL     1      -0.464  -3.172  -3.552  0.00  0.00    +0.111 C 
ATOM      4  C   UNL     1      -0.020  -2.099  -4.450  0.00  0.00    +0.100 C 
ATOM      5  N   UNL     1       1.184  -1.510  -3.757  0.00  0.00    -0.293 NA
ATOM      6  C   UNL     1      -1.283  -4.360  -3.567  0.00  0.00    +0.227 C 
ATOM      7  O   UNL     1      -2.126  -4.665  -4.383  0.00  0.00    -0.275 OA
ATOM      8  N   UNL     1      -0.900  -5.069  -2.456  0.00  0.00    -0.245 N 
ATOM      9  C   UNL     1       0.271  -4.603  -1.895  0.00  0.00    +0.228 C 
ATOM     10  O   UNL     1       0.717  -4.855  -0.796  0.00  0.00    -0.275 OA
ATOM     11  C   UNL     1      -1.647  -6.212  -1.925  0.00  0.00    +0.141 C 
ATOM     12  H   UNL     1       1.026  -0.548  -3.497  0.00  0.00    +0.124 HD
ENDROOT
BRANCH   4  13
ATOM     13  C   UNL     1       0.343  -2.661  -5.801  0.00  0.00    +0.005 A 
ATOM     14  C   UNL     1       1.656  -2.985  -6.084  0.00  0.00    +0.008 A 
ATOM     15  C   UNL     1       1.990  -3.501  -7.322  0.00  0.00    +0.000 A 
ATOM     16  C   UNL     1       1.010  -3.692  -8.279  0.00  0.00    +0.003 A 
ATOM     17  C   UNL     1      -0.304  -3.369  -7.998  0.00  0.00    +0.038 A 
ATOM     18  C   UNL     1      -0.640  -2.857  -6.756  0.00  0.00    +0.128 A 
ATOM     19  F   UNL     1      -1.924  -2.545  -6.478  0.00  0.00    -0.205 F 
ENDBRANCH   4  13
BRANCH   1  20
ATOM     20  C   UNL     1       0.775  -1.794  -1.334  0.00  0.00    +0.329 C 
ATOM     21  O   UNL     1       0.314  -2.540  -0.504  0.00  0.00    -0.249 OA
BRANCH  20  22
ATOM     22  O   UNL     1       0.671  -0.465  -1.174  0.00  0.00    -0.464 OA
BRANCH  22  24
ATOM     23  C   UNL     1      -0.019   1.526   0.010  0.00  0.00    +0.048 C 
ATOM     24  C   UNL     1       0.002  -0.004   0.002  0.00  0.00    +0.229 C 
ENDBRANCH  22  24
ENDBRANCH  20  22
ENDBRANCH   1  20
BRANCH   1  25
ATOM     25  C   UNL     1       2.975  -2.462  -2.309  0.00  0.00    +0.069 C 
BRANCH  25  26
ATOM     26  C   UNL     1       3.534  -1.098  -1.997  0.00  0.00    -0.045 A 
ATOM     27  C   UNL     1       3.984  -0.286  -3.021  0.00  0.00    +0.007 A 
ATOM     28  C   UNL     1       4.497   0.965  -2.738  0.00  0.00    +0.045 A 
ATOM     29  C   UNL     1       4.560   1.406  -1.424  0.00  0.00    +0.117 A 
ATOM     30  C   UNL     1       4.107   0.590  -0.398  0.00  0.00    +0.045 A 
ATOM     31  C   UNL     1       3.590  -0.658  -0.687  0.00  0.00    +0.007 A 
BRANCH  29  32
ATOM     32  O   UNL     1       5.064   2.636  -1.143  0.00  0.00    -0.507 OA
ATOM     33  H   UNL     1       4.403   3.342  -1.140  0.00  0.00    +0.292 HD
ENDBRANCH  29  32
ENDBRANCH  25  26
ENDBRANCH   1  25
TORSDOF 7
