REMARK  Name = ZINC59959384
REMARK  9 active torsions:
REMARK  status: ('A' for Active; 'I' for Inactive)
REMARK    1  A    between atoms: C_1  and  C_2
REMARK    2  A    between atoms: C_5  and  C_8
REMARK    3  A    between atoms: C_8  and  N_9
REMARK    4  A    between atoms: C_10  and  C_31
REMARK    5  A    between atoms: C_11  and  C_27
REMARK    6  A    between atoms: C_13  and  C_14
REMARK    7  A    between atoms: C_23  and  O_24
REMARK    8  A    between atoms: C_27  and  O_29
REMARK    9  A    between atoms: O_29  and  C_30
REMARK                            x       y       z     vdW  Elec       q    Type
REMARK                         _______ _______ _______ _____ _____    ______ ____
ROOT
ATOM      1  N   UNL     1       1.137  -4.796  -0.351  0.00  0.00    -0.266 N 
ATOM      2  C   UNL     1       1.848  -5.102  -1.469  0.00  0.00    +0.026 C 
ATOM      3  C   UNL     1       3.106  -5.507  -1.148  0.00  0.00    +0.088 C 
ATOM      4  C   UNL     1       3.194  -5.450   0.333  0.00  0.00    +0.053 C 
ATOM      5  C   UNL     1       4.277  -5.768   1.128  0.00  0.00    +0.026 C 
ATOM      6  C   UNL     1       1.872  -4.973   0.762  0.00  0.00    +0.252 C 
ATOM      7  O   UNL     1       1.509  -4.776   1.909  0.00  0.00    -0.270 OA
ATOM      8  C   UNL     1       1.314  -5.005  -2.875  0.00  0.00    +0.062 C 
ENDROOT
BRANCH   5   9
ATOM      9  C   UNL     1       5.526  -6.069   0.535  0.00  0.00    +0.025 A 
ATOM     10  C   UNL     1       6.136  -7.391   0.701  0.00  0.00    -0.007 A 
ATOM     11  C   UNL     1       5.510  -8.394   1.446  0.00  0.00    +0.009 A 
ATOM     12  C   UNL     1       6.111  -9.612   1.577  0.00  0.00    +0.001 A 
ATOM     13  C   UNL     1       7.341  -9.870   0.978  0.00  0.00    +0.001 A 
ATOM     14  C   UNL     1       7.978  -8.913   0.245  0.00  0.00    +0.008 A 
ATOM     15  C   UNL     1       7.386  -7.648   0.090  0.00  0.00    -0.017 A 
ATOM     16  C   UNL     1       8.015  -6.637  -0.660  0.00  0.00    +0.012 A 
ATOM     17  C   UNL     1       7.438  -5.415  -0.806  0.00  0.00    +0.046 A 
ATOM     18  C   UNL     1       6.206  -5.110  -0.230  0.00  0.00    +0.125 A 
BRANCH  18  19
ATOM     19  O   UNL     1       5.664  -3.880  -0.406  0.00  0.00    -0.506 OA
ATOM     20  H   UNL     1       5.859  -3.259   0.309  0.00  0.00    +0.292 HD
ENDBRANCH  18  19
ENDBRANCH   5   9
BRANCH   3  21
ATOM     21  C   UNL     1       4.163  -5.919  -2.078  0.00  0.00    +0.341 C 
ATOM     22  O   UNL     1       4.460  -7.094  -2.179  0.00  0.00    -0.245 OA
BRANCH  21  23
ATOM     23  O   UNL     1       4.805  -4.995  -2.821  0.00  0.00    -0.464 OA
ATOM     24  C   UNL     1       5.741  -5.476  -3.788  0.00  0.00    +0.280 C 
ENDBRANCH  21  23
ENDBRANCH   3  21
BRANCH   1  25
ATOM     25  C   UNL     1      -0.251  -4.328  -0.358  0.00  0.00    +0.148 C 
BRANCH  25  30
ATOM     26  C   UNL     1      -0.339   1.441  -0.695  0.00  0.00    +0.044 C 
ATOM     27  C   UNL     1      -0.316  -0.064  -0.607  0.00  0.00    -0.050 A 
ATOM     28  C   UNL     1      -0.322  -0.824  -1.762  0.00  0.00    +0.003 A 
ATOM     29  C   UNL     1      -0.301  -2.204  -1.681  0.00  0.00    +0.005 A 
ATOM     30  C   UNL     1      -0.273  -2.823  -0.446  0.00  0.00    -0.030 A 
ATOM     31  C   UNL     1      -0.266  -2.063   0.709  0.00  0.00    +0.005 A 
ATOM     32  C   UNL     1      -0.282  -0.683   0.628  0.00  0.00    +0.003 A 
ENDBRANCH  25  30
ENDBRANCH   1  25
TORSDOF 6
