REMARK  Name = ZINC33439070
REMARK  11 active torsions:
REMARK  status: ('A' for Active; 'I' for Inactive)
REMARK    1  A    between atoms: C_1  and  C_2
REMARK    2  A    between atoms: C_2  and  C_3
REMARK    3  A    between atoms: C_3  and  C_4
REMARK    4  A    between atoms: C_4  and  C_5
REMARK    5  A    between atoms: C_5  and  C_7
REMARK    6  A    between atoms: C_5  and  C_9
REMARK    7  A    between atoms: C_7  and  C_8
REMARK    8  A    between atoms: C_9  and  N_10
REMARK    9  A    between atoms: C_14  and  C_15
REMARK   10  A    between atoms: C_16  and  N_26
REMARK   11  A    between atoms: C_29  and  C_32
REMARK                            x       y       z     vdW  Elec       q    Type
REMARK                         _______ _______ _______ _____ _____    ______ ____
ROOT
ATOM      1  C   UNL     1      -4.696   8.778   0.105  0.00  0.00    +0.081 A 
ATOM      2  C   UNL     1      -5.679   9.664  -0.394  0.00  0.00    +0.136 A 
ATOM      3  N   UNL     1      -6.790   9.175  -0.926  0.00  0.00    -0.214 NA
ATOM      4  C   UNL     1      -7.013   7.862  -0.997  0.00  0.00    +0.142 A 
ATOM      5  C   UNL     1      -8.212   7.402  -1.569  0.00  0.00    +0.047 A 
ATOM      6  C   UNL     1      -8.449   6.061  -1.646  0.00  0.00    +0.005 A 
ATOM      7  C   UNL     1      -7.494   5.161  -1.155  0.00  0.00    +0.018 A 
ATOM      8  C   UNL     1      -6.346   5.622  -0.608  0.00  0.00    +0.096 A 
ATOM      9  N   UNL     1      -6.100   6.960  -0.526  0.00  0.00    -0.268 N 
ATOM     10  C   UNL     1      -4.943   7.386   0.025  0.00  0.00    +0.267 A 
ATOM     11  O   UNL     1      -4.126   6.586   0.447  0.00  0.00    -0.267 OA
ENDROOT
BRANCH   1  16
ATOM     12  N   UNL     1      -3.604   8.437   4.242  0.00  0.00    -0.255 N 
ATOM     13  C   UNL     1      -4.074   8.500   3.008  0.00  0.00    +0.258 C 
ATOM     14  O   UNL     1      -5.180   8.067   2.736  0.00  0.00    -0.269 OA
ATOM     15  C   UNL     1      -3.250   9.087   2.005  0.00  0.00    +0.077 C 
ATOM     16  C   UNL     1      -3.499   9.270   0.675  0.00  0.00    +0.037 C 
ATOM     17  S   UNL     1      -1.804   9.520   2.962  0.00  0.00    -0.061 S 
ATOM     18  C   UNL     1      -2.379   8.922   4.544  0.00  0.00    +0.121 C 
ATOM     19  S   UNL     1      -1.581   8.954   6.058  0.00  0.00    -0.027 S 
BRANCH  12  20
ATOM     20  C   UNL     1      -4.425   7.839   5.298  0.00  0.00    +0.118 C 
BRANCH  20  21
ATOM     21  C   UNL     1      -4.135   6.339   5.381  0.00  0.00    +0.007 C 
BRANCH  21  22
ATOM     22  C   UNL     1      -2.687   6.123   5.823  0.00  0.00    +0.002 C 
ATOM     23  C   UNL     1      -2.364   4.628   5.799  0.00  0.00    +0.004 C 
ENDBRANCH  21  22
BRANCH  21  24
ATOM     24  C   UNL     1      -5.080   5.693   6.396  0.00  0.00    +0.005 C 
BRANCH  24  25
ATOM     25  C   UNL     1      -6.521   5.804   5.894  0.00  0.00    +0.000 C 
BRANCH  25  27
ATOM     26  C   UNL     1      -8.892   5.155   6.340  0.00  0.00    +0.004 C 
ATOM     27  C   UNL     1      -7.451   5.045   6.842  0.00  0.00    -0.003 C 
ENDBRANCH  25  27
ENDBRANCH  24  25
ENDBRANCH  21  24
ENDBRANCH  20  21
ENDBRANCH  12  20
ENDBRANCH   1  16
BRANCH   2  28
ATOM     28  N   UNL     1      -5.481  11.026  -0.330  0.00  0.00    -0.314 N 
ATOM     29  C   UNL     1      -5.430  11.486   1.063  0.00  0.00    +0.107 C 
ATOM     30  C   UNL     1      -5.065  12.972   1.098  0.00  0.00    +0.031 C 
ATOM     31  C   UNL     1      -6.114  13.768   0.317  0.00  0.00    +0.078 C 
ATOM     32  C   UNL     1      -6.183  13.237  -1.117  0.00  0.00    +0.031 C 
ATOM     33  C   UNL     1      -6.515  11.744  -1.088  0.00  0.00    +0.107 C 
BRANCH  31  34
ATOM     34  C   UNL     1      -5.730  15.225   0.297  0.00  0.00    +0.214 C 
ATOM     35  O   UNL     1      -5.531  15.785  -0.760  0.00  0.00    -0.276 OA
ATOM     36  N   UNL     1      -5.609  15.906   1.454  0.00  0.00    -0.329 N 
ATOM     37  H   UNL     1      -5.329  16.970   1.439  0.00  0.00    +0.145 HD
ATOM     38  H   UNL     1      -5.790  15.398   2.413  0.00  0.00    +0.145 HD
ENDBRANCH  31  34
ENDBRANCH   2  28
TORSDOF 9
