REMARK  Name = ZINC08694770
REMARK  5 active torsions:
REMARK  status: ('A' for Active; 'I' for Inactive)
REMARK    1  A    between atoms: C_3  and  N_30
REMARK    2  A    between atoms: C_6  and  N_7
REMARK    3  A    between atoms: C_11  and  C_12
REMARK    4  A    between atoms: C_15  and  C_17
REMARK    5  A    between atoms: C_20  and  N_24
REMARK                            x       y       z     vdW  Elec       q    Type
REMARK                         _______ _______ _______ _____ _____    ______ ____
ROOT
ATOM      1  N   UNL     1      -2.006  -5.777   4.048  0.00  0.00    -0.224 N 
ATOM      2  C   UNL     1      -1.807  -6.074   2.773  0.00  0.00    +0.263 C 
ATOM      3  O   UNL     1      -2.188  -7.121   2.291  0.00  0.00    -0.269 OA
ATOM      4  C   UNL     1      -1.088  -5.047   1.964  0.00  0.00    +0.080 C 
ATOM      5  C   UNL     1      -0.735  -5.075   0.605  0.00  0.00    +0.066 C 
ATOM      6  S   UNL     1      -0.797  -3.812   3.149  0.00  0.00    -0.061 S 
ATOM      7  C   UNL     1      -1.569  -4.604   4.548  0.00  0.00    +0.125 C 
ATOM      8  S   UNL     1      -1.714  -4.016   6.150  0.00  0.00    -0.027 S 
ENDROOT
BRANCH   1  14
ATOM      9  C   UNL     1      -1.956  -7.649   5.574  0.00  0.00    +0.026 A 
ATOM     10  C   UNL     1      -2.616  -8.540   6.398  0.00  0.00    +0.034 A 
ATOM     11  C   UNL     1      -3.992  -8.478   6.523  0.00  0.00    +0.126 A 
ATOM     12  C   UNL     1      -4.710  -7.522   5.829  0.00  0.00    +0.034 A 
ATOM     13  C   UNL     1      -4.055  -6.625   5.008  0.00  0.00    +0.026 A 
ATOM     14  C   UNL     1      -2.674  -6.684   4.880  0.00  0.00    +0.043 A 
BRANCH  11  15
ATOM     15  N   UNL     1      -4.697  -9.438   7.402  0.00  0.00    +0.056 N 
ATOM     16  O   UNL     1      -6.007  -9.381   7.522  0.00  0.00    -0.126 OA
ATOM     17  O   UNL     1      -4.014 -10.349   8.064  0.00  0.00    -0.126 OA
ENDBRANCH  11  15
ENDBRANCH   1  14
BRANCH   5  18
ATOM     18  C   UNL     1      -0.060  -4.003   0.042  0.00  0.00    +0.130 A 
ATOM     19  C   UNL     1       0.374  -3.886  -1.354  0.00  0.00    +0.050 A 
ATOM     20  C   UNL     1       0.987  -2.675  -1.462  0.00  0.00    +0.050 A 
ATOM     21  C   UNL     1       0.948  -2.063  -0.192  0.00  0.00    +0.137 A 
ATOM     22  O   UNL     1       0.319  -2.872   0.677  0.00  0.00    -0.455 OA
BRANCH  21  23
ATOM     23  C   UNL     1       1.501  -0.748   0.128  0.00  0.00    +0.031 A 
ATOM     24  C   UNL     1       2.821  -0.427  -0.236  0.00  0.00    +0.015 A 
ATOM     25  C   UNL     1       3.331   0.803   0.067  0.00  0.00    +0.033 A 
ATOM     26  C   UNL     1       2.554   1.740   0.733  0.00  0.00    +0.127 A 
ATOM     27  C   UNL     1       1.252   1.441   1.100  0.00  0.00    +0.048 A 
ATOM     28  C   UNL     1       0.717   0.206   0.804  0.00  0.00    +0.031 A 
ATOM     29 BR   UNL     1      -1.060  -0.206   1.303  0.00  0.00    -0.049 Br
BRANCH  26  30
ATOM     30  N   UNL     1       3.121   3.069   1.054  0.00  0.00    +0.056 N 
ATOM     31  O   UNL     1       2.388   3.962   1.686  0.00  0.00    -0.126 OA
ATOM     32  O   UNL     1       4.358   3.358   0.708  0.00  0.00    -0.126 OA
ENDBRANCH  26  30
ENDBRANCH  21  23
ENDBRANCH   5  18
TORSDOF 5
