REMARK  Name = ZINC67297506
REMARK  5 active torsions:
REMARK  status: ('A' for Active; 'I' for Inactive)
REMARK    1  A    between atoms: C_1  and  S_2
REMARK    2  A    between atoms: S_2  and  C_3
REMARK    3  A    between atoms: C_6  and  N_9
REMARK    4  A    between atoms: C_11  and  C_20
REMARK    5  A    between atoms: N_22  and  C_23
REMARK                            x       y       z     vdW  Elec       q    Type
REMARK                         _______ _______ _______ _____ _____    ______ ____
ROOT
ATOM      1  N   UNL     1      -6.573  -0.918  -0.482  0.00  0.00    -0.325 N 
ATOM      2  C   UNL     1      -6.295  -2.144  -0.865  0.00  0.00    +0.212 A 
ATOM      3  C   UNL     1      -7.149  -3.279  -0.463  0.00  0.00    +0.098 A 
ATOM      4  C   UNL     1      -7.167  -4.385  -1.302  0.00  0.00    +0.030 A 
ATOM      5  C   UNL     1      -6.339  -4.328  -2.509  0.00  0.00    +0.018 A 
ATOM      6  C   UNL     1      -6.499  -5.270  -3.533  0.00  0.00    +0.011 A 
ATOM      7  C   UNL     1      -5.710  -5.192  -4.658  0.00  0.00    +0.001 A 
ATOM      8  C   UNL     1      -4.761  -4.187  -4.782  0.00  0.00    +0.004 A 
ATOM      9  C   UNL     1      -4.591  -3.252  -3.780  0.00  0.00    +0.047 A 
ATOM     10  C   UNL     1      -5.373  -3.313  -2.637  0.00  0.00    +0.137 A 
ATOM     11  O   UNL     1      -5.215  -2.405  -1.646  0.00  0.00    -0.439 OA
ATOM     12  H   UNL     1      -7.404  -0.731  -0.018  0.00  0.00    +0.169 HD
ENDROOT
BRANCH   1  16
ATOM     13  C   UNL     1      -3.903   2.151  -1.258  0.00  0.00    +0.008 A 
ATOM     14  C   UNL     1      -5.260   2.336  -1.496  0.00  0.00    +0.017 A 
ATOM     15  C   UNL     1      -6.152   1.316  -1.239  0.00  0.00    +0.027 A 
ATOM     16  C   UNL     1      -5.691   0.096  -0.739  0.00  0.00    +0.042 A 
ATOM     17  C   UNL     1      -4.326  -0.086  -0.500  0.00  0.00    +0.027 A 
ATOM     18  C   UNL     1      -3.439   0.936  -0.765  0.00  0.00    +0.017 A 
BRANCH  13  20
ATOM     19  C   UNL     1      -3.814   4.805  -2.199  0.00  0.00    +0.090 C 
ATOM     20  S   UNL     1      -2.767   3.456  -1.587  0.00  0.00    -0.129 S 
ENDBRANCH  13  20
ENDBRANCH   1  16
BRANCH   3  21
ATOM     21  C   UNL     1      -7.947  -3.240   0.774  0.00  0.00    +0.253 C 
ATOM     22  O   UNL     1      -8.736  -4.134   1.018  0.00  0.00    -0.270 OA
ATOM     23  N   UNL     1      -7.805  -2.214   1.636  0.00  0.00    -0.281 N 
ATOM     24  H   UNL     1      -7.216  -1.475   1.417  0.00  0.00    +0.155 HD
BRANCH  23  25
ATOM     25  C   UNL     1      -8.505  -2.215   2.846  0.00  0.00    +0.034 A 
ATOM     26  C   UNL     1      -9.781  -2.759   2.911  0.00  0.00    +0.023 A 
ATOM     27  C   UNL     1     -10.470  -2.758   4.108  0.00  0.00    +0.002 A 
ATOM     28  C   UNL     1      -9.892  -2.216   5.241  0.00  0.00    +0.000 A 
ATOM     29  C   UNL     1      -8.622  -1.672   5.179  0.00  0.00    +0.002 A 
ATOM     30  C   UNL     1      -7.925  -1.675   3.987  0.00  0.00    +0.023 A 
ENDBRANCH  23  25
ENDBRANCH   3  21
TORSDOF 4
