REMARK  Name = ZINC13250596
REMARK  12 active torsions:
REMARK  status: ('A' for Active; 'I' for Inactive)
REMARK    1  A    between atoms: C_1  and  C_2
REMARK    2  A    between atoms: C_2  and  O_3
REMARK    3  A    between atoms: O_3  and  C_4
REMARK    4  A    between atoms: C_9  and  C_10
REMARK    5  A    between atoms: C_10  and  N_11
REMARK    6  A    between atoms: N_11  and  C_12
REMARK    7  A    between atoms: N_11  and  S_17
REMARK    8  A    between atoms: C_12  and  C_13
REMARK    9  A    between atoms: C_13  and  C_15
REMARK   10  A    between atoms: C_13  and  O_16
REMARK   11  A    between atoms: S_17  and  C_20
REMARK   12  A    between atoms: C_24  and  C_26
REMARK                            x       y       z     vdW  Elec       q    Type
REMARK                         _______ _______ _______ _____ _____    ______ ____
ROOT
ATOM      1  N   UNL     1      -2.654   0.659  -1.156  0.00  0.00    -0.170 NA
ENDROOT
BRANCH   1   2
ATOM      2  S   UNL     1      -2.276   2.215  -1.579  0.00  0.00    +0.061 S 
ATOM      3  O   UNL     1      -3.181   2.587  -2.609  0.00  0.00    -0.153 OA
ATOM      4  O   UNL     1      -2.157   2.948  -0.368  0.00  0.00    -0.153 OA
BRANCH   2   5
ATOM      5  C   UNL     1      -0.671   2.181  -2.307  0.00  0.00    +0.106 A 
ATOM      6  C   UNL     1       0.453   2.243  -1.502  0.00  0.00    +0.029 A 
ATOM      7  C   UNL     1       1.716   2.211  -2.064  0.00  0.00    +0.018 A 
ATOM      8  C   UNL     1       1.864   2.129  -3.434  0.00  0.00    +0.032 A 
ATOM      9  C   UNL     1       0.733   2.072  -4.253  0.00  0.00    +0.079 A 
ATOM     10  C   UNL     1      -0.539   2.099  -3.677  0.00  0.00    +0.044 A 
ATOM     11 BR   UNL     1       3.592   2.093  -4.202  0.00  0.00    -0.049 Br
BRANCH   9  12
ATOM     12  C   UNL     1       0.882   1.984  -5.719  0.00  0.00    +0.388 C 
ATOM     13  O   UNL     1       1.990   1.961  -6.217  0.00  0.00    -0.241 OA
ATOM     14  O   UNL     1      -0.211   1.929  -6.505  0.00  0.00    -0.241 OA
ENDBRANCH   9  12
ENDBRANCH   2   5
ENDBRANCH   1   2
BRANCH   1  15
ATOM     15  C   UNL     1      -2.388   0.185   0.204  0.00  0.00    +0.148 C 
BRANCH  15  21
ATOM     16  C   UNL     1      -4.297  -1.357   0.723  0.00  0.00    +0.125 A 
ATOM     17  C   UNL     1      -5.501  -1.632   1.354  0.00  0.00    +0.046 A 
ATOM     18  C   UNL     1      -6.091  -0.678   2.160  0.00  0.00    +0.004 A 
ATOM     19  C   UNL     1      -5.487   0.555   2.329  0.00  0.00    +0.001 A 
ATOM     20  C   UNL     1      -4.290   0.833   1.697  0.00  0.00    +0.008 A 
ATOM     21  C   UNL     1      -3.693  -0.120   0.894  0.00  0.00    +0.010 A 
BRANCH  16  22
ATOM     22  O   UNL     1      -3.712  -2.296  -0.066  0.00  0.00    -0.492 OA
BRANCH  22  24
ATOM     23  C   UNL     1      -3.469  -4.535  -0.942  0.00  0.00    +0.048 C 
ATOM     24  C   UNL     1      -4.330  -3.584  -0.108  0.00  0.00    +0.225 C 
ENDBRANCH  22  24
ENDBRANCH  16  22
ENDBRANCH  15  21
ENDBRANCH   1  15
BRANCH   1  25
ATOM     25  C   UNL     1      -3.255  -0.243  -2.142  0.00  0.00    +0.140 C 
BRANCH  25  26
ATOM     26  C   UNL     1      -4.779  -0.174  -2.034  0.00  0.00    +0.127 C 
ATOM     27  C   UNL     1      -5.404  -1.219  -2.961  0.00  0.00    +0.039 C 
BRANCH  26  28
ATOM     28  O   UNL     1      -5.225   1.129  -2.417  0.00  0.00    -0.391 OA
ATOM     29  H   UNL     1      -6.184   1.245  -2.373  0.00  0.00    +0.210 HD
ENDBRANCH  26  28
ENDBRANCH  25  26
ENDBRANCH   1  25
TORSDOF 10
