REMARK  Name = ZINC13389262
REMARK  4 active torsions:
REMARK  status: ('A' for Active; 'I' for Inactive)
REMARK    1  A    between atoms: C_3  and  O_25
REMARK    2  A    between atoms: C_6  and  C_7
REMARK    3  A    between atoms: O_25  and  C_26
REMARK    4  A    between atoms: C_26  and  C_27
REMARK                            x       y       z     vdW  Elec       q    Type
REMARK                         _______ _______ _______ _____ _____    ______ ____
ROOT
ATOM      1  C   UNL     1      -1.819   0.744  -1.587  0.00  0.00    +0.105 C 
ATOM      2  C   UNL     1      -0.526   1.492  -1.841  0.00  0.00    +0.029 C 
ATOM      3  C   UNL     1       0.365   1.015  -2.993  0.00  0.00    +0.033 C 
ATOM      4  C   UNL     1       1.755   1.411  -2.488  0.00  0.00    -0.030 C 
ATOM      5  C   UNL     1       1.759   1.453  -1.160  0.00  0.00    -0.023 C 
ATOM      6  C   UNL     1       0.414   1.060  -0.672  0.00  0.00    +0.050 C 
ATOM      7  C   UNL     1      -0.184   1.618   0.560  0.00  0.00    +0.000 A 
ATOM      8  C   UNL     1       0.595   2.022   1.626  0.00  0.00    +0.047 A 
ATOM      9  C   UNL     1       0.008   2.524   2.773  0.00  0.00    +0.022 A 
ATOM     10  C   UNL     1      -1.369   2.620   2.851  0.00  0.00    +0.023 A 
ATOM     11  C   UNL     1      -2.137   2.182   1.826  0.00  0.00    +0.062 A 
ATOM     12  C   UNL     1      -1.567   1.695   0.646  0.00  0.00    +0.051 A 
ATOM     13  N   UNL     1      -2.431   1.334  -0.386  0.00  0.00    -0.335 N 
ATOM     14 CL   UNL     1      -3.864   2.294   1.961  0.00  0.00    -0.082 Cl
ATOM     15 CL   UNL     1       2.324   1.899   1.526  0.00  0.00    -0.083 Cl
ATOM     16  H   UNL     1      -3.041   2.100  -0.631  0.00  0.00    +0.147 HD
ENDROOT
BRANCH   1  22
ATOM     17  C   UNL     1      -1.426  -1.582  -2.423  0.00  0.00    +0.009 A 
ATOM     18  C   UNL     1      -1.155  -2.920  -2.209  0.00  0.00    +0.046 A 
ATOM     19  C   UNL     1      -0.998  -3.396  -0.916  0.00  0.00    +0.122 A 
ATOM     20  C   UNL     1      -1.107  -2.527   0.160  0.00  0.00    +0.046 A 
ATOM     21  C   UNL     1      -1.372  -1.189  -0.060  0.00  0.00    +0.009 A 
ATOM     22  C   UNL     1      -1.529  -0.716  -1.350  0.00  0.00    -0.027 A 
BRANCH  19  23
ATOM     23  O   UNL     1      -0.738  -4.713  -0.702  0.00  0.00    -0.477 OA
BRANCH  23  24
ATOM     24  C   UNL     1      -0.638  -5.550  -1.856  0.00  0.00    +0.346 C 
BRANCH  24  25
ATOM     25  C   UNL     1      -0.355  -6.932  -1.437  0.00  0.00    +0.104 C 
ATOM     26  N   UNL     1      -0.136  -7.999  -1.113  0.00  0.00    -0.193 NA
ENDBRANCH  24  25
ENDBRANCH  23  24
ENDBRANCH  19  23
ENDBRANCH   1  22
TORSDOF 4
