REMARK  Name = ZINC20390737
REMARK  8 active torsions:
REMARK  status: ('A' for Active; 'I' for Inactive)
REMARK    1  A    between atoms: C_1  and  C_2
REMARK    2  A    between atoms: C_3  and  O_21
REMARK    3  A    between atoms: C_9  and  O_20
REMARK    4  A    between atoms: C_10  and  C_13
REMARK    5  A    between atoms: C_13  and  N_14
REMARK    6  A    between atoms: O_21  and  C_22
REMARK    7  A    between atoms: C_25  and  O_28
REMARK    8  A    between atoms: O_28  and  C_29
REMARK                            x       y       z     vdW  Elec       q    Type
REMARK                         _______ _______ _______ _____ _____    ______ ____
ROOT
ATOM      1  C   UNL     1      -1.187   3.320  -2.429  0.00  0.00    +0.090 C 
ATOM      2  C   UNL     1      -1.165   4.092  -1.135  0.00  0.00    +0.148 A 
ATOM      3  C   UNL     1      -1.174   3.408   0.026  0.00  0.00    +0.213 A 
ATOM      4  C   UNL     1      -1.159   4.118   1.260  0.00  0.00    +0.235 A 
ATOM      5  O   UNL     1      -1.171   3.532   2.330  0.00  0.00    -0.283 OA
ATOM      6  C   UNL     1      -1.123   5.589   1.191  0.00  0.00    +0.068 A 
ATOM      7  C   UNL     1      -1.102   6.371   2.347  0.00  0.00    +0.019 A 
ATOM      8  C   UNL     1      -1.074   7.732   2.242  0.00  0.00    +0.046 A 
ATOM      9  C   UNL     1      -1.067   8.343   0.990  0.00  0.00    +0.122 A 
ATOM     10  C   UNL     1      -1.088   7.581  -0.166  0.00  0.00    +0.020 A 
ATOM     11  C   UNL     1      -1.116   6.196  -0.077  0.00  0.00    +0.144 A 
ATOM     12  O   UNL     1      -1.137   5.431  -1.187  0.00  0.00    -0.456 OA
ENDROOT
BRANCH   9  13
ATOM     13  O   UNL     1      -1.039   9.698   0.902  0.00  0.00    -0.506 OA
ATOM     14  H   UNL     1      -1.033  10.185  -0.084  0.00  0.00    +0.292 HD
ENDBRANCH   9  13
BRANCH  10  15
ATOM     15  C   UNL     1      -1.079   8.253  -1.515  0.00  0.00    -0.036 C 
BRANCH  15  16
ATOM     16  N   UNL     1      -2.461   8.500  -1.948  0.00  0.00    +0.383 N 
ATOM     17  C   UNL     1      -3.172   7.237  -2.184  0.00  0.00    -0.078 C 
ATOM     18  C   UNL     1      -4.643   7.527  -2.491  0.00  0.00    -0.019 C 
ATOM     19  C   UNL     1      -4.734   8.425  -3.728  0.00  0.00    -0.004 C 
ATOM     20  C   UNL     1      -3.946   9.713  -3.473  0.00  0.00    -0.019 C 
ATOM     21  C   UNL     1      -2.495   9.359  -3.138  0.00  0.00    -0.078 C 
ATOM     22  H   UNL     1      -2.982   9.030  -1.136  0.00  0.00    -0.081 HD
ENDBRANCH  15  16
ENDBRANCH  10  15
BRANCH   3  23
ATOM     23  O   UNL     1      -1.203   2.047   0.019  0.00  0.00    -0.449 OA
BRANCH  23  24
ATOM     24  C   UNL     1      -0.017   1.383   0.010  0.00  0.00    +0.129 A 
ATOM     25  C   UNL     1       1.175   2.093   0.002  0.00  0.00    +0.050 A 
ATOM     26  C   UNL     1       2.381   1.419  -0.013  0.00  0.00    +0.049 A 
ATOM     27  C   UNL     1       2.399   0.032  -0.021  0.00  0.00    +0.120 A 
ATOM     28  C   UNL     1       1.208  -0.678  -0.013  0.00  0.00    +0.049 A 
ATOM     29  C   UNL     1       0.002  -0.004   0.002  0.00  0.00    +0.050 A 
BRANCH  27  30
ATOM     30  O   UNL     1       3.586  -0.632  -0.035  0.00  0.00    -0.495 OA
ATOM     31  C   UNL     1       4.774   0.162  -0.042  0.00  0.00    +0.277 C 
ENDBRANCH  27  30
ENDBRANCH  23  24
ENDBRANCH   3  23
TORSDOF 6
