REMARK  Name = ZINC16429467
REMARK  8 active torsions:
REMARK  status: ('A' for Active; 'I' for Inactive)
REMARK    1  A    between atoms: C_2  and  C_10
REMARK    2  A    between atoms: C_5  and  N_7
REMARK    3  A    between atoms: C_12  and  C_15
REMARK    4  A    between atoms: N_16  and  N_17
REMARK    5  A    between atoms: N_20  and  N_21
REMARK    6  A    between atoms: C_22  and  C_23
REMARK    7  A    between atoms: C_25  and  C_28
REMARK    8  A    between atoms: C_31  and  N_34
REMARK                            x       y       z     vdW  Elec       q    Type
REMARK                         _______ _______ _______ _____ _____    ______ ____
ROOT
ATOM      1  N   UNL     1      -2.517   7.549  -0.034  0.00  0.00    -0.189 N 
ATOM      2  C   UNL     1      -3.849   7.380   0.074  0.00  0.00    +0.339 C 
ATOM      3  O   UNL     1      -4.589   8.341   0.028  0.00  0.00    -0.249 OA
ATOM      4  N   UNL     1      -4.361   6.143   0.234  0.00  0.00    -0.189 N 
ATOM      5  H   UNL     1      -2.143   8.443  -0.075  0.00  0.00    +0.179 HD
ATOM      6  H   UNL     1      -3.768   5.384   0.345  0.00  0.00    +0.179 HD
ENDROOT
BRANCH   1   8
ATOM      7  C   UNL     1      -0.420   6.686  -0.088  0.00  0.00    +0.176 C 
ATOM      8  N   UNL     1      -1.738   6.521  -0.082  0.00  0.00    -0.183 NA
BRANCH   7  11
ATOM      9  C   UNL     1       1.125   3.499   0.001  0.00  0.00    +0.136 A 
ATOM     10  O   UNL     1       0.037   4.285  -0.071  0.00  0.00    -0.454 OA
ATOM     11  C   UNL     1       0.418   5.581  -0.036  0.00  0.00    +0.148 A 
ATOM     12  C   UNL     1       1.885   5.604   0.068  0.00  0.00    +0.051 A 
ATOM     13  C   UNL     1       2.286   4.307   0.094  0.00  0.00    +0.050 A 
BRANCH   9  15
ATOM     14  C   UNL     1      -0.109   1.383   0.001  0.00  0.00    +0.014 A 
ATOM     15  C   UNL     1       1.113   2.082  -0.009  0.00  0.00    +0.017 A 
ATOM     16  C   UNL     1       2.324   1.363  -0.031  0.00  0.00    +0.014 A 
ATOM     17  C   UNL     1       2.300  -0.008  -0.041  0.00  0.00    +0.033 A 
ATOM     18  C   UNL     1       1.090  -0.686  -0.031  0.00  0.00    +0.126 A 
ATOM     19  C   UNL     1      -0.109   0.013  -0.009  0.00  0.00    +0.033 A 
BRANCH  18  20
ATOM     20  N   UNL     1       1.077  -2.166  -0.042  0.00  0.00    +0.056 N 
ATOM     21  O   UNL     1       2.209  -2.835   0.039  0.00  0.00    -0.126 OA
ATOM     22  O   UNL     1      -0.066  -2.814  -0.134  0.00  0.00    -0.126 OA
ENDBRANCH  18  20
ENDBRANCH   9  15
ENDBRANCH   7  11
ENDBRANCH   1   8
BRANCH   4  23
ATOM     23  N   UNL     1      -5.639   5.970   0.240  0.00  0.00    -0.183 NA
ATOM     24  C   UNL     1      -6.146   4.770   0.497  0.00  0.00    +0.176 C 
BRANCH  24  25
ATOM     25  C   UNL     1      -7.514   4.559   0.401  0.00  0.00    +0.148 A 
ATOM     26  O   UNL     1      -8.433   5.447  -0.037  0.00  0.00    -0.454 OA
ATOM     27  C   UNL     1      -9.653   4.887   0.013  0.00  0.00    +0.136 A 
ATOM     28  C   UNL     1      -9.546   3.563   0.505  0.00  0.00    +0.050 A 
ATOM     29  C   UNL     1      -8.233   3.323   0.751  0.00  0.00    +0.051 A 
BRANCH  27  30
ATOM     30  C   UNL     1     -10.861   5.523  -0.369  0.00  0.00    +0.017 A 
ATOM     31  C   UNL     1     -12.097   4.877  -0.168  0.00  0.00    +0.014 A 
ATOM     32  C   UNL     1     -13.259   5.501  -0.541  0.00  0.00    +0.033 A 
ATOM     33  C   UNL     1     -13.221   6.764  -1.115  0.00  0.00    +0.126 A 
ATOM     34  C   UNL     1     -12.010   7.410  -1.317  0.00  0.00    +0.033 A 
ATOM     35  C   UNL     1     -10.836   6.807  -0.947  0.00  0.00    +0.014 A 
BRANCH  33  36
ATOM     36  N   UNL     1     -14.482   7.427  -1.514  0.00  0.00    +0.056 N 
ATOM     37  O   UNL     1     -15.626   6.781  -1.417  0.00  0.00    -0.126 OA
ATOM     38  O   UNL     1     -14.462   8.664  -1.965  0.00  0.00    -0.126 OA
ENDBRANCH  33  36
ENDBRANCH  27  30
ENDBRANCH  24  25
ENDBRANCH   4  23
TORSDOF 8
