REMARK  Name = ZINC59272743
REMARK  9 active torsions:
REMARK  status: ('A' for Active; 'I' for Inactive)
REMARK    1  A    between atoms: C_1  and  C_2
REMARK    2  A    between atoms: C_5  and  C_8
REMARK    3  A    between atoms: C_8  and  N_9
REMARK    4  A    between atoms: C_16  and  C_19
REMARK    5  A    between atoms: C_16  and  O_30
REMARK    6  A    between atoms: C_19  and  C_20
REMARK    7  A    between atoms: C_20  and  C_22
REMARK    8  A    between atoms: C_25  and  C_29
REMARK    9  A    between atoms: C_27  and  C_28
REMARK                            x       y       z     vdW  Elec       q    Type
REMARK                         _______ _______ _______ _____ _____    ______ ____
ROOT
ATOM      1  N   UNL     1       0.340  -5.193   0.408  0.00  0.00    -0.264 N 
ATOM      2  C   UNL     1       0.904  -5.381  -0.855  0.00  0.00    +0.043 A 
ATOM      3  C   UNL     1       0.334  -5.326  -2.125  0.00  0.00    +0.025 A 
ATOM      4  C   UNL     1       1.109  -5.551  -3.243  0.00  0.00    +0.022 A 
ATOM      5  C   UNL     1       2.458  -5.832  -3.114  0.00  0.00    +0.041 A 
ATOM      6  C   UNL     1       3.032  -5.888  -1.855  0.00  0.00    +0.028 A 
ATOM      7  C   UNL     1       2.259  -5.664  -0.738  0.00  0.00    +0.016 A 
ATOM      8  C   UNL     1       2.570  -5.652   0.741  0.00  0.00    +0.176 C 
ATOM      9  C   UNL     1       1.243  -5.328   1.394  0.00  0.00    +0.257 C 
ATOM     10  O   UNL     1       1.034  -5.214   2.583  0.00  0.00    -0.272 OA
ATOM     11 CL   UNL     1       3.428  -6.115  -4.526  0.00  0.00    -0.084 Cl
ENDROOT
BRANCH   8  12
ATOM     12  O   UNL     1       3.531  -4.638   1.043  0.00  0.00    -0.374 OA
ATOM     13  H   UNL     1       3.768  -4.586   1.979  0.00  0.00    +0.211 HD
ENDBRANCH   8  12
BRANCH   1  14
ATOM     14  C   UNL     1      -1.073  -4.880   0.632  0.00  0.00    +0.148 C 
BRANCH  14  19
ATOM     15  C   UNL     1      -1.804   0.852   0.620  0.00  0.00    +0.044 C 
ATOM     16  C   UNL     1      -1.613  -0.642   0.623  0.00  0.00    -0.050 A 
ATOM     17  C   UNL     1      -1.718  -1.355  -0.557  0.00  0.00    +0.003 A 
ATOM     18  C   UNL     1      -1.544  -2.726  -0.554  0.00  0.00    +0.005 A 
ATOM     19  C   UNL     1      -1.263  -3.385   0.629  0.00  0.00    -0.030 A 
ATOM     20  C   UNL     1      -1.157  -2.672   1.808  0.00  0.00    +0.005 A 
ATOM     21  C   UNL     1      -1.328  -1.300   1.805  0.00  0.00    +0.003 A 
ENDBRANCH  14  19
ENDBRANCH   1  14
BRANCH   8  22
ATOM     22  C   UNL     1       3.075  -7.023   1.194  0.00  0.00    +0.129 C 
BRANCH  22  23
ATOM     23  C   UNL     1       3.261  -7.021   2.690  0.00  0.00    +0.167 C 
ATOM     24  O   UNL     1       3.013  -6.022   3.330  0.00  0.00    -0.292 OA
BRANCH  23  25
ATOM     25  C   UNL     1       3.742  -8.232   3.373  0.00  0.00    +0.020 A 
ATOM     26  C   UNL     1       3.909  -9.423   2.658  0.00  0.00    +0.012 A 
ATOM     27  C   UNL     1       4.361 -10.554   3.305  0.00  0.00    +0.004 A 
ATOM     28  C   UNL     1       4.649 -10.512   4.659  0.00  0.00    -0.050 A 
ATOM     29  C   UNL     1       4.486  -9.338   5.373  0.00  0.00    +0.007 A 
ATOM     30  C   UNL     1       4.041  -8.197   4.739  0.00  0.00    -0.040 A 
ATOM     31  C   UNL     1       3.870  -6.918   5.517  0.00  0.00    +0.044 C 
ATOM     32  C   UNL     1       5.143 -11.752   5.358  0.00  0.00    +0.044 C 
ENDBRANCH  23  25
ENDBRANCH  22  23
ENDBRANCH   8  22
TORSDOF 6
