REMARK  Name = ZINC27136449
REMARK  12 active torsions:
REMARK  status: ('A' for Active; 'I' for Inactive)
REMARK    1  A    between atoms: C_1  and  C_2
REMARK    2  A    between atoms: C_3  and  C_24
REMARK    3  A    between atoms: C_4  and  C_23
REMARK    4  A    between atoms: C_7  and  C_8
REMARK    5  A    between atoms: N_10  and  C_11
REMARK    6  A    between atoms: C_14  and  C_20
REMARK    7  A    between atoms: C_16  and  C_17
REMARK    8  A    between atoms: C_17  and  C_18
REMARK    9  A    between atoms: C_17  and  C_19
REMARK   10  A    between atoms: C_20  and  C_21
REMARK   11  A    between atoms: C_20  and  C_22
REMARK   12  A    between atoms: C_24  and  C_26
REMARK                            x       y       z     vdW  Elec       q    Type
REMARK                         _______ _______ _______ _____ _____    ______ ____
ROOT
ATOM      1  C   UNL     1      -2.600  -0.973   3.914  0.00  0.00    +0.265 C 
ATOM      2  O   UNL     1      -1.933  -1.656   4.668  0.00  0.00    -0.268 OA
ATOM      3  N   UNL     1      -2.048   0.097   3.307  0.00  0.00    -0.280 N 
ATOM      4  H   UNL     1      -2.667   0.751   2.676  0.00  0.00    +0.155 HD
ENDROOT
BRANCH   1  11
ATOM      5  C   UNL     1      -4.125  -3.385   5.169  0.00  0.00    +0.047 C 
ATOM      6  C   UNL     1      -4.680  -2.365   4.209  0.00  0.00    -0.010 A 
ATOM      7  C   UNL     1      -6.002  -2.314   3.704  0.00  0.00    +0.041 A 
ATOM      8  C   UNL     1      -6.070  -1.221   2.855  0.00  0.00    +0.024 A 
ATOM      9  N   UNL     1      -4.868  -0.625   2.837  0.00  0.00    -0.354 N 
ATOM     10  H   UNL     1      -4.707   0.270   2.219  0.00  0.00    +0.166 HD
ATOM     11  C   UNL     1      -4.006  -1.312   3.665  0.00  0.00    +0.106 A 
ATOM     12  C   UNL     1      -7.286  -0.777   2.084  0.00  0.00    +0.064 C 
BRANCH   7  13
ATOM     13  C   UNL     1      -7.091  -3.246   4.016  0.00  0.00    +0.162 C 
ATOM     14  O   UNL     1      -7.885  -2.979   4.893  0.00  0.00    -0.292 OA
ATOM     15  C   UNL     1      -7.223  -4.535   3.247  0.00  0.00    +0.091 C 
ENDBRANCH   7  13
ENDBRANCH   1  11
BRANCH   3  16
ATOM     16  C   UNL     1      -0.688   0.373   3.478  0.00  0.00    +0.037 A 
ATOM     17  C   UNL     1      -0.027  -0.064   4.620  0.00  0.00    +0.024 A 
ATOM     18  C   UNL     1       1.314   0.216   4.789  0.00  0.00    +0.006 A 
ATOM     19  C   UNL     1       2.002   0.925   3.821  0.00  0.00    -0.044 A 
ATOM     20  C   UNL     1       1.349   1.356   2.681  0.00  0.00    +0.009 A 
ATOM     21  C   UNL     1       0.007   1.079   2.505  0.00  0.00    -0.023 A 
BRANCH  21  22
ATOM     22  C   UNL     1      -0.704   1.550   1.262  0.00  0.00    +0.015 C 
ATOM     23  C   UNL     1       0.038   1.038   0.026  0.00  0.00    +0.012 C 
ATOM     24  C   UNL     1      -0.736   3.079   1.241  0.00  0.00    +0.012 C 
ENDBRANCH  21  22
BRANCH  19  25
ATOM     25  C   UNL     1       3.466   1.229   4.009  0.00  0.00    +0.013 C 
ATOM     26  C   UNL     1       3.655   2.059   5.281  0.00  0.00    +0.012 C 
ATOM     27  C   UNL     1       4.246  -0.081   4.134  0.00  0.00    +0.012 C 
ENDBRANCH  19  25
ENDBRANCH   3  16
TORSDOF 5
