REMARK  Name = ZINC20715627
REMARK  8 active torsions:
REMARK  status: ('A' for Active; 'I' for Inactive)
REMARK    1  A    between atoms: C_1  and  O_2
REMARK    2  A    between atoms: O_2  and  C_3
REMARK    3  A    between atoms: C_6  and  C_11
REMARK    4  A    between atoms: C_8  and  O_9
REMARK    5  A    between atoms: O_9  and  C_10
REMARK    6  A    between atoms: C_22  and  O_27
REMARK    7  A    between atoms: O_27  and  C_28
REMARK    8  A    between atoms: C_28  and  C_29
REMARK                            x       y       z     vdW  Elec       q    Type
REMARK                         _______ _______ _______ _____ _____    ______ ____
ROOT
ATOM      1  C   UNL     1       4.856   1.164  -0.037  0.00  0.00    +0.105 C 
ATOM      2  C   UNL     1       5.558   1.266   1.305  0.00  0.00    +0.029 C 
ATOM      3  C   UNL     1       4.737   0.915   2.553  0.00  0.00    +0.033 C 
ATOM      4  C   UNL     1       5.402   1.793   3.615  0.00  0.00    -0.030 C 
ATOM      5  C   UNL     1       5.967   2.849   3.043  0.00  0.00    -0.023 C 
ATOM      6  C   UNL     1       5.706   2.792   1.581  0.00  0.00    +0.049 C 
ATOM      7  C   UNL     1       6.664   3.341   0.596  0.00  0.00    -0.016 A 
ATOM      8  C   UNL     1       7.529   4.370   0.900  0.00  0.00    +0.051 A 
ATOM      9  C   UNL     1       8.384   4.874  -0.068  0.00  0.00    +0.121 A 
ATOM     10  C   UNL     1       8.368   4.340  -1.348  0.00  0.00    +0.047 A 
ATOM     11  C   UNL     1       7.510   3.305  -1.656  0.00  0.00    +0.027 A 
ATOM     12  C   UNL     1       6.654   2.790  -0.690  0.00  0.00    +0.032 A 
ATOM     13  N   UNL     1       5.803   1.727  -1.025  0.00  0.00    -0.336 N 
ATOM     14  H   UNL     1       5.847   1.311  -2.042  0.00  0.00    +0.147 HD
ENDROOT
BRANCH   1  18
ATOM     15  C   UNL     1       1.235   3.439   0.010  0.00  0.00    +0.162 A 
ATOM     16  C   UNL     1       1.226   2.109   0.399  0.00  0.00    +0.050 A 
ATOM     17  C   UNL     1       2.398   1.376   0.383  0.00  0.00    +0.009 A 
ATOM     18  C   UNL     1       3.581   1.967  -0.021  0.00  0.00    -0.023 A 
ATOM     19  C   UNL     1       3.596   3.292  -0.415  0.00  0.00    +0.055 A 
ATOM     20  C   UNL     1       2.426   4.034  -0.396  0.00  0.00    +0.162 A 
BRANCH  15  22
ATOM     21  C   UNL     1      -1.101   3.485   0.454  0.00  0.00    +0.277 C 
ATOM     22  O   UNL     1       0.083   4.161   0.025  0.00  0.00    -0.491 OA
ENDBRANCH  15  22
BRANCH  20  23
ATOM     23  O   UNL     1       2.440   5.339  -0.779  0.00  0.00    -0.491 OA
ATOM     24  C   UNL     1       3.697   5.883  -1.183  0.00  0.00    +0.277 C 
ENDBRANCH  20  23
ENDBRANCH   1  18
BRANCH   9  25
ATOM     25  O   UNL     1       9.235   5.890   0.236  0.00  0.00    -0.487 OA
BRANCH  25  26
ATOM     26  C   UNL     1      10.086   6.359  -0.811  0.00  0.00    +0.264 C 
BRANCH  26  27
ATOM     27  C   UNL     1      10.952   7.478  -0.292  0.00  0.00    -0.010 A 
ATOM     28  C   UNL     1      10.517   8.787  -0.380  0.00  0.00    +0.007 A 
ATOM     29  C   UNL     1      11.309   9.812   0.101  0.00  0.00    +0.000 A 
ATOM     30  C   UNL     1      12.541   9.530   0.661  0.00  0.00    +0.000 A 
ATOM     31  C   UNL     1      12.979   8.221   0.745  0.00  0.00    +0.000 A 
ATOM     32  C   UNL     1      12.184   7.195   0.268  0.00  0.00    +0.007 A 
ENDBRANCH  26  27
ENDBRANCH  25  26
ENDBRANCH   9  25
TORSDOF 6
