REMARK  Name = ZINC21658970
REMARK  8 active torsions:
REMARK  status: ('A' for Active; 'I' for Inactive)
REMARK    1  A    between atoms: C_1  and  C_2
REMARK    2  A    between atoms: C_2  and  O_3
REMARK    3  A    between atoms: O_3  and  C_4
REMARK    4  A    between atoms: C_6  and  C_11
REMARK    5  A    between atoms: C_9  and  O_10
REMARK    6  A    between atoms: C_16  and  C_25
REMARK    7  A    between atoms: N_33  and  C_38
REMARK    8  A    between atoms: N_36  and  C_37
REMARK                            x       y       z     vdW  Elec       q    Type
REMARK                         _______ _______ _______ _____ _____    ______ ____
ROOT
ATOM      1  C   UNL     1      -1.286   8.570  -1.226  0.00  0.00    +0.150 C 
ATOM      2  C   UNL     1      -0.405   7.731  -0.327  0.00  0.00    +0.073 A 
ATOM      3  C   UNL     1       0.486   8.116   0.574  0.00  0.00    +0.082 A 
ATOM      4  C   UNL     1       1.030   6.879   1.189  0.00  0.00    +0.089 A 
ATOM      5  C   UNL     1       0.393   5.827   0.580  0.00  0.00    +0.069 A 
ATOM      6  N   UNL     1      -0.455   6.343  -0.350  0.00  0.00    -0.306 N 
ATOM      7  C   UNL     1      -1.303   5.663  -1.236  0.00  0.00    +0.068 A 
ATOM      8  C   UNL     1      -1.550   4.309  -1.106  0.00  0.00    +0.028 A 
ATOM      9  C   UNL     1      -2.406   3.680  -1.992  0.00  0.00    +0.002 A 
ATOM     10  C   UNL     1      -3.013   4.402  -3.004  0.00  0.00    +0.002 A 
ATOM     11  C   UNL     1      -2.766   5.755  -3.143  0.00  0.00    +0.025 A 
ATOM     12  C   UNL     1      -1.904   6.394  -2.265  0.00  0.00    +0.052 A 
ATOM     13  N   UNL     1      -1.625   7.758  -2.410  0.00  0.00    -0.330 N 
ATOM     14  C   UNL     1       2.048   6.989   2.239  0.00  0.00    +0.266 A 
ATOM     15  O   UNL     1       2.529   6.013   2.783  0.00  0.00    -0.267 OA
ATOM     16  N   UNL     1       2.417   8.255   2.562  0.00  0.00    -0.263 N 
ATOM     17  C   UNL     1       1.907   9.348   1.986  0.00  0.00    +0.332 A 
ATOM     18  O   UNL     1       2.325  10.424   2.367  0.00  0.00    -0.246 OA
ATOM     19  N   UNL     1       0.967   9.358   1.016  0.00  0.00    -0.294 N 
ATOM     20  C   UNL     1       0.469  10.614   0.449  0.00  0.00    +0.154 C 
ATOM     21  C   UNL     1       3.433   8.433   3.603  0.00  0.00    +0.157 C 
ATOM     22  H   UNL     1      -1.658   8.224  -3.406  0.00  0.00    +0.147 HD
ENDROOT
BRANCH   1  25
ATOM     23  C   UNL     1      -4.638   8.372   0.505  0.00  0.00    +0.162 A 
ATOM     24  C   UNL     1      -3.486   8.010  -0.174  0.00  0.00    +0.055 A 
ATOM     25  C   UNL     1      -2.538   8.966  -0.487  0.00  0.00    -0.018 A 
ATOM     26  C   UNL     1      -2.734  10.284  -0.119  0.00  0.00    +0.009 A 
ATOM     27  C   UNL     1      -3.884  10.654   0.554  0.00  0.00    +0.049 A 
ATOM     28  C   UNL     1      -4.838   9.700   0.871  0.00  0.00    +0.158 A 
BRANCH  28  29
ATOM     29  O   UNL     1      -5.967  10.061   1.538  0.00  0.00    -0.503 OA
ATOM     30  H   UNL     1      -6.123  11.111   1.827  0.00  0.00    +0.292 HD
ENDBRANCH  28  29
BRANCH  23  31
ATOM     31  O   UNL     1      -5.572   7.433   0.813  0.00  0.00    -0.489 OA
BRANCH  31  33
ATOM     32  C   UNL     1      -6.454   5.183   0.837  0.00  0.00    +0.048 C 
ATOM     33  C   UNL     1      -5.300   6.090   0.406  0.00  0.00    +0.226 C 
ENDBRANCH  31  33
ENDBRANCH  23  31
ENDBRANCH   1  25
BRANCH   5  34
ATOM     34  C   UNL     1       0.596   4.395   0.875  0.00  0.00    -0.000 A 
ATOM     35  C   UNL     1       0.384   3.908   2.167  0.00  0.00    +0.010 A 
ATOM     36  C   UNL     1       0.576   2.569   2.436  0.00  0.00    +0.001 A 
ATOM     37  C   UNL     1       0.976   1.708   1.429  0.00  0.00    +0.000 A 
ATOM     38  C   UNL     1       1.192   2.184   0.148  0.00  0.00    +0.001 A 
ATOM     39  C   UNL     1       1.000   3.520  -0.137  0.00  0.00    +0.010 A 
ENDBRANCH   5  34
TORSDOF 5
