REMARK  Name = ZINC16577958
REMARK  6 active torsions:
REMARK  status: ('A' for Active; 'I' for Inactive)
REMARK    1  A    between atoms: C_1  and  C_2
REMARK    2  A    between atoms: C_2  and  C_38
REMARK    3  A    between atoms: C_6  and  C_19
REMARK    4  A    between atoms: C_19  and  C_20
REMARK    5  A    between atoms: C_23  and  C_25
REMARK    6  A    between atoms: C_27  and  N_32
REMARK                            x       y       z     vdW  Elec       q    Type
REMARK                         _______ _______ _______ _____ _____    ______ ____
ROOT
ATOM      1  C   UNL     1      -2.729  -1.721   3.029  0.00  0.00    +0.011 C 
ATOM      2  C   UNL     1      -2.030  -2.237   1.771  0.00  0.00    -0.024 C 
ATOM      3  C   UNL     1      -1.534  -1.062   0.926  0.00  0.00    +0.043 C 
ATOM      4  C   UNL     1      -2.687  -0.237   0.418  0.00  0.00    -0.029 C 
ATOM      5  C   UNL     1      -3.897  -0.823   0.193  0.00  0.00    +0.019 C 
ATOM      6  C   UNL     1      -5.060  -0.001  -0.312  0.00  0.00    +0.112 C 
ATOM      7  N   UNL     1      -4.917   1.374   0.179  0.00  0.00    -0.336 N 
ATOM      8  C   UNL     1      -3.663   1.965   0.099  0.00  0.00    +0.036 A 
ATOM      9  C   UNL     1      -2.520   1.152   0.197  0.00  0.00    +0.007 A 
ATOM     10  C   UNL     1      -1.211   1.788   0.045  0.00  0.00    -0.009 A 
ATOM     11  C   UNL     1      -0.013   1.073   0.008  0.00  0.00    +0.009 A 
ATOM     12  C   UNL     1       1.185   1.732   0.000  0.00  0.00    +0.001 A 
ATOM     13  C   UNL     1       1.237   3.121  -0.037  0.00  0.00    +0.001 A 
ATOM     14  C   UNL     1       0.090   3.853  -0.072  0.00  0.00    +0.008 A 
ATOM     15  C   UNL     1      -1.155   3.203  -0.054  0.00  0.00    -0.017 A 
ATOM     16  C   UNL     1      -2.344   3.952  -0.152  0.00  0.00    +0.010 A 
ATOM     17  C   UNL     1      -3.554   3.343  -0.083  0.00  0.00    +0.024 A 
ATOM     18  C   UNL     1      -4.104  -2.190   0.426  0.00  0.00    +0.162 C 
ATOM     19  O   UNL     1      -5.201  -2.672   0.216  0.00  0.00    -0.292 OA
ATOM     20  C   UNL     1      -3.000  -3.075   0.935  0.00  0.00    +0.086 C 
ATOM     21  C   UNL     1      -0.834  -3.106   2.177  0.00  0.00    +0.011 C 
ATOM     22  H   UNL     1      -5.672   1.856   0.548  0.00  0.00    +0.147 HD
ENDROOT
BRANCH   6  23
ATOM     23  C   UNL     1      -5.070  -0.003  -1.841  0.00  0.00    +0.101 C 
BRANCH  23  24
ATOM     24  C   UNL     1      -6.293   0.724  -2.336  0.00  0.00    +0.108 A 
ATOM     25  C   UNL     1      -6.370   2.043  -2.599  0.00  0.00    +0.045 A 
ATOM     26  C   UNL     1      -7.685   2.302  -3.036  0.00  0.00    +0.050 A 
ATOM     27  C   UNL     1      -8.345   1.113  -3.015  0.00  0.00    +0.137 A 
ATOM     28  O   UNL     1      -7.487   0.164  -2.594  0.00  0.00    -0.460 OA
BRANCH  27  29
ATOM     29  C   UNL     1      -9.757   0.899  -3.395  0.00  0.00    +0.038 A 
ATOM     30  C   UNL     1     -10.096  -0.118  -4.289  0.00  0.00    +0.045 A 
ATOM     31  C   UNL     1     -11.416  -0.314  -4.639  0.00  0.00    +0.127 A 
ATOM     32  C   UNL     1     -12.404   0.495  -4.106  0.00  0.00    +0.034 A 
ATOM     33  C   UNL     1     -12.076   1.505  -3.219  0.00  0.00    +0.023 A 
ATOM     34  C   UNL     1     -10.759   1.709  -2.856  0.00  0.00    +0.052 A 
ATOM     35 CL   UNL     1     -10.350   2.972  -1.738  0.00  0.00    -0.083 Cl
BRANCH  31  36
ATOM     36  N   UNL     1     -11.776  -1.391  -5.587  0.00  0.00    +0.056 N 
ATOM     37  O   UNL     1     -10.908  -2.104  -6.058  0.00  0.00    -0.126 OA
ATOM     38  O   UNL     1     -12.941  -1.565  -5.897  0.00  0.00    -0.126 OA
ENDBRANCH  31  36
ENDBRANCH  27  29
ENDBRANCH  23  24
ENDBRANCH   6  23
TORSDOF 4
