REMARK  Name = ZINC33401372
REMARK  8 active torsions:
REMARK  status: ('A' for Active; 'I' for Inactive)
REMARK    1  A    between atoms: C_1  and  C_2
REMARK    2  A    between atoms: C_5  and  C_8
REMARK    3  A    between atoms: C_8  and  S_9
REMARK    4  A    between atoms: S_9  and  C_10
REMARK    5  A    between atoms: C_16  and  C_18
REMARK    6  A    between atoms: C_20  and  C_25
REMARK    7  A    between atoms: C_22  and  C_23
REMARK    8  A    between atoms: C_22  and  C_24
REMARK                            x       y       z     vdW  Elec       q    Type
REMARK                         _______ _______ _______ _____ _____    ______ ____
ROOT
ATOM      1  C   UNL     1       0.045   1.043  -2.809  0.00  0.00    +0.160 A 
ATOM      2  N   UNL     1       1.137   0.292  -2.807  0.00  0.00    -0.133 NA
ATOM      3  N   UNL     1       1.687  -0.087  -3.876  0.00  0.00    -0.125 NA
ATOM      4  C   UNL     1       1.210   0.240  -5.066  0.00  0.00    +0.189 A 
ATOM      5  S   UNL     1      -0.213   1.209  -4.573  0.00  0.00    -0.024 S 
ATOM      6  N   UNL     1       1.676  -0.082  -6.338  0.00  0.00    -0.263 N 
ATOM      7  C   UNL     1       2.781  -0.841  -6.478  0.00  0.00    +0.223 C 
ATOM      8  O   UNL     1       3.369  -1.243  -5.496  0.00  0.00    -0.275 OA
ATOM      9  H   UNL     1       1.143   0.283  -7.228  0.00  0.00    +0.157 HD
ENDROOT
BRANCH   7  10
ATOM     10  C   UNL     1       3.287  -1.189  -7.854  0.00  0.00    +0.089 C 
ATOM     11  C   UNL     1       4.612  -0.567  -8.299  0.00  0.00    +0.033 C 
ATOM     12  C   UNL     1       4.545  -2.054  -7.947  0.00  0.00    -0.016 C 
ATOM     13  C   UNL     1       5.195  -2.499  -6.635  0.00  0.00    +0.012 C 
ATOM     14  C   UNL     1       4.630  -3.057  -9.099  0.00  0.00    +0.012 C 
BRANCH  11  15
ATOM     15  C   UNL     1       5.311   0.348  -7.327  0.00  0.00    +0.010 C 
ATOM     16  C   UNL     1       6.358   1.040  -7.714  0.00  0.00    +0.103 C 
ATOM     17 CL   UNL     1       6.936   0.902  -9.345  0.00  0.00    -0.071 Cl
ATOM     18 CL   UNL     1       7.165   2.094  -6.595  0.00  0.00    -0.071 Cl
ENDBRANCH  11  15
ENDBRANCH   7  10
BRANCH   1  19
ATOM     19  S   UNL     1      -0.890   1.687  -1.462  0.00  0.00    -0.092 S 
BRANCH  19  20
ATOM     20  C   UNL     1      -0.013   1.086   0.008  0.00  0.00    +0.111 C 
BRANCH  20  25
ATOM     21  C   UNL     1      -2.718   2.950   4.762  0.00  0.00    +0.044 C 
ATOM     22  C   UNL     1      -2.012   2.463   3.523  0.00  0.00    -0.050 A 
ATOM     23  C   UNL     1      -2.366   1.254   2.955  0.00  0.00    +0.003 A 
ATOM     24  C   UNL     1      -1.719   0.808   1.818  0.00  0.00    +0.005 A 
ATOM     25  C   UNL     1      -0.718   1.572   1.248  0.00  0.00    -0.037 A 
ATOM     26  C   UNL     1      -0.360   2.779   1.819  0.00  0.00    +0.005 A 
ATOM     27  C   UNL     1      -1.010   3.227   2.953  0.00  0.00    +0.003 A 
ENDBRANCH  20  25
ENDBRANCH  19  20
ENDBRANCH   1  19
TORSDOF 5
