REMARK  Name = ZINC40344675
REMARK  12 active torsions:
REMARK  status: ('A' for Active; 'I' for Inactive)
REMARK    1  A    between atoms: C_1  and  C_2
REMARK    2  A    between atoms: C_2  and  O_3
REMARK    3  A    between atoms: O_3  and  C_4
REMARK    4  A    between atoms: C_6  and  C_11
REMARK    5  A    between atoms: C_9  and  O_10
REMARK    6  A    between atoms: C_14  and  C_30
REMARK    7  A    between atoms: N_21  and  C_22
REMARK    8  A    between atoms: C_22  and  C_23
REMARK    9  A    between atoms: C_23  and  C_24
REMARK   10  A    between atoms: C_24  and  N_25
REMARK   11  A    between atoms: C_33  and  O_36
REMARK   12  A    between atoms: O_36  and  C_37
REMARK                            x       y       z     vdW  Elec       q    Type
REMARK                         _______ _______ _______ _____ _____    ______ ____
ROOT
ATOM      1  C   UNL     1      -0.229  -4.969   0.477  0.00  0.00    +0.141 C 
ATOM      2  C   UNL     1       0.864  -5.512   1.356  0.00  0.00    +0.035 A 
ATOM      3  C   UNL     1       1.862  -5.251   2.241  0.00  0.00    +0.072 A 
ATOM      4  N   UNL     1       2.410  -6.455   2.578  0.00  0.00    -0.276 N 
ATOM      5  N   UNL     1       1.805  -7.403   1.955  0.00  0.00    -0.168 NA
ATOM      6  H   UNL     1       3.147  -6.578   3.197  0.00  0.00    +0.189 HD
ATOM      7  C   UNL     1       0.850  -6.915   1.189  0.00  0.00    +0.153 A 
ATOM      8  C   UNL     1      -0.222  -7.245   0.232  0.00  0.00    +0.268 C 
ATOM      9  O   UNL     1      -0.503  -8.370  -0.133  0.00  0.00    -0.268 OA
ATOM     10  N   UNL     1      -0.846  -6.127  -0.179  0.00  0.00    -0.285 N 
ENDROOT
BRANCH   1  13
ATOM     11  C   UNL     1       0.777  -1.811  -1.336  0.00  0.00    +0.162 A 
ATOM     12  C   UNL     1       0.243  -2.669  -0.388  0.00  0.00    +0.055 A 
ATOM     13  C   UNL     1       0.352  -4.037  -0.555  0.00  0.00    -0.019 A 
ATOM     14  C   UNL     1       0.992  -4.552  -1.667  0.00  0.00    +0.009 A 
ATOM     15  C   UNL     1       1.526  -3.702  -2.616  0.00  0.00    +0.049 A 
ATOM     16  C   UNL     1       1.416  -2.330  -2.458  0.00  0.00    +0.158 A 
BRANCH  16  17
ATOM     17  O   UNL     1       1.936  -1.492  -3.394  0.00  0.00    -0.503 OA
ATOM     18  H   UNL     1       2.856  -1.241  -3.231  0.00  0.00    +0.292 HD
ENDBRANCH  16  17
BRANCH  11  19
ATOM     19  O   UNL     1       0.671  -0.465  -1.174  0.00  0.00    -0.489 OA
BRANCH  19  21
ATOM     20  C   UNL     1      -0.019   1.526   0.010  0.00  0.00    +0.048 C 
ATOM     21  C   UNL     1       0.002  -0.004   0.002  0.00  0.00    +0.226 C 
ENDBRANCH  19  21
ENDBRANCH  11  19
ENDBRANCH   1  13
BRANCH   3  22
ATOM     22  C   UNL     1       2.274  -3.921   2.741  0.00  0.00    +0.000 A 
ATOM     23  C   UNL     1       2.413  -2.853   1.855  0.00  0.00    +0.013 A 
ATOM     24  C   UNL     1       2.796  -1.615   2.325  0.00  0.00    +0.046 A 
ATOM     25  C   UNL     1       3.045  -1.431   3.679  0.00  0.00    +0.120 A 
ATOM     26  C   UNL     1       2.909  -2.492   4.564  0.00  0.00    +0.046 A 
ATOM     27  C   UNL     1       2.519  -3.731   4.102  0.00  0.00    +0.013 A 
BRANCH  25  28
ATOM     28  O   UNL     1       3.424  -0.209   4.138  0.00  0.00    -0.495 OA
ATOM     29  C   UNL     1       3.663  -0.090   5.542  0.00  0.00    +0.277 C 
ENDBRANCH  25  28
ENDBRANCH   3  22
BRANCH  10  30
ATOM     30  C   UNL     1      -1.960  -6.073  -1.129  0.00  0.00    +0.111 C 
BRANCH  30  31
ATOM     31  C   UNL     1      -1.413  -5.934  -2.550  0.00  0.00    +0.040 C 
BRANCH  31  32
ATOM     32  C   UNL     1      -2.577  -5.878  -3.542  0.00  0.00    +0.124 C 
BRANCH  32  33
ATOM     33  N   UNL     1      -2.052  -5.744  -4.904  0.00  0.00    -0.338 N 
ATOM     34  C   UNL     1      -1.784  -4.573  -5.560  0.00  0.00    +0.104 A 
ATOM     35  C   UNL     1      -1.320  -4.907  -6.779  0.00  0.00    +0.101 A 
ATOM     36  N   UNL     1      -1.304  -6.246  -6.865  0.00  0.00    -0.352 N 
ATOM     37  C   UNL     1      -1.737  -6.754  -5.743  0.00  0.00    +0.173 A 
ATOM     38  H   UNL     1      -1.014  -6.756  -7.637  0.00  0.00    +0.166 HD
ENDBRANCH  32  33
ENDBRANCH  31  32
ENDBRANCH  30  31
ENDBRANCH  10  30
TORSDOF 10
