REMARK  Name = ZINC35896962
REMARK  12 active torsions:
REMARK  status: ('A' for Active; 'I' for Inactive)
REMARK    1  A    between atoms: C_1  and  C_2
REMARK    2  A    between atoms: C_2  and  C_3
REMARK    3  A    between atoms: C_3  and  C_5
REMARK    4  A    between atoms: C_3  and  O_15
REMARK    5  A    between atoms: N_7  and  C_8
REMARK    6  A    between atoms: C_8  and  C_9
REMARK    7  A    between atoms: C_9  and  N_10
REMARK    8  A    between atoms: O_15  and  C_16
REMARK    9  A    between atoms: C_22  and  C_31
REMARK   10  A    between atoms: C_27  and  C_29
REMARK   11  A    between atoms: C_29  and  C_30
REMARK   12  A    between atoms: C_35  and  C_37
REMARK                            x       y       z     vdW  Elec       q    Type
REMARK                         _______ _______ _______ _____ _____    ______ ____
ROOT
ATOM      1  C   UNL     1       2.166   1.330  -2.863  0.00  0.00    +0.122 A 
ATOM      2  C   UNL     1       1.413   2.297  -3.513  0.00  0.00    +0.046 A 
ATOM      3  C   UNL     1       1.998   3.490  -3.877  0.00  0.00    +0.007 A 
ATOM      4  C   UNL     1       3.338   3.737  -3.598  0.00  0.00    -0.040 A 
ATOM      5  C   UNL     1       4.084   2.782  -2.945  0.00  0.00    -0.016 A 
ATOM      6  C   UNL     1       3.498   1.579  -2.578  0.00  0.00    +0.051 A 
ATOM      7  C   UNL     1       5.533   2.996  -2.585  0.00  0.00    +0.137 C 
ATOM      8  N   UNL     1       6.040   4.190  -3.270  0.00  0.00    -0.290 N 
ATOM      9  C   UNL     1       5.184   5.387  -3.265  0.00  0.00    +0.113 C 
ATOM     10  C   UNL     1       3.910   5.058  -4.041  0.00  0.00    +0.054 C 
ATOM     11  C   UNL     1       7.242   4.190  -3.880  0.00  0.00    +0.216 C 
ATOM     12  O   UNL     1       7.960   3.216  -3.805  0.00  0.00    -0.276 OA
ENDROOT
BRANCH   7  13
ATOM     13  C   UNL     1       6.338   1.795  -3.010  0.00  0.00    -0.022 A 
ATOM     14  C   UNL     1       6.520   1.525  -4.354  0.00  0.00    +0.006 A 
ATOM     15  C   UNL     1       7.258   0.423  -4.743  0.00  0.00    +0.001 A 
ATOM     16  C   UNL     1       7.815  -0.408  -3.789  0.00  0.00    +0.003 A 
ATOM     17  C   UNL     1       7.634  -0.138  -2.446  0.00  0.00    -0.050 A 
ATOM     18  C   UNL     1       6.899   0.967  -2.056  0.00  0.00    +0.009 A 
ATOM     19  C   UNL     1       8.240  -1.044  -1.406  0.00  0.00    +0.044 C 
ENDBRANCH   7  13
BRANCH  11  20
ATOM     20  C   UNL     1       7.694   5.402  -4.654  0.00  0.00    +0.092 C 
ATOM     21  C   UNL     1       9.083   5.143  -5.241  0.00  0.00    +0.013 C 
ENDBRANCH  11  20
BRANCH   1  22
ATOM     22  O   UNL     1       1.599   0.148  -2.504  0.00  0.00    -0.480 OA
BRANCH  22  23
ATOM     23  C   UNL     1       0.248  -0.073  -2.913  0.00  0.00    +0.258 C 
BRANCH  23  24
ATOM     24  C   UNL     1       0.077  -1.514  -3.320  0.00  0.00    +0.254 C 
ATOM     25  O   UNL     1       0.993  -2.297  -3.180  0.00  0.00    -0.272 OA
ATOM     26  N   UNL     1      -1.094  -1.933  -3.840  0.00  0.00    -0.314 N 
ATOM     27  H   UNL     1      -1.826  -1.307  -3.953  0.00  0.00    +0.149 HD
BRANCH  26  28
ATOM     28  C   UNL     1      -1.260  -3.334  -4.236  0.00  0.00    +0.086 C 
BRANCH  28  29
ATOM     29  C   UNL     1      -2.671  -3.543  -4.791  0.00  0.00    -0.060 C 
BRANCH  29  30
ATOM     30  N   UNL     1      -2.837  -4.947  -5.188  0.00  0.00    +0.381 N 
ATOM     31  C   UNL     1      -2.846  -5.821  -3.987  0.00  0.00    -0.079 C 
ATOM     32  C   UNL     1      -3.569  -7.099  -4.483  0.00  0.00    -0.020 C 
ATOM     33  C   UNL     1      -4.659  -6.536  -5.424  0.00  0.00    -0.020 C 
ATOM     34  C   UNL     1      -4.152  -5.141  -5.837  0.00  0.00    -0.079 C 
ATOM     35  H   UNL     1      -2.096  -5.223  -5.814  0.00  0.00    -0.082 HD
ENDBRANCH  29  30
ENDBRANCH  28  29
ENDBRANCH  26  28
ENDBRANCH  23  24
BRANCH  23  37
ATOM     36  C   UNL     1      -0.613   1.736  -1.421  0.00  0.00    +0.008 C 
ATOM     37  C   UNL     1      -0.696   0.244  -1.752  0.00  0.00    +0.051 C 
ENDBRANCH  23  37
ENDBRANCH  22  23
ENDBRANCH   1  22
TORSDOF 9
