REMARK  Name = ZINC66448216
REMARK  5 active torsions:
REMARK  status: ('A' for Active; 'I' for Inactive)
REMARK    1  A    between atoms: C_1  and  C_2
REMARK    2  A    between atoms: N_16  and  C_17
REMARK    3  A    between atoms: C_17  and  N_18
REMARK    4  A    between atoms: N_24  and  C_25
REMARK    5  A    between atoms: N_24  and  C_26
REMARK                            x       y       z     vdW  Elec       q    Type
REMARK                         _______ _______ _______ _____ _____    ______ ____
ROOT
ATOM      1  C   UNL     1      -0.019   1.526   0.010  0.00  0.00    +0.031 C 
ATOM      2  C   UNL     1       0.002  -0.004   0.002  0.00  0.00    +0.102 C 
ATOM      3  C   UNL     1       0.717  -0.495  -1.234  0.00  0.00    +0.037 A 
ATOM      4  C   UNL     1       1.617  -1.505  -1.214  0.00  0.00    -0.016 A 
ATOM      5  C   UNL     1       2.086  -1.688  -2.569  0.00  0.00    +0.003 A 
ATOM      6  C   UNL     1       3.005  -2.568  -3.147  0.00  0.00    +0.010 A 
ATOM      7  C   UNL     1       3.209  -2.454  -4.500  0.00  0.00    +0.001 A 
ATOM      8  C   UNL     1       2.541  -1.516  -5.269  0.00  0.00    +0.002 A 
ATOM      9  C   UNL     1       1.625  -0.632  -4.724  0.00  0.00    +0.026 A 
ATOM     10  C   UNL     1       1.398  -0.724  -3.352  0.00  0.00    +0.047 A 
ATOM     11  N   UNL     1       0.580  -0.024  -2.512  0.00  0.00    -0.356 N 
ATOM     12  H   UNL     1      -0.009   0.699  -2.780  0.00  0.00    +0.166 HD
ATOM     13  C   UNL     1       2.000  -2.251   0.040  0.00  0.00    +0.053 C 
ATOM     14  C   UNL     1       0.947  -1.947   1.114  0.00  0.00    +0.091 C 
ATOM     15  N   UNL     1       0.722  -0.495   1.188  0.00  0.00    -0.275 NA
ENDROOT
BRANCH  15  16
ATOM     16  C   UNL     1       0.013  -0.131   2.422  0.00  0.00    +0.232 C 
BRANCH  16  17
ATOM     17  N   UNL     1       0.966  -0.076   3.534  0.00  0.00    -0.234 N 
ATOM     18  C   UNL     1       1.007  -1.068   4.459  0.00  0.00    +0.146 A 
ATOM     19  S   UNL     1       0.065  -2.493   4.569  0.00  0.00    -0.023 S 
ATOM     20  S   UNL     1       2.312  -0.485   5.531  0.00  0.00    -0.026 S 
ATOM     21  C   UNL     1       2.686   1.025   4.655  0.00  0.00    +0.182 A 
ATOM     22  N   UNL     1       1.841   0.978   3.659  0.00  0.00    -0.146 NA
ATOM     23  N   UNL     1       3.634   1.995   4.952  0.00  0.00    -0.314 N 
ATOM     24  C   UNL     1       3.774   3.170   4.088  0.00  0.00    +0.131 C 
ATOM     25  C   UNL     1       4.492   1.844   6.129  0.00  0.00    +0.131 C 
ENDBRANCH  16  17
ENDBRANCH  15  16
TORSDOF 2
