REMARK  Name = ZINC09059313
REMARK  6 active torsions:
REMARK  status: ('A' for Active; 'I' for Inactive)
REMARK    1  A    between atoms: C_1  and  C_2
REMARK    2  A    between atoms: C_4  and  C_21
REMARK    3  A    between atoms: C_6  and  C_13
REMARK    4  A    between atoms: C_8  and  C_12
REMARK    5  A    between atoms: C_18  and  O_19
REMARK    6  A    between atoms: C_26  and  O_27
REMARK                            x       y       z     vdW  Elec       q    Type
REMARK                         _______ _______ _______ _____ _____    ______ ____
ROOT
ATOM      1  C   UNL     1       2.508   0.318   2.986  0.00  0.00    +0.014 C 
ATOM      2  C   UNL     1       3.505   0.965   2.023  0.00  0.00    +0.043 C 
ATOM      3  C   UNL     1       2.749   1.643   0.874  0.00  0.00    -0.026 C 
ATOM      4  C   UNL     1       3.027  -0.260  -0.608  0.00  0.00    -0.026 C 
ATOM      5  C   UNL     1       3.802  -1.068   0.440  0.00  0.00    +0.043 C 
ATOM      6  C   UNL     1       4.408  -0.098   1.433  0.00  0.00    +0.136 C 
ATOM      7  O   UNL     1       5.573  -0.170   1.744  0.00  0.00    -0.297 OA
ATOM      8  C   UNL     1       2.849  -2.021   1.165  0.00  0.00    +0.014 C 
ATOM      9  N   UNL     1       2.053   0.621   0.067  0.00  0.00    +0.389 N 
ATOM     10  H   UNL     1       1.473   1.087  -0.640  0.00  0.00    -0.084 HD
ATOM     11  H   UNL     1       1.456   0.056   0.682  0.00  0.00    -0.084 HD
ENDROOT
BRANCH   4  12
ATOM     12  C   UNL     1       2.286  -1.202  -1.521  0.00  0.00    -0.018 A 
ATOM     13  C   UNL     1       0.940  -1.440  -1.324  0.00  0.00    +0.020 A 
ATOM     14  C   UNL     1       0.258  -2.301  -2.165  0.00  0.00    +0.018 A 
ATOM     15  C   UNL     1       0.925  -2.933  -3.200  0.00  0.00    +0.019 A 
ATOM     16  C   UNL     1       2.272  -2.701  -3.397  0.00  0.00    +0.047 A 
ATOM     17  C   UNL     1       2.956  -1.834  -2.558  0.00  0.00    +0.119 A 
ATOM     18 BR   UNL     1      -1.586  -2.621  -1.895  0.00  0.00    -0.050 Br
BRANCH  17  19
ATOM     19  O   UNL     1       4.282  -1.605  -2.751  0.00  0.00    -0.507 OA
ATOM     20  H   UNL     1       4.860  -2.213  -2.269  0.00  0.00    +0.292 HD
ENDBRANCH  17  19
ENDBRANCH   4  12
BRANCH   3  21
ATOM     21  C   UNL     1       1.731   2.600   1.439  0.00  0.00    -0.018 A 
ATOM     22  C   UNL     1       0.424   2.190   1.621  0.00  0.00    +0.020 A 
ATOM     23  C   UNL     1      -0.513   3.070   2.133  0.00  0.00    +0.018 A 
ATOM     24  C   UNL     1      -0.141   4.358   2.476  0.00  0.00    +0.019 A 
ATOM     25  C   UNL     1       1.165   4.771   2.296  0.00  0.00    +0.047 A 
ATOM     26  C   UNL     1       2.105   3.892   1.776  0.00  0.00    +0.119 A 
ATOM     27 BR   UNL     1      -2.303   2.509   2.373  0.00  0.00    -0.050 Br
BRANCH  26  28
ATOM     28  O   UNL     1       3.390   4.297   1.598  0.00  0.00    -0.507 OA
ATOM     29  H   UNL     1       3.563   4.685   0.730  0.00  0.00    +0.292 HD
ENDBRANCH  26  28
ENDBRANCH   3  21
TORSDOF 4
