REMARK  Name = ZINC07850548
REMARK  6 active torsions:
REMARK  status: ('A' for Active; 'I' for Inactive)
REMARK    1  A    between atoms: C_1  and  C_2
REMARK    2  A    between atoms: C_5  and  N_11
REMARK    3  A    between atoms: C_6  and  N_8
REMARK    4  A    between atoms: C_12  and  C_14
REMARK    5  A    between atoms: C_14  and  C_15
REMARK    6  A    between atoms: N_21  and  C_22
REMARK                            x       y       z     vdW  Elec       q    Type
REMARK                         _______ _______ _______ _____ _____    ______ ____
ROOT
ATOM      1  N   UNL     1       0.038  -3.996  -0.029  0.00  0.00    -0.284 N 
ATOM      2  C   UNL     1      -0.101  -4.612  -1.220  0.00  0.00    +0.219 C 
ATOM      3  O   UNL     1      -0.140  -3.957  -2.240  0.00  0.00    -0.275 OA
ATOM      4  H   UNL     1       0.151  -4.522   0.779  0.00  0.00    +0.155 HD
ENDROOT
BRANCH   1   9
ATOM      5  C   UNL     1      -0.037   1.669   0.263  0.00  0.00    +0.044 C 
ATOM      6  C   UNL     1      -0.018   0.164   0.186  0.00  0.00    -0.048 A 
ATOM      7  C   UNL     1      -0.652  -0.482  -0.860  0.00  0.00    +0.005 A 
ATOM      8  C   UNL     1      -0.635  -1.861  -0.934  0.00  0.00    +0.026 A 
ATOM      9  C   UNL     1       0.020  -2.599   0.043  0.00  0.00    +0.064 A 
ATOM     10  C   UNL     1       0.655  -1.948   1.092  0.00  0.00    +0.148 A 
ATOM     11  C   UNL     1       0.639  -0.568   1.157  0.00  0.00    +0.038 A 
BRANCH  10  12
ATOM     12  N   UNL     1       1.354  -2.731   2.135  0.00  0.00    +0.058 N 
ATOM     13  O   UNL     1       1.825  -2.171   3.098  0.00  0.00    -0.126 OA
ATOM     14  O   UNL     1       1.454  -3.931   2.025  0.00  0.00    -0.126 OA
ENDBRANCH  10  12
ENDBRANCH   1   9
BRANCH   2  15
ATOM     15  C   UNL     1      -0.207  -6.114  -1.284  0.00  0.00    +0.120 C 
BRANCH  15  16
ATOM     16  C   UNL     1      -0.356  -6.553  -2.742  0.00  0.00    +0.149 C 
ATOM     17  C   UNL     1      -0.437  -8.066  -2.856  0.00  0.00    +0.232 C 
ATOM     18  O   UNL     1       0.472  -8.788  -2.508  0.00  0.00    -0.274 OA
ATOM     19  N   UNL     1      -1.562  -8.546  -3.358  0.00  0.00    -0.264 N 
ATOM     20  C   UNL     1      -2.603  -7.730  -3.757  0.00  0.00    +0.157 C 
ATOM     21  N   UNL     1      -3.751  -8.079  -4.262  0.00  0.00    -0.260 NA
ATOM     22  S   UNL     1      -2.002  -6.081  -3.416  0.00  0.00    -0.077 S 
ATOM     23  H   UNL     1      -1.660  -9.507  -3.451  0.00  0.00    +0.157 HD
BRANCH  21  24
ATOM     24  C   UNL     1      -4.734  -7.055  -4.624  0.00  0.00    +0.108 C 
ATOM     25  C   UNL     1      -6.059  -7.306  -3.875  0.00  0.00    +0.027 C 
ATOM     26  C   UNL     1      -7.154  -6.924  -4.901  0.00  0.00    +0.002 C 
ATOM     27  C   UNL     1      -6.565  -7.441  -6.237  0.00  0.00    +0.002 C 
ATOM     28  C   UNL     1      -5.056  -7.141  -6.127  0.00  0.00    +0.027 C 
ENDBRANCH  21  24
ENDBRANCH  15  16
ENDBRANCH   2  15
TORSDOF 5
