REMARK  Name = ZINC02502516
REMARK  5 active torsions:
REMARK  status: ('A' for Active; 'I' for Inactive)
REMARK    1  A    between atoms: C_1  and  O_2
REMARK    2  A    between atoms: O_2  and  C_3
REMARK    3  A    between atoms: C_8  and  C_9
REMARK    4  A    between atoms: C_18  and  N_22
REMARK    5  A    between atoms: C_19  and  C_20
REMARK                            x       y       z     vdW  Elec       q    Type
REMARK                         _______ _______ _______ _____ _____    ______ ____
ROOT
ATOM      1  C   UNL     1       1.296  -0.768  -0.013  0.00  0.00    +0.102 C 
ATOM      2  C   UNL     1       2.428   0.134  -0.430  0.00  0.00    +0.011 A 
ATOM      3  C   UNL     1       3.625  -0.425  -0.844  0.00  0.00    +0.057 A 
ATOM      4  C   UNL     1       4.677   0.388  -1.232  0.00  0.00    +0.167 A 
ATOM      5  C   UNL     1       4.530   1.772  -1.204  0.00  0.00    +0.170 A 
ATOM      6  C   UNL     1       3.332   2.329  -0.790  0.00  0.00    +0.096 A 
ATOM      7  C   UNL     1       2.279   1.511  -0.402  0.00  0.00    +0.138 A 
ATOM      8  O   UNL     1       1.114   2.076   0.003  0.00  0.00    -0.441 OA
ATOM      9  C   UNL     1      -0.016   1.350   0.009  0.00  0.00    +0.199 C 
ATOM     10  C   UNL     1       0.002  -0.004   0.002  0.00  0.00    +0.098 C 
ATOM     11  O   UNL     1       5.695   2.344  -1.627  0.00  0.00    -0.452 OA
ATOM     12  C   UNL     1       6.416   1.294  -2.300  0.00  0.00    +0.466 C 
ATOM     13  O   UNL     1       5.936   0.091  -1.671  0.00  0.00    -0.453 OA
ENDROOT
BRANCH   1  19
ATOM     14  C   UNL     1       1.687  -2.678   1.563  0.00  0.00    +0.124 A 
ATOM     15  C   UNL     1       1.946  -3.175   2.832  0.00  0.00    +0.047 A 
ATOM     16  C   UNL     1       2.079  -2.307   3.898  0.00  0.00    +0.019 A 
ATOM     17  C   UNL     1       1.959  -0.943   3.700  0.00  0.00    +0.018 A 
ATOM     18  C   UNL     1       1.706  -0.445   2.434  0.00  0.00    +0.023 A 
ATOM     19  C   UNL     1       1.572  -1.310   1.365  0.00  0.00    +0.008 A 
ATOM     20 BR   UNL     1       2.141   0.243   5.162  0.00  0.00    -0.050 Br
BRANCH  14  22
ATOM     21  C   UNL     1       1.680  -4.927   0.790  0.00  0.00    +0.277 C 
ATOM     22  O   UNL     1       1.550  -3.531   0.513  0.00  0.00    -0.495 OA
ENDBRANCH  14  22
ENDBRANCH   1  19
BRANCH   9  23
ATOM     23  N   UNL     1      -1.225   2.000   0.019  0.00  0.00    -0.328 N 
ATOM     24  H   UNL     1      -2.050   1.489   0.020  0.00  0.00    +0.145 HD
ATOM     25  H   UNL     1      -1.255   2.969   0.024  0.00  0.00    +0.145 HD
ENDBRANCH   9  23
BRANCH  10  26
ATOM     26  C   UNL     1      -1.237  -0.723   0.009  0.00  0.00    +0.101 C 
ATOM     27  N   UNL     1      -2.219  -1.293   0.015  0.00  0.00    -0.191 NA
ENDBRANCH  10  26
TORSDOF 4
