REMARK  Name = ZINC66512257
REMARK  5 active torsions:
REMARK  status: ('A' for Active; 'I' for Inactive)
REMARK    1  A    between atoms: C_1  and  C_2
REMARK    2  A    between atoms: C_6  and  C_7
REMARK    3  A    between atoms: C_11  and  C_18
REMARK    4  A    between atoms: C_15  and  C_16
REMARK    5  A    between atoms: C_15  and  C_17
REMARK                            x       y       z     vdW  Elec       q    Type
REMARK                         _______ _______ _______ _____ _____    ______ ____
ROOT
ATOM      1  C   UNL     1       0.179  -0.419   2.502  0.00  0.00    +0.283 C 
ATOM      2  O   UNL     1       0.282   0.764   2.766  0.00  0.00    -0.267 OA
ATOM      3  N   UNL     1       0.035  -1.321   3.493  0.00  0.00    -0.285 N 
ATOM      4  C   UNL     1       0.068  -2.765   3.213  0.00  0.00    +0.145 C 
ATOM      5  C   UNL     1       1.064  -3.421   4.177  0.00  0.00    +0.166 C 
ATOM      6  O   UNL     1       0.742  -3.041   5.517  0.00  0.00    -0.368 OA
ATOM      7  C   UNL     1       0.847  -1.638   5.768  0.00  0.00    +0.186 C 
ATOM      8  C   UNL     1      -0.154  -0.890   4.887  0.00  0.00    +0.056 C 
ATOM      9  C   UNL     1       0.088   0.616   4.999  0.00  0.00    +0.034 C 
ATOM     10  C   UNL     1      -1.578  -1.219   5.340  0.00  0.00    +0.034 C 
ENDROOT
BRANCH   1  16
ATOM     11  C   UNL     1       0.831   1.393   0.043  0.00  0.00    +0.048 C 
ATOM     12  C   UNL     1       0.495  -0.076   0.026  0.00  0.00    +0.011 A 
ATOM     13  C   UNL     1       0.417  -0.909  -1.100  0.00  0.00    +0.062 A 
ATOM     14  C   UNL     1       0.078  -2.179  -0.648  0.00  0.00    +0.117 A 
ATOM     15  O   UNL     1      -0.038  -2.122   0.672  0.00  0.00    -0.454 OA
ATOM     16  C   UNL     1       0.211  -0.864   1.103  0.00  0.00    +0.193 A 
ATOM     17  C   UNL     1      -0.106  -3.354  -1.574  0.00  0.00    +0.075 C 
ATOM     18  C   UNL     1      -0.370  -2.843  -2.993  0.00  0.00    +0.016 C 
ATOM     19  C   UNL     1       0.718  -1.853  -3.423  0.00  0.00    +0.080 C 
ATOM     20  C   UNL     1       0.630  -0.626  -2.528  0.00  0.00    +0.167 C 
ATOM     21  O   UNL     1       0.728   0.503  -2.960  0.00  0.00    -0.292 OA
ENDBRANCH   1  16
BRANCH   5  22
ATOM     22  C   UNL     1       0.980  -4.920   4.044  0.00  0.00    -0.017 A 
ATOM     23  C   UNL     1      -0.039  -5.614   4.671  0.00  0.00    +0.006 A 
ATOM     24  C   UNL     1      -0.116  -6.988   4.548  0.00  0.00    +0.000 A 
ATOM     25  C   UNL     1       0.825  -7.670   3.799  0.00  0.00    +0.000 A 
ATOM     26  C   UNL     1       1.843  -6.976   3.171  0.00  0.00    +0.000 A 
ATOM     27  C   UNL     1       1.917  -5.601   3.290  0.00  0.00    +0.006 A 
ENDBRANCH   5  22
TORSDOF 2
