REMARK  Name = ZINC12382962
REMARK  7 active torsions:
REMARK  status: ('A' for Active; 'I' for Inactive)
REMARK    1  A    between atoms: C_1  and  C_2
REMARK    2  A    between atoms: C_2  and  C_3
REMARK    3  A    between atoms: C_2  and  C_4
REMARK    4  A    between atoms: C_7  and  C_10
REMARK    5  A    between atoms: N_11  and  N_12
REMARK    6  A    between atoms: N_15  and  C_18
REMARK    7  A    between atoms: C_18  and  C_19
REMARK                            x       y       z     vdW  Elec       q    Type
REMARK                         _______ _______ _______ _____ _____    ______ ____
ROOT
ATOM      1  N   UNL     1      -3.843   4.986   6.124  0.00  0.00    -0.253 N 
ATOM      2  C   UNL     1      -4.048   3.905   7.101  0.00  0.00    +0.141 C 
ATOM      3  C   UNL     1      -3.280   4.261   8.383  0.00  0.00    +0.105 C 
ATOM      4  N   UNL     1      -3.692   5.596   8.839  0.00  0.00    -0.295 NA
ATOM      5  C   UNL     1      -3.340   6.627   7.855  0.00  0.00    +0.105 C 
ATOM      6  C   UNL     1      -4.104   6.368   6.552  0.00  0.00    +0.141 C 
ENDROOT
BRANCH   1   8
ATOM      7  C   UNL     1      -3.181   5.675   3.991  0.00  0.00    +0.138 C 
ATOM      8  N   UNL     1      -3.415   4.705   4.820  0.00  0.00    -0.192 NA
BRANCH   7  12
ATOM      9  C   UNL     1      -1.487   4.855   0.187  0.00  0.00    -0.045 A 
ATOM     10  C   UNL     1      -1.740   3.817   1.066  0.00  0.00    +0.004 A 
ATOM     11  C   UNL     1      -2.286   4.077   2.306  0.00  0.00    +0.010 A 
ATOM     12  C   UNL     1      -2.593   5.390   2.669  0.00  0.00    -0.005 A 
ATOM     13  C   UNL     1      -2.340   6.432   1.774  0.00  0.00    +0.010 A 
ATOM     14  C   UNL     1      -1.789   6.158   0.539  0.00  0.00    +0.004 A 
BRANCH   9  16
ATOM     15  C   UNL     1      -1.811   3.626  -1.943  0.00  0.00    +0.012 C 
ATOM     16  C   UNL     1      -0.886   4.564  -1.164  0.00  0.00    +0.013 C 
ATOM     17  C   UNL     1       0.479   3.897  -0.981  0.00  0.00    +0.012 C 
ENDBRANCH   9  16
ENDBRANCH   7  12
ENDBRANCH   1   8
BRANCH   4  18
ATOM     18  C   UNL     1      -3.115   5.904  10.155  0.00  0.00    +0.121 C 
BRANCH  18  19
ATOM     19  C   UNL     1      -3.423   4.783  11.113  0.00  0.00    -0.015 A 
ATOM     20  C   UNL     1      -2.422   3.913  11.504  0.00  0.00    +0.006 A 
ATOM     21  C   UNL     1      -2.704   2.887  12.387  0.00  0.00    +0.000 A 
ATOM     22  C   UNL     1      -3.988   2.724  12.872  0.00  0.00    +0.001 A 
ATOM     23  C   UNL     1      -4.990   3.590  12.478  0.00  0.00    +0.020 A 
ATOM     24  C   UNL     1      -4.708   4.620  11.598  0.00  0.00    +0.045 A 
ATOM     25 CL   UNL     1      -5.968   5.708  11.102  0.00  0.00    -0.083 Cl
ENDBRANCH  18  19
ENDBRANCH   4  18
TORSDOF 5
