REMARK  Name = ZINC67564096
REMARK  4 active torsions:
REMARK  status: ('A' for Active; 'I' for Inactive)
REMARK    1  A    between atoms: C_3  and  C_8
REMARK    2  A    between atoms: C_11  and  N_13
REMARK    3  A    between atoms: N_16  and  C_17
REMARK    4  A    between atoms: C_17  and  C_18
REMARK                            x       y       z     vdW  Elec       q    Type
REMARK                         _______ _______ _______ _____ _____    ______ ____
ROOT
ATOM      1  N   UNL     1       4.635   0.670  -2.139  0.00  0.00    -0.296 N 
ATOM      2  C   UNL     1       4.915   0.943  -3.429  0.00  0.00    +0.300 C 
ATOM      3  O   UNL     1       5.548   1.940  -3.716  0.00  0.00    -0.253 OA
ATOM      4  N   UNL     1       4.492   0.110  -4.401  0.00  0.00    -0.295 N 
ATOM      5  H   UNL     1       4.130  -0.126  -1.910  0.00  0.00    +0.151 HD
ATOM      6  H   UNL     1       3.986  -0.686  -4.171  0.00  0.00    +0.151 HD
ENDROOT
BRANCH   1   9
ATOM      7  C   UNL     1       4.311   1.584   0.231  0.00  0.00    +0.041 C 
ATOM      8  C   UNL     1       5.700   0.946   0.174  0.00  0.00    +0.033 C 
ATOM      9  C   UNL     1       5.095   1.575  -1.083  0.00  0.00    +0.082 C 
BRANCH   7  12
ATOM     10  C   UNL     1       0.777   0.331   0.676  0.00  0.00    +0.003 A 
ATOM     11  C   UNL     1       1.865   1.177   0.576  0.00  0.00    +0.004 A 
ATOM     12  C   UNL     1       3.125   0.660   0.340  0.00  0.00    -0.040 A 
ATOM     13  C   UNL     1       3.298  -0.705   0.202  0.00  0.00    +0.042 A 
ATOM     14  C   UNL     1       2.208  -1.553   0.302  0.00  0.00    +0.124 A 
ATOM     15  C   UNL     1       0.947  -1.033   0.540  0.00  0.00    +0.038 A 
ATOM     16  F   UNL     1       2.376  -2.887   0.168  0.00  0.00    -0.205 F 
ENDBRANCH   7  12
ENDBRANCH   1   9
BRANCH   4  17
ATOM     17  C   UNL     1       4.795   0.406  -5.803  0.00  0.00    +0.142 C 
BRANCH  17  18
ATOM     18  C   UNL     1       4.215  -0.672  -6.681  0.00  0.00    -0.014 A 
ATOM     19  C   UNL     1       4.963  -1.799  -6.996  0.00  0.00    +0.010 A 
ATOM     20  C   UNL     1       4.393  -2.765  -7.805  0.00  0.00    +0.042 A 
ATOM     21  C   UNL     1       3.097  -2.576  -8.274  0.00  0.00    +0.099 A 
ATOM     22  N   UNL     1       2.416  -1.488  -7.951  0.00  0.00    -0.349 N 
ATOM     23  C   UNL     1       2.932  -0.552  -7.176  0.00  0.00    +0.089 A 
ATOM     24  N   UNL     1       2.512  -3.539  -9.088  0.00  0.00    -0.317 N 
ATOM     25  C   UNL     1       3.216  -4.782  -9.307  0.00  0.00    +0.106 C 
ATOM     26  C   UNL     1       4.147  -4.644 -10.537  0.00  0.00    +0.019 C 
ATOM     27  C   UNL     1       3.353  -4.589 -11.774  0.00  0.00    +0.002 C 
ATOM     28  C   UNL     1       2.419  -3.387 -11.870  0.00  0.00    +0.002 C 
ATOM     29  C   UNL     1       1.123  -3.703 -11.164  0.00  0.00    +0.019 C 
ATOM     30  C   UNL     1       1.195  -3.251  -9.689  0.00  0.00    +0.106 C 
ATOM     31  H   UNL     1       1.514  -1.377  -8.290  0.00  0.00    +0.167 HD
ENDBRANCH  17  18
ENDBRANCH   4  17
TORSDOF 4
