REMARK  Name = ZINC39488114
REMARK  11 active torsions:
REMARK  status: ('A' for Active; 'I' for Inactive)
REMARK    1  A    between atoms: C_1  and  C_2
REMARK    2  A    between atoms: C_2  and  O_3
REMARK    3  A    between atoms: O_3  and  N_4
REMARK    4  A    between atoms: C_6  and  C_30
REMARK    5  A    between atoms: C_6  and  C_31
REMARK    6  A    between atoms: N_7  and  C_10
REMARK    7  A    between atoms: C_10  and  C_11
REMARK    8  A    between atoms: C_11  and  C_24
REMARK    9  A    between atoms: N_14  and  C_17
REMARK   10  A    between atoms: C_17  and  C_18
REMARK   11  A    between atoms: C_36  and  O_37
REMARK                            x       y       z     vdW  Elec       q    Type
REMARK                         _______ _______ _______ _____ _____    ______ ____
ROOT
ATOM      1  C   UNL     1      -2.448  -5.599  -2.118  0.00  0.00    -0.014 C 
ATOM      2  C   UNL     1      -2.028  -5.486  -0.650  0.00  0.00    -0.010 C 
ATOM      3  C   UNL     1      -1.383  -4.118  -0.413  0.00  0.00    -0.078 C 
ATOM      4  N   UNL     1      -2.347  -3.058  -0.731  0.00  0.00    +0.382 N 
ATOM      5  C   UNL     1      -2.699  -3.116  -2.155  0.00  0.00    -0.078 C 
ATOM      6  C   UNL     1      -3.394  -4.445  -2.458  0.00  0.00    -0.010 C 
ATOM      7  H   UNL     1      -3.179  -3.183  -0.174  0.00  0.00    -0.081 HD
ENDROOT
BRANCH   1   8
ATOM      8  C   UNL     1      -3.163  -6.932  -2.346  0.00  0.00    -0.003 C 
ATOM      9  C   UNL     1      -3.754  -6.959  -3.757  0.00  0.00    +0.004 C 
ATOM     10  C   UNL     1      -4.470  -8.292  -3.985  0.00  0.00    +0.000 C 
ATOM     11  C   UNL     1      -5.593  -8.449  -2.958  0.00  0.00    +0.000 C 
ATOM     12  C   UNL     1      -5.002  -8.423  -1.547  0.00  0.00    +0.000 C 
ATOM     13  C   UNL     1      -4.287  -7.090  -1.319  0.00  0.00    +0.004 C 
ENDBRANCH   1   8
BRANCH   1  14
ATOM     14  C   UNL     1      -1.208  -5.524  -3.012  0.00  0.00    +0.117 C 
BRANCH  14  18
ATOM     15  N   UNL     1       1.238  -7.717  -1.426  0.00  0.00    -0.162 N 
ATOM     16  C   UNL     1       1.034  -8.570  -2.606  0.00  0.00    +0.172 C 
ATOM     17  C   UNL     1      -0.006  -7.799  -3.443  0.00  0.00    +0.083 C 
ATOM     18  N   UNL     1      -0.276  -6.594  -2.645  0.00  0.00    -0.272 N 
ATOM     19  C   UNL     1       0.460  -6.632  -1.526  0.00  0.00    +0.329 C 
ATOM     20  O   UNL     1       0.427  -5.759  -0.681  0.00  0.00    -0.250 OA
ATOM     21  C   UNL     1      -1.280  -8.628  -3.612  0.00  0.00    +0.039 C 
BRANCH  17  22
ATOM     22  C   UNL     1       0.567  -7.427  -4.786  0.00  0.00    +0.019 A 
ATOM     23  C   UNL     1       0.692  -6.097  -5.140  0.00  0.00    +0.009 A 
ATOM     24  C   UNL     1       1.217  -5.754  -6.372  0.00  0.00    +0.001 A 
ATOM     25  C   UNL     1       1.619  -6.741  -7.253  0.00  0.00    +0.004 A 
ATOM     26  C   UNL     1       1.497  -8.072  -6.904  0.00  0.00    +0.046 A 
ATOM     27  C   UNL     1       0.976  -8.418  -5.666  0.00  0.00    +0.122 A 
BRANCH  27  28
ATOM     28  O   UNL     1       0.860  -9.727  -5.318  0.00  0.00    -0.506 OA
ATOM     29  H   UNL     1       0.016 -10.127  -5.568  0.00  0.00    +0.292 HD
ENDBRANCH  27  28
ENDBRANCH  17  22
BRANCH  15  30
ATOM     30  O   UNL     1       2.115  -8.002  -0.350  0.00  0.00    -0.276 OA
BRANCH  30  32
ATOM     31  C   UNL     1       2.615  -9.185   1.697  0.00  0.00    +0.036 C 
ATOM     32  C   UNL     1       1.548  -8.846   0.654  0.00  0.00    +0.187 C 
ENDBRANCH  30  32
ENDBRANCH  15  30
ENDBRANCH  14  18
ENDBRANCH   1  14
BRANCH   4  33
ATOM     33  C   UNL     1      -1.751  -1.750  -0.428  0.00  0.00    -0.043 C 
BRANCH  33  34
ATOM     34  C   UNL     1      -2.790  -0.672  -0.601  0.00  0.00    -0.064 A 
ATOM     35  C   UNL     1      -2.889   0.008  -1.800  0.00  0.00    +0.002 A 
ATOM     36  C   UNL     1      -3.842   0.996  -1.958  0.00  0.00    +0.000 A 
ATOM     37  C   UNL     1      -4.697   1.305  -0.917  0.00  0.00    +0.000 A 
ATOM     38  C   UNL     1      -4.599   0.625   0.282  0.00  0.00    +0.000 A 
ATOM     39  C   UNL     1      -3.648  -0.367   0.439  0.00  0.00    +0.002 A 
ENDBRANCH  33  34
ENDBRANCH   4  33
TORSDOF 9
