REMARK  Name = ZINC36003316
REMARK  13 active torsions:
REMARK  status: ('A' for Active; 'I' for Inactive)
REMARK    1  A    between atoms: C_1  and  C_2
REMARK    2  A    between atoms: C_2  and  N_3
REMARK    3  A    between atoms: C_4  and  C_23
REMARK    4  A    between atoms: C_5  and  C_18
REMARK    5  A    between atoms: C_6  and  C_11
REMARK    6  A    between atoms: C_16  and  C_17
REMARK    7  A    between atoms: C_18  and  O_20
REMARK    8  A    between atoms: O_20  and  C_21
REMARK    9  A    between atoms: C_21  and  C_22
REMARK   10  A    between atoms: C_23  and  N_24
REMARK   11  A    between atoms: N_32  and  C_33
REMARK   12  A    between atoms: C_33  and  C_34
REMARK   13  A    between atoms: C_33  and  C_35
REMARK                            x       y       z     vdW  Elec       q    Type
REMARK                         _______ _______ _______ _____ _____    ______ ____
ROOT
ATOM      1  N   UNL     1       0.847  -0.602  -0.974  0.00  0.00    -0.258 N 
ATOM      2  C   UNL     1      -0.120  -0.777  -1.923  0.00  0.00    +0.041 C 
ATOM      3  C   UNL     1       0.185  -1.252  -3.149  0.00  0.00    +0.080 C 
ATOM      4  C   UNL     1       1.636  -1.584  -3.437  0.00  0.00    +0.144 C 
ATOM      5  N   UNL     1       2.600  -1.359  -2.346  0.00  0.00    -0.288 N 
ATOM      6  C   UNL     1       2.143  -0.873  -1.175  0.00  0.00    +0.307 C 
ATOM      7  O   UNL     1       2.931  -0.680  -0.271  0.00  0.00    -0.252 OA
ATOM      8  H   UNL     1       3.542  -1.552  -2.470  0.00  0.00    +0.151 HD
ENDROOT
BRANCH   4   9
ATOM      9  C   UNL     1       1.711  -3.037  -3.829  0.00  0.00    -0.020 A 
ATOM     10  C   UNL     1       1.905  -4.006  -2.862  0.00  0.00    +0.006 A 
ATOM     11  C   UNL     1       1.974  -5.338  -3.223  0.00  0.00    +0.000 A 
ATOM     12  C   UNL     1       1.849  -5.702  -4.551  0.00  0.00    +0.000 A 
ATOM     13  C   UNL     1       1.654  -4.734  -5.517  0.00  0.00    +0.004 A 
ATOM     14  C   UNL     1       1.581  -3.402  -5.156  0.00  0.00    -0.045 A 
ATOM     15  C   UNL     1       1.363  -2.346  -6.210  0.00  0.00    +0.044 C 
ENDBRANCH   4   9
BRANCH   1  17
ATOM     16  C   UNL     1       0.514   1.447   0.320  0.00  0.00    +0.025 C 
ATOM     17  C   UNL     1       0.445  -0.082   0.335  0.00  0.00    +0.111 C 
ENDBRANCH   1  17
BRANCH   3  18
ATOM     18  C   UNL     1      -0.815  -1.435  -4.133  0.00  0.00    +0.339 C 
ATOM     19  O   UNL     1      -1.315  -2.533  -4.296  0.00  0.00    -0.245 OA
BRANCH  18  20
ATOM     20  O   UNL     1      -1.216  -0.392  -4.889  0.00  0.00    -0.462 OA
BRANCH  20  21
ATOM     21  C   UNL     1      -2.306  -0.621  -5.784  0.00  0.00    +0.229 C 
ATOM     22  C   UNL     1      -2.536   0.627  -6.638  0.00  0.00    +0.048 C 
ENDBRANCH  20  21
ENDBRANCH  18  20
ENDBRANCH   3  18
BRANCH   2  23
ATOM     23  C   UNL     1      -1.550  -0.434  -1.595  0.00  0.00    +0.136 C 
BRANCH  23  24
ATOM     24  N   UNL     1      -2.051  -1.355  -0.566  0.00  0.00    -0.294 NA
ATOM     25  C   UNL     1      -2.122  -2.730  -1.079  0.00  0.00    +0.104 C 
ATOM     26  C   UNL     1      -2.473  -3.682   0.069  0.00  0.00    +0.124 C 
ATOM     27  N   UNL     1      -3.699  -3.197   0.720  0.00  0.00    -0.283 N 
ATOM     28  C   UNL     1      -3.754  -1.789   1.140  0.00  0.00    +0.124 C 
ATOM     29  C   UNL     1      -3.353  -0.911  -0.051  0.00  0.00    +0.104 C 
ATOM     30  C   UNL     1      -4.744  -4.022   0.928  0.00  0.00    +0.302 C 
ATOM     31  O   UNL     1      -4.649  -5.204   0.658  0.00  0.00    -0.253 OA
ATOM     32  N   UNL     1      -5.895  -3.537   1.435  0.00  0.00    -0.297 N 
ATOM     33  H   UNL     1      -5.996  -2.584   1.584  0.00  0.00    +0.150 HD
BRANCH  32  34
ATOM     34  C   UNL     1      -6.994  -4.450   1.762  0.00  0.00    +0.068 C 
ATOM     35  C   UNL     1      -7.877  -3.819   2.840  0.00  0.00    +0.027 C 
ATOM     36  C   UNL     1      -7.829  -4.713   0.508  0.00  0.00    +0.027 C 
ENDBRANCH  32  34
ENDBRANCH  23  24
ENDBRANCH   2  23
TORSDOF 8
