REMARK  Name = ZINC08800745
REMARK  12 active torsions:
REMARK  status: ('A' for Active; 'I' for Inactive)
REMARK    1  A    between atoms: C_1  and  C_2
REMARK    2  A    between atoms: C_2  and  C_3
REMARK    3  A    between atoms: N_5  and  C_6
REMARK    4  A    between atoms: C_9  and  S_12
REMARK    5  A    between atoms: S_12  and  N_15
REMARK    6  A    between atoms: N_15  and  C_16
REMARK    7  A    between atoms: C_16  and  C_17
REMARK    8  A    between atoms: C_17  and  C_19
REMARK    9  A    between atoms: C_17  and  N_60
REMARK   10  A    between atoms: N_27  and  C_28
REMARK   11  A    between atoms: C_29  and  N_60
REMARK   12  A    between atoms: C_30  and  N_60
REMARK                            x       y       z     vdW  Elec       q    Type
REMARK                         _______ _______ _______ _____ _____    ______ ____
ROOT
ATOM      1  N   UNL     1       1.409   5.166   2.232  0.00  0.00    -0.191 NA
ATOM      2  H   UNL     1       0.786   5.819   2.587  0.00  0.00    +0.148 HD
ENDROOT
BRANCH   1   3
ATOM      3  S   UNL     1       1.081   4.402   0.800  0.00  0.00    +0.058 S 
ATOM      4  O   UNL     1       2.257   4.501   0.009  0.00  0.00    -0.153 OA
ATOM      5  O   UNL     1      -0.178   4.891   0.357  0.00  0.00    -0.153 OA
BRANCH   3   9
ATOM      6  C   UNL     1       0.509   0.006   1.726  0.00  0.00    +0.033 A 
ATOM      7  C   UNL     1      -0.578   0.870   1.752  0.00  0.00    +0.025 A 
ATOM      8  C   UNL     1      -0.400   2.210   1.469  0.00  0.00    +0.030 A 
ATOM      9  C   UNL     1       0.859   2.692   1.160  0.00  0.00    +0.105 A 
ATOM     10  C   UNL     1       1.943   1.835   1.134  0.00  0.00    +0.030 A 
ATOM     11  C   UNL     1       1.772   0.493   1.416  0.00  0.00    +0.025 A 
BRANCH   6  14
ATOM     12  C   UNL     1      -0.794  -1.982   1.625  0.00  0.00    +0.217 C 
ATOM     13  O   UNL     1      -1.609  -1.399   0.941  0.00  0.00    -0.275 OA
ATOM     14  N   UNL     1       0.332  -1.352   2.013  0.00  0.00    -0.286 N 
ATOM     15  H   UNL     1       1.021  -1.840   2.492  0.00  0.00    +0.155 HD
BRANCH  12  17
ATOM     16  C   UNL     1      -2.380  -3.882   1.470  0.00  0.00    +0.013 C 
ATOM     17  C   UNL     1      -1.040  -3.409   2.039  0.00  0.00    +0.093 C 
ENDBRANCH  12  17
ENDBRANCH   6  14
ENDBRANCH   3   9
ENDBRANCH   1   3
BRANCH   1  18
ATOM     18  C   UNL     1       2.640   4.856   2.963  0.00  0.00    +0.095 C 
BRANCH  18  19
ATOM     19  C   UNL     1       2.889   5.931   4.022  0.00  0.00    -0.023 C 
BRANCH  19  20
ATOM     20  C   UNL     1       4.216   5.680   4.691  0.00  0.00    -0.059 A 
ATOM     21  C   UNL     1       5.353   5.494   3.925  0.00  0.00    +0.004 A 
ATOM     22  C   UNL     1       6.570   5.262   4.532  0.00  0.00    +0.023 A 
ATOM     23  C   UNL     1       6.662   5.213   5.922  0.00  0.00    +0.033 A 
ATOM     24  C   UNL     1       5.514   5.405   6.683  0.00  0.00    -0.025 A 
ATOM     25  C   UNL     1       4.301   5.640   6.071  0.00  0.00    +0.007 A 
ATOM     26  C   UNL     1       5.901   5.311   8.145  0.00  0.00    +0.056 C 
ATOM     27  C   UNL     1       7.440   5.458   8.103  0.00  0.00    +0.109 C 
ATOM     28  N   UNL     1       7.773   4.982   6.742  0.00  0.00    -0.332 N 
ATOM     29  C   UNL     1       8.963   5.668   6.222  0.00  0.00    +0.129 C 
ENDBRANCH  19  20
BRANCH  19  32
ATOM     30  C   UNL     1       3.017   8.321   4.386  0.00  0.00    -0.096 C 
ATOM     31  C   UNL     1       3.986   7.346   2.393  0.00  0.00    -0.096 C 
ATOM     32  N   UNL     1       2.880   7.257   3.370  0.00  0.00    +0.381 N 
ATOM     33  H   UNL     1       1.988   7.380   2.876  0.00  0.00    -0.082 HD
ENDBRANCH  19  32
ENDBRANCH  18  19
ENDBRANCH   1  18
TORSDOF 8
