REMARK  Name = ZINC60659012
REMARK  8 active torsions:
REMARK  status: ('A' for Active; 'I' for Inactive)
REMARK    1  A    between atoms: C_1  and  C_2
REMARK    2  A    between atoms: C_2  and  C_3
REMARK    3  A    between atoms: C_2  and  C_4
REMARK    4  A    between atoms: C_2  and  C_5
REMARK    5  A    between atoms: C_10  and  C_13
REMARK    6  A    between atoms: N_15  and  N_16
REMARK    7  A    between atoms: C_17  and  C_19
REMARK    8  A    between atoms: C_28  and  O_29
REMARK                            x       y       z     vdW  Elec       q    Type
REMARK                         _______ _______ _______ _____ _____    ______ ____
ROOT
ATOM      1  C   UNL     1       1.396  -6.021  -1.013  0.00  0.00    +0.232 C 
ATOM      2  O   UNL     1       1.838  -6.229   0.097  0.00  0.00    -0.274 OA
ATOM      3  N   UNL     1       1.656  -6.885  -2.015  0.00  0.00    -0.234 N 
ATOM      4  H   UNL     1       1.302  -6.719  -2.902  0.00  0.00    +0.173 HD
ENDROOT
BRANCH   1  10
ATOM      5  C   UNL     1       0.363  -0.695  -1.238  0.00  0.00    +0.221 C 
ATOM      6  O   UNL     1       0.920  -0.101  -2.138  0.00  0.00    -0.275 OA
ATOM      7  N   UNL     1       0.093  -2.009  -1.364  0.00  0.00    -0.301 N 
ATOM      8  C   UNL     1      -0.470  -2.768  -0.239  0.00  0.00    +0.108 C 
ATOM      9  C   UNL     1       0.414  -3.992   0.021  0.00  0.00    +0.032 C 
ATOM     10  C   UNL     1       0.555  -4.798  -1.273  0.00  0.00    +0.079 C 
ATOM     11  C   UNL     1       1.228  -3.934  -2.342  0.00  0.00    +0.032 C 
ATOM     12  C   UNL     1       0.348  -2.708  -2.631  0.00  0.00    +0.108 C 
BRANCH   5  14
ATOM     13  C   UNL     1       0.221   1.537  -0.166  0.00  0.00    +0.020 C 
ATOM     14  C   UNL     1      -0.025   0.038   0.020  0.00  0.00    +0.039 C 
ATOM     15  C   UNL     1       0.816  -0.476   1.190  0.00  0.00    +0.020 C 
ATOM     16  C   UNL     1      -1.507  -0.203   0.313  0.00  0.00    +0.020 C 
ENDBRANCH   5  14
ENDBRANCH   1  10
BRANCH   3  17
ATOM     17  N   UNL     1       2.438  -8.022  -1.773  0.00  0.00    -0.230 N 
ATOM     18  C   UNL     1       2.698  -8.886  -2.775  0.00  0.00    +0.264 C 
ATOM     19  O   UNL     1       2.255  -8.678  -3.887  0.00  0.00    -0.269 OA
ATOM     20  H   UNL     1       2.792  -8.188  -0.885  0.00  0.00    +0.173 HD
BRANCH  18  21
ATOM     21  C   UNL     1       3.522 -10.084  -2.520  0.00  0.00    +0.080 A 
ATOM     22  C   UNL     1       4.020 -10.320  -1.249  0.00  0.00    +0.025 A 
ATOM     23  C   UNL     1       4.801 -11.460  -1.014  0.00  0.00    -0.017 A 
ATOM     24  C   UNL     1       5.323 -11.730   0.265  0.00  0.00    +0.008 A 
ATOM     25  C   UNL     1       6.078 -12.845   0.462  0.00  0.00    +0.001 A 
ATOM     26  C   UNL     1       6.344 -13.726  -0.585  0.00  0.00    +0.001 A 
ATOM     27  C   UNL     1       5.856 -13.498  -1.835  0.00  0.00    +0.008 A 
ATOM     28  C   UNL     1       5.072 -12.357  -2.079  0.00  0.00    -0.014 A 
ATOM     29  C   UNL     1       4.555 -12.095  -3.359  0.00  0.00    +0.054 A 
ATOM     30  C   UNL     1       3.791 -10.986  -3.572  0.00  0.00    +0.130 A 
BRANCH  30  31
ATOM     31  O   UNL     1       3.290 -10.742  -4.809  0.00  0.00    -0.506 OA
ATOM     32  H   UNL     1       3.873 -10.215  -5.373  0.00  0.00    +0.292 HD
ENDBRANCH  30  31
ENDBRANCH  18  21
ENDBRANCH   3  17
TORSDOF 5
