REMARK  Name = ZINC22833471
REMARK  7 active torsions:
REMARK  status: ('A' for Active; 'I' for Inactive)
REMARK    1  A    between atoms: C_1  and  N_2
REMARK    2  A    between atoms: C_4  and  C_5
REMARK    3  A    between atoms: N_7  and  C_14
REMARK    4  A    between atoms: C_14  and  C_15
REMARK    5  A    between atoms: N_17  and  C_18
REMARK    6  A    between atoms: C_18  and  C_19
REMARK    7  A    between atoms: N_27  and  C_30
REMARK                            x       y       z     vdW  Elec       q    Type
REMARK                         _______ _______ _______ _____ _____    ______ ____
ROOT
ATOM      1  C   UNL     1      -6.057   1.076   5.261  0.00  0.00    +0.002 A 
ATOM      2  C   UNL     1      -4.785   0.757   4.876  0.00  0.00    +0.095 A 
ATOM      3  N   UNL     1      -4.582   1.153   3.593  0.00  0.00    -0.337 N 
ATOM      4  C   UNL     1      -5.718   1.754   3.090  0.00  0.00    +0.050 A 
ATOM      5  C   UNL     1      -6.692   1.730   4.101  0.00  0.00    +0.007 A 
ATOM      6  C   UNL     1      -7.954   2.271   3.869  0.00  0.00    +0.010 A 
ATOM      7  C   UNL     1      -8.237   2.839   2.646  0.00  0.00    +0.001 A 
ATOM      8  C   UNL     1      -7.277   2.861   1.645  0.00  0.00    +0.002 A 
ATOM      9  C   UNL     1      -6.027   2.324   1.860  0.00  0.00    +0.026 A 
ENDROOT
BRANCH   1  13
ATOM     10  C   UNL     1      -5.699  -1.728   5.109  0.00  0.00    +0.137 C 
ATOM     11  N   UNL     1      -6.165  -1.602   6.492  0.00  0.00    -0.281 N 
ATOM     12  C   UNL     1      -6.598  -0.423   7.117  0.00  0.00    +0.099 C 
ATOM     13  C   UNL     1      -6.667   0.819   6.565  0.00  0.00    +0.038 C 
ATOM     14  C   UNL     1      -6.954  -0.793   8.442  0.00  0.00    +0.271 C 
ATOM     15  O   UNL     1      -7.383  -0.053   9.309  0.00  0.00    -0.268 OA
ATOM     16  N   UNL     1      -6.727  -2.116   8.558  0.00  0.00    -0.216 N 
ATOM     17  C   UNL     1      -6.253  -2.595   7.396  0.00  0.00    +0.151 C 
ATOM     18  S   UNL     1      -5.832  -4.229   7.106  0.00  0.00    -0.017 S 
BRANCH  16  19
ATOM     19  C   UNL     1      -6.950  -2.875   9.715  0.00  0.00    +0.043 A 
ATOM     20  C   UNL     1      -7.836  -3.944   9.684  0.00  0.00    +0.025 A 
ATOM     21  C   UNL     1      -8.050  -4.695  10.824  0.00  0.00    +0.022 A 
ATOM     22  C   UNL     1      -7.392  -4.375  11.998  0.00  0.00    +0.041 A 
ATOM     23  C   UNL     1      -6.513  -3.307  12.032  0.00  0.00    +0.022 A 
ATOM     24  C   UNL     1      -6.291  -2.557  10.894  0.00  0.00    +0.025 A 
ATOM     25 CL   UNL     1      -7.668  -5.316  13.431  0.00  0.00    -0.084 Cl
ENDBRANCH  16  19
ENDBRANCH   1  13
BRANCH   3  26
ATOM     26  C   UNL     1      -3.333   0.973   2.850  0.00  0.00    +0.217 C 
BRANCH  26  27
ATOM     27  C   UNL     1      -2.500   2.225   2.957  0.00  0.00    +0.233 C 
ATOM     28  O   UNL     1      -2.910   3.173   3.592  0.00  0.00    -0.274 OA
ATOM     29  N   UNL     1      -1.300   2.290   2.348  0.00  0.00    -0.311 N 
ATOM     30  H   UNL     1      -0.928   1.430   1.772  0.00  0.00    +0.149 HD
BRANCH  29  31
ATOM     31  C   UNL     1      -0.490   3.507   2.452  0.00  0.00    +0.135 C 
BRANCH  31  32
ATOM     32  C   UNL     1       0.815   3.319   1.676  0.00  0.00    +0.135 C 
ATOM     33  C   UNL     1       1.723   4.557   1.843  0.00  0.00    +0.035 C 
ATOM     34  C   UNL     1       2.391   4.723   0.460  0.00  0.00    +0.031 C 
ATOM     35  C   UNL     1       1.808   3.564  -0.379  0.00  0.00    +0.160 C 
ATOM     36  O   UNL     1       0.552   3.243   0.258  0.00  0.00    -0.375 OA
ENDBRANCH  31  32
ENDBRANCH  29  31
ENDBRANCH  26  27
ENDBRANCH   3  26
TORSDOF 6
