REMARK  Name = ZINC63666913
REMARK  10 active torsions:
REMARK  status: ('A' for Active; 'I' for Inactive)
REMARK    1  A    between atoms: C_1  and  C_2
REMARK    2  A    between atoms: C_3  and  S_24
REMARK    3  A    between atoms: C_4  and  C_23
REMARK    4  A    between atoms: N_5  and  C_7
REMARK    5  A    between atoms: C_7  and  C_8
REMARK    6  A    between atoms: C_8  and  C_9
REMARK    7  A    between atoms: N_11  and  C_12
REMARK    8  A    between atoms: C_12  and  C_13
REMARK    9  A    between atoms: C_13  and  C_14
REMARK   10  A    between atoms: S_24  and  N_27
REMARK                            x       y       z     vdW  Elec       q    Type
REMARK                         _______ _______ _______ _____ _____    ______ ____
ROOT
ATOM      1  C   UNL     1       1.504  -3.688   1.777  0.00  0.00    +0.119 C 
ENDROOT
BRANCH   1   2
ATOM      2  C   UNL     1       1.525  -4.907   2.662  0.00  0.00    +0.215 C 
ATOM      3  O   UNL     1       0.484  -5.413   3.023  0.00  0.00    -0.276 OA
ATOM      4  N   UNL     1       2.702  -5.436   3.052  0.00  0.00    -0.315 N 
ATOM      5  H   UNL     1       3.535  -5.032   2.764  0.00  0.00    +0.149 HD
BRANCH   4   6
ATOM      6  C   UNL     1       2.723  -6.622   3.912  0.00  0.00    +0.108 C 
BRANCH   6   7
ATOM      7  C   UNL     1       4.172  -7.015   4.205  0.00  0.00    +0.065 C 
BRANCH   7   8
ATOM      8  C   UNL     1       4.193  -8.253   5.103  0.00  0.00    +0.175 C 
ATOM      9  N   UNL     1       3.570  -7.948   6.397  0.00  0.00    -0.363 N 
ATOM     10  C   UNL     1       4.471  -8.134   7.318  0.00  0.00    +0.060 A 
ATOM     11  C   UNL     1       4.449  -7.993   8.781  0.00  0.00    +0.027 A 
ATOM     12  C   UNL     1       5.562  -8.261   9.492  0.00  0.00    +0.002 A 
ATOM     13  C   UNL     1       6.764  -8.676   8.891  0.00  0.00    +0.002 A 
ATOM     14  C   UNL     1       6.893  -8.836   7.559  0.00  0.00    +0.027 A 
ATOM     15  C   UNL     1       5.743  -8.573   6.682  0.00  0.00    +0.060 A 
ATOM     16  N   UNL     1       5.579  -8.642   5.393  0.00  0.00    -0.363 N 
ATOM     17  H   UNL     1       2.655  -7.660   6.540  0.00  0.00    +0.162 HD
ATOM     18  H   UNL     1       6.250  -8.903   4.742  0.00  0.00    +0.162 HD
ENDBRANCH   7   8
ENDBRANCH   6   7
ENDBRANCH   4   6
ENDBRANCH   1   2
BRANCH   1  19
ATOM     19  C   UNL     1       0.055  -3.295   1.485  0.00  0.00    +0.153 C 
BRANCH  19  24
ATOM     20  C   UNL     1      -0.018   1.503   0.010  0.00  0.00    +0.069 C 
ATOM     21  C   UNL     1       0.002  -0.004   0.002  0.00  0.00    +0.087 A 
ATOM     22  C   UNL     1       0.008  -0.818  -1.135  0.00  0.00    +0.148 A 
ATOM     23  C   UNL     1       0.028  -2.107  -0.725  0.00  0.00    +0.063 A 
ATOM     24  N   UNL     1       0.034  -2.109   0.625  0.00  0.00    -0.266 N 
ATOM     25  N   UNL     1       0.023  -0.777   1.058  0.00  0.00    -0.174 NA
ATOM     26  C   UNL     1       0.040  -3.323  -1.615  0.00  0.00    +0.067 C 
BRANCH  22  27
ATOM     27  S   UNL     1      -0.009  -0.263  -2.808  0.00  0.00    +0.064 S 
ATOM     28  O   UNL     1      -0.549  -1.324  -3.583  0.00  0.00    -0.153 OA
ATOM     29  O   UNL     1      -0.578   1.039  -2.797  0.00  0.00    -0.153 OA
BRANCH  27  30
ATOM     30  N   UNL     1       1.569  -0.086  -3.280  0.00  0.00    -0.176 NA
ATOM     31  C   UNL     1       2.373   1.137  -3.143  0.00  0.00    +0.109 C 
ATOM     32  C   UNL     1       3.764   0.840  -3.740  0.00  0.00    +0.018 C 
ATOM     33  C   UNL     1       3.486  -0.353  -4.692  0.00  0.00    +0.018 C 
ATOM     34  C   UNL     1       2.401  -1.131  -3.904  0.00  0.00    +0.109 C 
ENDBRANCH  27  30
ENDBRANCH  22  27
ENDBRANCH  19  24
ENDBRANCH   1  19
TORSDOF 8
