REMARK  Name = ZINC63782980
REMARK  6 active torsions:
REMARK  status: ('A' for Active; 'I' for Inactive)
REMARK    1  A    between atoms: C_6  and  O_11
REMARK    2  A    between atoms: O_11  and  C_12
REMARK    3  A    between atoms: C_12  and  C_13
REMARK    4  A    between atoms: N_15  and  C_16
REMARK    5  A    between atoms: N_15  and  C_27
REMARK    6  A    between atoms: C_16  and  C_17
REMARK                            x       y       z     vdW  Elec       q    Type
REMARK                         _______ _______ _______ _____ _____    ______ ____
ROOT
ATOM      1  C   UNL     1       6.084  -4.748   0.099  0.00  0.00    +0.254 C 
ATOM      2  O   UNL     1       6.957  -3.906   0.063  0.00  0.00    -0.272 OA
ATOM      3  N   UNL     1       6.409  -6.056   0.076  0.00  0.00    -0.291 N 
ENDROOT
BRANCH   3   4
ATOM      4  C   UNL     1       5.355  -7.071   0.003  0.00  0.00    +0.077 C 
ATOM      5  C   UNL     1       5.783  -8.539   0.058  0.00  0.00    +0.024 C 
ATOM      6  C   UNL     1       5.291  -7.934  -1.258  0.00  0.00    +0.024 C 
ENDBRANCH   3   4
BRANCH   1   7
ATOM      7  C   UNL     1       4.638  -4.332   0.167  0.00  0.00    +0.324 C 
BRANCH   7   8
ATOM      8  O   UNL     1       4.556  -2.910   0.292  0.00  0.00    -0.483 OA
BRANCH   8  14
ATOM      9  C   UNL     1      -0.668   0.612   0.716  0.00  0.00    +0.001 A 
ATOM     10  C   UNL     1       0.448   1.446   0.764  0.00  0.00    +0.001 A 
ATOM     11  C   UNL     1       1.707   0.936   0.691  0.00  0.00    +0.008 A 
ATOM     12  C   UNL     1       1.889  -0.453   0.566  0.00  0.00    -0.014 A 
ATOM     13  C   UNL     1       3.174  -1.015   0.488  0.00  0.00    +0.054 A 
ATOM     14  C   UNL     1       3.313  -2.368   0.367  0.00  0.00    +0.122 A 
ATOM     15  C   UNL     1       2.192  -3.203   0.320  0.00  0.00    +0.046 A 
ATOM     16  C   UNL     1       0.934  -2.689   0.392  0.00  0.00    +0.012 A 
ATOM     17  C   UNL     1       0.754  -1.300   0.518  0.00  0.00    -0.018 A 
ATOM     18  C   UNL     1      -0.530  -0.737   0.596  0.00  0.00    +0.008 A 
ENDBRANCH   8  14
ENDBRANCH   7   8
ENDBRANCH   1   7
BRANCH   3  19
ATOM     19  C   UNL     1       7.815  -6.463   0.125  0.00  0.00    +0.143 C 
BRANCH  19  20
ATOM     20  C   UNL     1       8.260  -6.563   1.561  0.00  0.00    -0.030 C 
ATOM     21  C   UNL     1       8.233  -7.771   2.201  0.00  0.00    +0.011 C 
ATOM     22  C   UNL     1       8.725  -7.760   3.519  0.00  0.00    -0.018 C 
ATOM     23  C   UNL     1       8.428  -8.481   4.613  0.00  0.00    +0.025 C 
ATOM     24  C   UNL     1       9.003  -7.867   5.748  0.00  0.00    +0.106 C 
ATOM     25  N   UNL     1       9.758  -6.854   5.428  0.00  0.00    -0.279 NA
ATOM     26  C   UNL     1       9.779  -6.764   3.976  0.00  0.00    +0.158 C 
ATOM     27  C   UNL     1       9.409  -5.425   3.413  0.00  0.00    +0.004 C 
ATOM     28  C   UNL     1       8.724  -5.372   2.266  0.00  0.00    +0.003 C 
ENDBRANCH  19  20
ENDBRANCH   3  19
TORSDOF 6
