REMARK  Name = ZINC13069880
REMARK  9 active torsions:
REMARK  status: ('A' for Active; 'I' for Inactive)
REMARK    1  A    between atoms: C_1  and  C_2
REMARK    2  A    between atoms: C_2  and  C_3
REMARK    3  A    between atoms: C_2  and  C_4
REMARK    4  A    between atoms: C_4  and  C_5
REMARK    5  A    between atoms: C_5  and  C_28
REMARK    6  A    between atoms: N_8  and  C_12
REMARK    7  A    between atoms: C_12  and  C_13
REMARK    8  A    between atoms: C_25  and  C_26
REMARK    9  A    between atoms: C_25  and  C_27
REMARK                            x       y       z     vdW  Elec       q    Type
REMARK                         _______ _______ _______ _____ _____    ______ ____
ROOT
ATOM      1  C   UNL     1       1.371   1.233  -0.737  0.00  0.00    +0.138 C 
ATOM      2  C   UNL     1       2.481   2.259  -0.636  0.00  0.00    +0.251 C 
ATOM      3  O   UNL     1       3.377   2.450  -1.431  0.00  0.00    -0.272 OA
ATOM      4  N   UNL     1       2.267   2.916   0.521  0.00  0.00    -0.215 N 
ATOM      5  C   UNL     1       1.187   2.451   1.159  0.00  0.00    +0.310 C 
ATOM      6  O   UNL     1       0.792   2.885   2.224  0.00  0.00    -0.252 OA
ATOM      7  N   UNL     1       0.586   1.450   0.490  0.00  0.00    -0.281 N 
ATOM      8  H   UNL     1      -0.209   0.966   0.763  0.00  0.00    +0.152 HD
ENDROOT
BRANCH   1   9
ATOM      9  C   UNL     1       0.527   1.482  -1.961  0.00  0.00    -0.015 A 
ATOM     10  C   UNL     1       0.827   0.842  -3.149  0.00  0.00    +0.006 A 
ATOM     11  C   UNL     1       0.050   1.067  -4.270  0.00  0.00    +0.000 A 
ATOM     12  C   UNL     1      -1.020   1.941  -4.206  0.00  0.00    +0.000 A 
ATOM     13  C   UNL     1      -1.316   2.585  -3.019  0.00  0.00    +0.000 A 
ATOM     14  C   UNL     1      -0.542   2.356  -1.897  0.00  0.00    +0.006 A 
ENDBRANCH   1   9
BRANCH   1  15
ATOM     15  C   UNL     1       1.948  -0.184  -0.763  0.00  0.00    +0.043 C 
BRANCH  15  17
ATOM     16  C   UNL     1       2.977  -1.975   0.643  0.00  0.00    +0.007 C 
ATOM     17  C   UNL     1       2.606  -0.491   0.583  0.00  0.00    -0.014 C 
ATOM     18  C   UNL     1       3.870   0.357   0.738  0.00  0.00    +0.007 C 
ENDBRANCH  15  17
ENDBRANCH   1  15
BRANCH   4  19
ATOM     19  C   UNL     1       3.113   4.003   1.020  0.00  0.00    +0.214 C 
BRANCH  19  20
ATOM     20  C   UNL     1       2.593   5.320   0.505  0.00  0.00    +0.239 C 
ATOM     21  O   UNL     1       1.502   5.378  -0.022  0.00  0.00    -0.273 OA
ATOM     22  N   UNL     1       3.341   6.435   0.630  0.00  0.00    -0.254 N 
ATOM     23  C   UNL     1       4.628   6.385   1.187  0.00  0.00    +0.059 A 
ATOM     24  C   UNL     1       4.960   5.434   2.135  0.00  0.00    +0.025 A 
ATOM     25  C   UNL     1       6.236   5.413   2.669  0.00  0.00    +0.002 A 
ATOM     26  C   UNL     1       7.177   6.340   2.258  0.00  0.00    +0.002 A 
ATOM     27  C   UNL     1       6.854   7.293   1.298  0.00  0.00    +0.025 A 
ATOM     28  C   UNL     1       5.577   7.320   0.761  0.00  0.00    +0.055 A 
ATOM     29  N   UNL     1       5.225   8.274  -0.199  0.00  0.00    -0.282 N 
ATOM     30  C   UNL     1       3.934   8.488  -0.516  0.00  0.00    +0.241 C 
ATOM     31  O   UNL     1       3.654   9.289  -1.383  0.00  0.00    -0.273 OA
ATOM     32  C   UNL     1       2.831   7.743   0.193  0.00  0.00    +0.113 C 
ATOM     33  C   UNL     1       1.654   7.541  -0.763  0.00  0.00    +0.042 C 
ATOM     34  C   UNL     1       2.372   8.547   1.411  0.00  0.00    +0.042 C 
ATOM     35  H   UNL     1       5.918   8.788  -0.642  0.00  0.00    +0.155 HD
ENDBRANCH  19  20
ENDBRANCH   4  19
TORSDOF 5
