REMARK  Name = ZINC07644174
REMARK  4 active torsions:
REMARK  status: ('A' for Active; 'I' for Inactive)
REMARK    1  A    between atoms: C_1  and  C_2
REMARK    2  A    between atoms: N_10  and  C_14
REMARK    3  A    between atoms: C_14  and  C_15
REMARK    4  A    between atoms: C_18  and  C_20
REMARK                            x       y       z     vdW  Elec       q    Type
REMARK                         _______ _______ _______ _____ _____    ______ ____
ROOT
ATOM      1  C   UNL     1      -7.132   9.612   5.504  0.00  0.00    +0.007 C 
ATOM      2  C   UNL     1      -5.622   9.540   5.268  0.00  0.00    -0.014 C 
ATOM      3  C   UNL     1      -5.227   8.101   4.927  0.00  0.00    +0.006 C 
ATOM      4  C   UNL     1      -3.715   8.028   4.702  0.00  0.00    +0.035 C 
ATOM      5  C   UNL     1      -3.321   8.964   3.565  0.00  0.00    +0.113 C 
ATOM      6  C   UNL     1      -3.730  10.399   3.880  0.00  0.00    +0.035 C 
ATOM      7  C   UNL     1      -5.243  10.462   4.108  0.00  0.00    +0.006 C 
ATOM      8  C   UNL     1      -3.946   8.515   2.265  0.00  0.00    +0.247 C 
ATOM      9  O   UNL     1      -5.129   8.426   2.011  0.00  0.00    -0.273 OA
ATOM     10  N   UNL     1      -2.912   8.232   1.446  0.00  0.00    -0.218 N 
ATOM     11  C   UNL     1      -1.735   8.448   2.046  0.00  0.00    +0.310 C 
ATOM     12  O   UNL     1      -0.660   8.268   1.509  0.00  0.00    -0.252 OA
ATOM     13  N   UNL     1      -1.876   8.886   3.312  0.00  0.00    -0.285 N 
ATOM     14  H   UNL     1      -1.165   9.106   3.933  0.00  0.00    +0.151 HD
ENDROOT
BRANCH  10  15
ATOM     15  C   UNL     1      -3.059   7.754   0.069  0.00  0.00    +0.173 C 
BRANCH  15  16
ATOM     16  C   UNL     1      -3.101   6.247   0.063  0.00  0.00    +0.067 A 
ATOM     17  C   UNL     1      -4.295   5.601   0.071  0.00  0.00    +0.072 A 
ATOM     18  S   UNL     1      -3.749   3.898   0.049  0.00  0.00    -0.075 S 
ATOM     19  C   UNL     1      -1.992   4.232   0.042  0.00  0.00    +0.109 A 
ATOM     20  N   UNL     1      -1.982   5.558   0.049  0.00  0.00    -0.242 NA
BRANCH  19  21
ATOM     21  C   UNL     1      -0.858   3.285   0.026  0.00  0.00    +0.014 A 
ATOM     22  C   UNL     1      -1.076   1.909   0.017  0.00  0.00    +0.018 A 
ATOM     23  C   UNL     1      -0.013   1.076   0.008  0.00  0.00    +0.046 A 
ATOM     24  S   UNL     1       1.362   2.214   0.001  0.00  0.00    -0.104 S 
ATOM     25  C   UNL     1       0.434   3.739   0.017  0.00  0.00    +0.055 A 
ENDBRANCH  19  21
ENDBRANCH  15  16
ENDBRANCH  10  15
TORSDOF 3
