REMARK  Name = ZINC13980510
REMARK  11 active torsions:
REMARK  status: ('A' for Active; 'I' for Inactive)
REMARK    1  A    between atoms: C_1  and  C_2
REMARK    2  A    between atoms: C_2  and  C_3
REMARK    3  A    between atoms: C_3  and  C_5
REMARK    4  A    between atoms: C_3  and  C_6
REMARK    5  A    between atoms: C_11  and  O_12
REMARK    6  A    between atoms: O_12  and  C_13
REMARK    7  A    between atoms: C_13  and  C_14
REMARK    8  A    between atoms: N_16  and  N_17
REMARK    9  A    between atoms: N_17  and  C_18
REMARK   10  A    between atoms: C_18  and  N_20
REMARK   11  A    between atoms: C_21  and  C_23
REMARK                            x       y       z     vdW  Elec       q    Type
REMARK                         _______ _______ _______ _____ _____    ______ ____
ROOT
ATOM      1  C   UNL     1      -0.018   1.503   0.010  0.00  0.00    +0.267 C 
ATOM      2  O   UNL     1       1.024   2.123   0.004  0.00  0.00    -0.271 OA
ATOM      3  N   UNL     1      -1.195   2.161   0.019  0.00  0.00    -0.232 N 
ATOM      4  H   UNL     1      -2.028   1.664   0.021  0.00  0.00    +0.173 HD
ENDROOT
BRANCH   3   5
ATOM      5  N   UNL     1      -1.214   3.562   0.027  0.00  0.00    -0.245 N 
ATOM      6  H   UNL     1      -0.380   4.058   0.026  0.00  0.00    +0.172 HD
BRANCH   5   7
ATOM      7  C   UNL     1      -2.390   4.220   0.036  0.00  0.00    +0.153 C 
ATOM      8  S   UNL     1      -2.413   5.931   0.046  0.00  0.00    -0.017 S 
BRANCH   7   9
ATOM      9  N   UNL     1      -3.548   3.530   0.038  0.00  0.00    -0.263 N 
ATOM     10  C   UNL     1      -4.724   4.188   0.047  0.00  0.00    +0.251 C 
ATOM     11  O   UNL     1      -4.740   5.403   0.054  0.00  0.00    -0.270 OA
ATOM     12  H   UNL     1      -3.535   2.560   0.033  0.00  0.00    +0.157 HD
BRANCH  10  13
ATOM     13  C   UNL     1      -5.993   3.432   0.049  0.00  0.00    +0.050 A 
ATOM     14  C   UNL     1      -5.978   2.035   0.036  0.00  0.00    +0.014 A 
ATOM     15  C   UNL     1      -7.167   1.336   0.042  0.00  0.00    +0.001 A 
ATOM     16  C   UNL     1      -8.373   2.014   0.052  0.00  0.00    +0.001 A 
ATOM     17  C   UNL     1      -8.396   3.397   0.060  0.00  0.00    +0.015 A 
ATOM     18  C   UNL     1      -7.214   4.110   0.059  0.00  0.00    +0.025 A 
ATOM     19  I   UNL     1      -7.251   6.205   0.070  0.00  0.00    -0.043 I 
ENDBRANCH  10  13
ENDBRANCH   7   9
ENDBRANCH   5   7
ENDBRANCH   3   5
BRANCH   1  20
ATOM     20  C   UNL     1       0.002  -0.004   0.002  0.00  0.00    +0.326 C 
BRANCH  20  21
ATOM     21  O   UNL     1       1.356  -0.462  -0.013  0.00  0.00    -0.482 OA
BRANCH  21  27
ATOM     22  C   UNL     1       2.840  -2.321  -0.043  0.00  0.00    -0.003 A 
ATOM     23  C   UNL     1       3.037  -3.688  -0.048  0.00  0.00    +0.007 A 
ATOM     24  C   UNL     1       1.952  -4.544  -0.041  0.00  0.00    +0.001 A 
ATOM     25  C   UNL     1       0.666  -4.034  -0.026  0.00  0.00    +0.004 A 
ATOM     26  C   UNL     1       0.464  -2.668  -0.017  0.00  0.00    +0.046 A 
ATOM     27  C   UNL     1       1.552  -1.807  -0.022  0.00  0.00    +0.125 A 
BRANCH  22  28
ATOM     28  C   UNL     1       4.024  -1.388  -0.056  0.00  0.00    +0.019 C 
ATOM     29  C   UNL     1       4.853  -1.633  -1.318  0.00  0.00    +0.012 C 
BRANCH  28  31
ATOM     30  C   UNL     1       6.021  -0.617   1.233  0.00  0.00    +0.004 C 
ATOM     31  C   UNL     1       4.889  -1.645   1.180  0.00  0.00    +0.004 C 
ENDBRANCH  28  31
ENDBRANCH  22  28
ENDBRANCH  21  27
ENDBRANCH  20  21
ENDBRANCH   1  20
TORSDOF 9
