REMARK  Name = ZINC21235730
REMARK  10 active torsions:
REMARK  status: ('A' for Active; 'I' for Inactive)
REMARK    1  A    between atoms: C_1  and  C_2
REMARK    2  A    between atoms: C_2  and  N_3
REMARK    3  A    between atoms: N_3  and  C_4
REMARK    4  A    between atoms: N_3  and  C_6
REMARK    5  A    between atoms: C_4  and  C_5
REMARK    6  A    between atoms: C_9  and  C_12
REMARK    7  A    between atoms: C_17  and  C_22
REMARK    8  A    between atoms: C_25  and  O_28
REMARK    9  A    between atoms: O_28  and  C_29
REMARK   10  A    between atoms: C_29  and  C_30
REMARK                            x       y       z     vdW  Elec       q    Type
REMARK                         _______ _______ _______ _____ _____    ______ ____
ROOT
ATOM      1  C   UNL     1      -0.773  -4.231   0.082  0.00  0.00    +0.136 C 
ATOM      2  C   UNL     1      -0.746  -2.732  -0.097  0.00  0.00    +0.036 C 
ATOM      3  C   UNL     1      -0.750  -2.078  -1.272  0.00  0.00    +0.017 C 
ATOM      4  C   UNL     1      -0.734  -0.559  -1.309  0.00  0.00    +0.059 C 
ATOM      5  C   UNL     1       0.042  -0.015  -0.111  0.00  0.00    +0.032 C 
ATOM      6  C   UNL     1      -0.655  -0.513   1.161  0.00  0.00    +0.088 C 
ATOM      7  C   UNL     1      -0.710  -2.010   1.119  0.00  0.00    +0.163 C 
ATOM      8  O   UNL     1      -0.725  -2.626   2.167  0.00  0.00    -0.292 OA
ATOM      9  N   UNL     1      -0.785  -2.678  -2.489  0.00  0.00    -0.316 N 
ATOM     10  C   UNL     1       0.008  -3.754  -2.870  0.00  0.00    +0.052 A 
ATOM     11  C   UNL     1       0.917  -3.671  -3.909  0.00  0.00    +0.025 A 
ATOM     12  C   UNL     1       1.591  -4.812  -4.314  0.00  0.00    +0.002 A 
ATOM     13  C   UNL     1       1.357  -6.020  -3.684  0.00  0.00    +0.002 A 
ATOM     14  C   UNL     1       0.465  -6.100  -2.629  0.00  0.00    +0.025 A 
ATOM     15  C   UNL     1      -0.197  -4.957  -2.210  0.00  0.00    +0.049 A 
ATOM     16  N   UNL     1      -1.069  -4.976  -1.123  0.00  0.00    -0.331 N 
ATOM     17  H   UNL     1      -1.479  -2.315  -3.261  0.00  0.00    +0.152 HD
ATOM     18  H   UNL     1      -1.993  -5.570  -1.189  0.00  0.00    +0.147 HD
ENDROOT
BRANCH   1  22
ATOM     19  C   UNL     1       3.040  -5.487   1.548  0.00  0.00    +0.030 A 
ATOM     20  C   UNL     1       1.902  -5.667   2.325  0.00  0.00    +0.023 A 
ATOM     21  C   UNL     1       0.672  -5.260   1.848  0.00  0.00    +0.007 A 
ATOM     22  C   UNL     1       0.572  -4.674   0.599  0.00  0.00    -0.023 A 
ATOM     23  C   UNL     1       1.702  -4.499  -0.178  0.00  0.00    +0.007 A 
ATOM     24  C   UNL     1       2.936  -4.899   0.294  0.00  0.00    +0.023 A 
BRANCH  19  25
ATOM     25  N   UNL     1       4.286  -5.898   2.028  0.00  0.00    -0.330 N 
BRANCH  25  27
ATOM     26  C   UNL     1       6.103  -4.342   1.515  0.00  0.00    +0.024 C 
ATOM     27  C   UNL     1       5.485  -5.708   1.208  0.00  0.00    +0.102 C 
ENDBRANCH  25  27
BRANCH  25  28
ATOM     28  C   UNL     1       4.394  -6.518   3.351  0.00  0.00    +0.102 C 
ATOM     29  C   UNL     1       4.232  -8.033   3.218  0.00  0.00    +0.024 C 
ENDBRANCH  25  28
ENDBRANCH  19  25
ENDBRANCH   1  22
BRANCH   5  30
ATOM     30  C   UNL     1       0.036   1.492  -0.141  0.00  0.00    -0.043 A 
ATOM     31  C   UNL     1      -1.165   2.177  -0.138  0.00  0.00    +0.007 A 
ATOM     32  C   UNL     1      -1.173   3.558  -0.160  0.00  0.00    +0.046 A 
ATOM     33  C   UNL     1       0.025   4.257  -0.194  0.00  0.00    +0.121 A 
ATOM     34  C   UNL     1       1.228   3.567  -0.202  0.00  0.00    +0.046 A 
ATOM     35  C   UNL     1       1.231   2.186  -0.176  0.00  0.00    +0.007 A 
BRANCH  33  36
ATOM     36  O   UNL     1       0.020   5.616  -0.221  0.00  0.00    -0.492 OA
BRANCH  36  37
ATOM     37  C   UNL     1      -1.256   6.260  -0.211  0.00  0.00    +0.225 C 
ATOM     38  C   UNL     1      -1.061   7.777  -0.244  0.00  0.00    +0.048 C 
ENDBRANCH  36  37
ENDBRANCH  33  36
ENDBRANCH   5  30
TORSDOF 7
