REMARK  Name = ZINC44464493
REMARK  5 active torsions:
REMARK  status: ('A' for Active; 'I' for Inactive)
REMARK    1  A    between atoms: C_9  and  C_12
REMARK    2  A    between atoms: C_12  and  CA_13
REMARK    3  A    between atoms: CA_13  and  C_15
REMARK    4  A    between atoms: CA_13  and  N_17
REMARK    5  A    between atoms: C_15  and  O_16
REMARK                            x       y       z     vdW  Elec       q    Type
REMARK                         _______ _______ _______ _____ _____    ______ ____
ROOT
ATOM      1  C   UNL     1      -0.017   1.389   0.010  0.00  0.00    +0.030 A 
ATOM      2  C   UNL     1       1.173   2.086   0.002  0.00  0.00    +0.020 A 
ATOM      3  C   UNL     1       2.382   1.405  -0.014  0.00  0.00    +0.034 A 
ATOM      4  C   UNL     1       2.414   0.025  -0.021  0.00  0.00    +0.062 A 
ATOM      5  C   UNL     1       1.225  -0.695  -0.013  0.00  0.00    +0.152 A 
ATOM      6  C   UNL     1       0.002  -0.004   0.002  0.00  0.00    +0.066 A 
ATOM      7  C   UNL     1      -1.246  -0.792   0.010  0.00  0.00    +0.196 A 
ATOM      8  O   UNL     1      -2.338  -0.251   0.023  0.00  0.00    -0.287 OA
ATOM      9  C   UNL     1      -1.120  -2.206   0.002  0.00  0.00    +0.033 A 
ATOM     10  C   UNL     1       0.104  -2.765  -0.013  0.00  0.00    +0.203 A 
ATOM     11  O   UNL     1       1.230  -2.044  -0.021  0.00  0.00    -0.461 OA
ATOM     12 BR   UNL     1       4.072  -0.884  -0.043  0.00  0.00    -0.046 Br
ATOM     13 BR   UNL     1       1.158   3.976   0.012  0.00  0.00    -0.050 Br
ENDROOT
BRANCH   9  14
ATOM     14  C   UNL     1      -2.351  -3.076   0.010  0.00  0.00    +0.028 C 
BRANCH  14  15
ATOM     15  CA  UNL     1      -2.825  -3.276   1.451  0.00  0.00    -0.045 C 
BRANCH  15  16
ATOM     16  N   UNL     1      -3.258  -1.986   2.006  0.00  0.00    +0.382 N 
ATOM     17  H1  UNL     1      -3.571  -2.118   2.957  0.00  0.00    -0.090 HD
ATOM     18  H2  UNL     1      -2.484  -1.338   1.993  0.00  0.00    -0.090 HD
ATOM     19  H3  UNL     1      -4.015  -1.618   1.451  0.00  0.00    -0.090 HD
ENDBRANCH  15  16
BRANCH  15  20
ATOM     20  C   UNL     1      -3.998  -4.258   1.470  0.00  0.00    +0.140 C 
BRANCH  20  21
ATOM     21  O   UNL     1      -4.365  -4.534   2.823  0.00  0.00    -0.397 OA
ATOM     22  H   UNL     1      -5.104  -5.152   2.912  0.00  0.00    +0.209 HD
ENDBRANCH  20  21
ENDBRANCH  15  20
ENDBRANCH  14  15
ENDBRANCH   9  14
TORSDOF 5
