REMARK  Name = ZINC59490211
REMARK  8 active torsions:
REMARK  status: ('A' for Active; 'I' for Inactive)
REMARK    1  A    between atoms: C_3  and  C_34
REMARK    2  A    between atoms: C_6  and  C_7
REMARK    3  A    between atoms: N_8  and  N_9
REMARK    4  A    between atoms: C_10  and  C_12
REMARK    5  A    between atoms: C_12  and  N_13
REMARK    6  A    between atoms: N_13  and  C_14
REMARK    7  A    between atoms: N_13  and  S_21
REMARK    8  A    between atoms: S_21  and  C_24
REMARK                            x       y       z     vdW  Elec       q    Type
REMARK                         _______ _______ _______ _____ _____    ______ ____
ROOT
ATOM      1  N   UNL     1      -3.402  -6.291  -0.031  0.00  0.00    -0.194 N 
ENDROOT
BRANCH   1   2
ATOM      2  C   UNL     1      -3.299  -6.826   1.257  0.00  0.00    +0.052 A 
ATOM      3  C   UNL     1      -2.797  -8.108   1.440  0.00  0.00    +0.027 A 
ATOM      4  C   UNL     1      -2.696  -8.634   2.713  0.00  0.00    +0.040 A 
ATOM      5  C   UNL     1      -3.095  -7.884   3.806  0.00  0.00    +0.124 A 
ATOM      6  C   UNL     1      -3.595  -6.606   3.627  0.00  0.00    +0.040 A 
ATOM      7  C   UNL     1      -3.693  -6.074   2.356  0.00  0.00    +0.027 A 
ATOM      8  F   UNL     1      -2.996  -8.401   5.051  0.00  0.00    -0.205 F 
ENDBRANCH   1   2
BRANCH   1   9
ATOM      9  S   UNL     1      -4.488  -6.927  -1.107  0.00  0.00    +0.075 S 
ATOM     10  O   UNL     1      -5.423  -7.677  -0.345  0.00  0.00    -0.150 OA
ATOM     11  O   UNL     1      -4.881  -5.863  -1.964  0.00  0.00    -0.150 OA
BRANCH   9  12
ATOM     12  C   UNL     1      -3.613  -8.083  -2.109  0.00  0.00    +0.112 A 
ATOM     13  C   UNL     1      -2.889  -7.641  -3.201  0.00  0.00    +0.032 A 
ATOM     14  C   UNL     1      -2.202  -8.544  -3.989  0.00  0.00    +0.051 A 
ATOM     15  C   UNL     1      -2.237  -9.897  -3.687  0.00  0.00    +0.162 A 
ATOM     16  C   UNL     1      -2.962 -10.341  -2.588  0.00  0.00    +0.164 A 
ATOM     17  C   UNL     1      -3.647  -9.429  -1.798  0.00  0.00    +0.078 A 
ATOM     18  O   UNL     1      -3.003 -11.664  -2.268  0.00  0.00    -0.485 OA
ATOM     19  C   UNL     1      -2.609 -12.585  -3.291  0.00  0.00    +0.270 C 
ATOM     20  C   UNL     1      -1.308 -12.073  -3.924  0.00  0.00    +0.270 C 
ATOM     21  O   UNL     1      -1.558 -10.776  -4.475  0.00  0.00    -0.485 OA
ENDBRANCH   9  12
ENDBRANCH   1   9
BRANCH   1  22
ATOM     22  C   UNL     1      -2.548  -5.168  -0.428  0.00  0.00    +0.228 C 
BRANCH  22  24
ATOM     23  N   UNL     1      -0.268  -4.835  -1.326  0.00  0.00    -0.206 N 
ATOM     24  C   UNL     1      -1.220  -5.693  -0.908  0.00  0.00    +0.251 C 
ATOM     25  O   UNL     1      -1.006  -6.887  -0.917  0.00  0.00    -0.272 OA
ATOM     26  H   UNL     1      -0.439  -3.880  -1.319  0.00  0.00    +0.177 HD
BRANCH  23  28
ATOM     27  C   UNL     1       1.884  -4.495  -2.176  0.00  0.00    +0.138 C 
ATOM     28  N   UNL     1       0.967  -5.322  -1.772  0.00  0.00    -0.188 NA
BRANCH  27  34
ATOM     29  C   UNL     1       4.170  -4.117  -3.079  0.00  0.00    +0.010 A 
ATOM     30  C   UNL     1       5.375  -4.592  -3.514  0.00  0.00    +0.016 A 
ATOM     31  C   UNL     1       5.621  -5.969  -3.525  0.00  0.00    +0.063 A 
ATOM     32  C   UNL     1       4.633  -6.860  -3.090  0.00  0.00    +0.016 A 
ATOM     33  C   UNL     1       3.429  -6.385  -2.655  0.00  0.00    +0.010 A 
ATOM     34  C   UNL     1       3.183  -5.008  -2.645  0.00  0.00    -0.005 A 
BRANCH  31  35
ATOM     35  C   UNL     1       6.920  -6.482  -3.995  0.00  0.00    +0.387 C 
ATOM     36  O   UNL     1       7.783  -5.703  -4.375  0.00  0.00    -0.241 OA
ATOM     37  O   UNL     1       7.135  -7.686  -4.004  0.00  0.00    -0.241 OA
ENDBRANCH  31  35
ENDBRANCH  27  34
ENDBRANCH  23  28
ENDBRANCH  22  24
ENDBRANCH   1  22
TORSDOF 8
