REMARK  Name = ZINC36545070
REMARK  11 active torsions:
REMARK  status: ('A' for Active; 'I' for Inactive)
REMARK    1  A    between atoms: C_1  and  C_2
REMARK    2  A    between atoms: C_3  and  C_4
REMARK    3  A    between atoms: C_4  and  C_6
REMARK    4  A    between atoms: C_4  and  N_20
REMARK    5  A    between atoms: N_8  and  C_9
REMARK    6  A    between atoms: C_9  and  S_10
REMARK    7  A    between atoms: S_10  and  C_13
REMARK    8  A    between atoms: C_16  and  C_19
REMARK    9  A    between atoms: N_20  and  C_21
REMARK   10  A    between atoms: C_28  and  C_30
REMARK   11  A    between atoms: C_33  and  O_36
REMARK                            x       y       z     vdW  Elec       q    Type
REMARK                         _______ _______ _______ _____ _____    ______ ____
ROOT
ATOM      1  C   UNL     1       1.209   0.471  -1.549  0.00  0.00    +0.190 C 
ENDROOT
BRANCH   1   2
ATOM      2  C   UNL     1       0.517  -0.326  -2.624  0.00  0.00    +0.239 C 
ATOM      3  O   UNL     1      -0.153   0.240  -3.462  0.00  0.00    -0.273 OA
ATOM      4  N   UNL     1       0.643  -1.668  -2.655  0.00  0.00    -0.294 N 
ATOM      5  H   UNL     1       1.179  -2.120  -1.985  0.00  0.00    +0.150 HD
BRANCH   4   6
ATOM      6  C   UNL     1      -0.029  -2.442  -3.701  0.00  0.00    +0.278 C 
BRANCH   6   7
ATOM      7  S   UNL     1       1.122  -2.736  -5.071  0.00  0.00    +0.013 S 
ATOM      8  O   UNL     1       0.504  -3.541  -6.066  0.00  0.00    -0.168 OA
ATOM      9  O   UNL     1       1.782  -1.528  -5.424  0.00  0.00    -0.168 OA
BRANCH   7  10
ATOM     10  C   UNL     1       2.387  -3.757  -4.389  0.00  0.00    +0.090 A 
ATOM     11  C   UNL     1       3.499  -3.181  -3.805  0.00  0.00    +0.027 A 
ATOM     12  C   UNL     1       4.491  -3.981  -3.270  0.00  0.00    +0.005 A 
ATOM     13  C   UNL     1       4.370  -5.357  -3.319  0.00  0.00    -0.050 A 
ATOM     14  C   UNL     1       3.257  -5.933  -3.902  0.00  0.00    +0.005 A 
ATOM     15  C   UNL     1       2.263  -5.133  -4.433  0.00  0.00    +0.027 A 
ATOM     16  C   UNL     1       5.452  -6.230  -2.736  0.00  0.00    +0.044 C 
ENDBRANCH   7  10
ENDBRANCH   6   7
ENDBRANCH   4   6
ENDBRANCH   1   2
BRANCH   1  19
ATOM     17  C   UNL     1       2.639  -0.561   0.651  0.00  0.00    +0.035 C 
ATOM     18  C   UNL     1       1.163  -0.282   0.773  0.00  0.00    -0.032 C 
ATOM     19  C   UNL     1       0.512   0.249  -0.232  0.00  0.00    +0.000 C 
ENDBRANCH   1  19
BRANCH   1  20
ATOM     20  N   UNL     1       1.164   1.895  -1.891  0.00  0.00    -0.251 N 
ATOM     21  C   UNL     1      -0.023   2.519  -2.022  0.00  0.00    +0.252 C 
ATOM     22  O   UNL     1      -1.053   1.927  -1.765  0.00  0.00    -0.270 OA
BRANCH  20  23
ATOM     23  C   UNL     1       2.354   2.606  -2.082  0.00  0.00    +0.056 A 
ATOM     24  C   UNL     1       2.857   3.407  -1.065  0.00  0.00    +0.025 A 
ATOM     25  C   UNL     1       4.031   4.108  -1.257  0.00  0.00    +0.002 A 
ATOM     26  C   UNL     1       4.707   4.014  -2.460  0.00  0.00    +0.002 A 
ATOM     27  C   UNL     1       4.210   3.217  -3.475  0.00  0.00    +0.022 A 
ATOM     28  C   UNL     1       3.038   2.508  -3.288  0.00  0.00    +0.062 A 
ATOM     29 CL   UNL     1       2.418   1.503  -4.560  0.00  0.00    -0.082 Cl
ENDBRANCH  20  23
BRANCH  21  30
ATOM     30  C   UNL     1      -0.072   3.922  -2.477  0.00  0.00    +0.037 A 
ATOM     31  C   UNL     1      -0.908   4.839  -1.833  0.00  0.00    +0.016 A 
ATOM     32  C   UNL     1      -0.951   6.147  -2.261  0.00  0.00    +0.046 A 
ATOM     33  C   UNL     1      -0.164   6.556  -3.331  0.00  0.00    +0.117 A 
ATOM     34  C   UNL     1       0.668   5.648  -3.975  0.00  0.00    +0.046 A 
ATOM     35  C   UNL     1       0.721   4.339  -3.550  0.00  0.00    +0.016 A 
BRANCH  33  36
ATOM     36  O   UNL     1      -0.209   7.847  -3.750  0.00  0.00    -0.507 OA
ATOM     37  H   UNL     1       0.431   8.425  -3.313  0.00  0.00    +0.292 HD
ENDBRANCH  33  36
ENDBRANCH  21  30
ENDBRANCH   1  20
TORSDOF 9
