REMARK  Name = ZINC14645821
REMARK  12 active torsions:
REMARK  status: ('A' for Active; 'I' for Inactive)
REMARK    1  A    between atoms: C_1  and  C_2
REMARK    2  A    between atoms: C_2  and  C_3
REMARK    3  A    between atoms: C_2  and  C_4
REMARK    4  A    between atoms: C_4  and  C_5
REMARK    5  A    between atoms: C_5  and  O_6
REMARK    6  A    between atoms: O_6  and  C_7
REMARK    7  A    between atoms: C_10  and  C_14
REMARK    8  A    between atoms: N_16  and  C_17
REMARK    9  A    between atoms: C_17  and  N_19
REMARK   10  A    between atoms: N_19  and  C_20
REMARK   11  A    between atoms: C_23  and  N_27
REMARK   12  A    between atoms: C_25  and  O_26
REMARK                            x       y       z     vdW  Elec       q    Type
REMARK                         _______ _______ _______ _____ _____    ______ ____
ROOT
ATOM      1  C   UNL     1      -2.528   3.765   0.522  0.00  0.00    +0.250 C 
ATOM      2  O   UNL     1      -2.533   4.956   0.765  0.00  0.00    -0.270 OA
ATOM      3  N   UNL     1      -3.687   3.121   0.284  0.00  0.00    -0.264 N 
ATOM      4  H   UNL     1      -3.683   2.170   0.090  0.00  0.00    +0.157 HD
ENDROOT
BRANCH   1   8
ATOM      5  C   UNL     1       1.144   1.633   0.423  0.00  0.00    +0.134 A 
ATOM      6  C   UNL     1      -0.051   0.968   0.177  0.00  0.00    +0.047 A 
ATOM      7  C   UNL     1      -1.244   1.656   0.202  0.00  0.00    +0.017 A 
ATOM      8  C   UNL     1      -1.252   3.025   0.487  0.00  0.00    +0.038 A 
ATOM      9  C   UNL     1      -0.049   3.691   0.734  0.00  0.00    +0.032 A 
ATOM     10  C   UNL     1       1.141   2.996   0.701  0.00  0.00    +0.060 A 
ATOM     11 BR   UNL     1       2.770   3.896   1.035  0.00  0.00    -0.046 Br
BRANCH   5  12
ATOM     12  O   UNL     1       2.317   0.952   0.391  0.00  0.00    -0.491 OA
BRANCH  12  13
ATOM     13  C   UNL     1       2.248  -0.445   0.098  0.00  0.00    +0.229 C 
BRANCH  13  14
ATOM     14  C   UNL     1       3.658  -1.038   0.106  0.00  0.00    +0.044 C 
BRANCH  14  16
ATOM     15  C   UNL     1       3.070  -2.732  -1.634  0.00  0.00    +0.007 C 
ATOM     16  C   UNL     1       3.584  -2.534  -0.207  0.00  0.00    -0.014 C 
ATOM     17  C   UNL     1       4.978  -3.152  -0.077  0.00  0.00    +0.007 C 
ENDBRANCH  14  16
ENDBRANCH  13  14
ENDBRANCH  12  13
ENDBRANCH   5  12
ENDBRANCH   1   8
BRANCH   3  18
ATOM     18  C   UNL     1      -4.853   3.797   0.315  0.00  0.00    +0.141 C 
ATOM     19  S   UNL     1      -4.860   5.474   0.658  0.00  0.00    -0.018 S 
BRANCH  18  20
ATOM     20  N   UNL     1      -6.013   3.153   0.077  0.00  0.00    -0.294 N 
ATOM     21  H   UNL     1      -6.004   2.217  -0.178  0.00  0.00    +0.154 HD
BRANCH  20  22
ATOM     22  C   UNL     1      -7.230   3.834   0.199  0.00  0.00    +0.075 A 
ATOM     23  C   UNL     1      -7.389   5.084  -0.383  0.00  0.00    +0.029 A 
ATOM     24  C   UNL     1      -8.591   5.754  -0.262  0.00  0.00    +0.035 A 
ATOM     25  C   UNL     1      -9.638   5.183   0.438  0.00  0.00    +0.130 A 
ATOM     26  C   UNL     1      -9.487   3.938   1.021  0.00  0.00    +0.080 A 
ATOM     27  C   UNL     1      -8.287   3.257   0.899  0.00  0.00    +0.140 A 
BRANCH  25  28
ATOM     28  N   UNL     1     -10.924   5.906   0.564  0.00  0.00    +0.057 N 
ATOM     29  O   UNL     1     -11.059   7.002   0.051  0.00  0.00    -0.126 OA
ATOM     30  O   UNL     1     -11.847   5.404   1.180  0.00  0.00    -0.126 OA
ENDBRANCH  25  28
BRANCH  27  31
ATOM     31  O   UNL     1      -8.139   2.030   1.467  0.00  0.00    -0.505 OA
ATOM     32  H   UNL     1      -7.809   2.054   2.376  0.00  0.00    +0.292 HD
ENDBRANCH  27  31
ENDBRANCH  20  22
ENDBRANCH  18  20
ENDBRANCH   3  18
TORSDOF 10
