REMARK  Name = ZINC03381128
REMARK  12 active torsions:
REMARK  status: ('A' for Active; 'I' for Inactive)
REMARK    1  A    between atoms: C_1  and  C_2
REMARK    2  A    between atoms: C_2  and  C_3
REMARK    3  A    between atoms: C_4  and  C_31
REMARK    4  A    between atoms: N_10  and  C_30
REMARK    5  A    between atoms: C_11  and  S_13
REMARK    6  A    between atoms: S_13  and  C_14
REMARK    7  A    between atoms: C_14  and  C_15
REMARK    8  A    between atoms: N_17  and  C_18
REMARK    9  A    between atoms: C_18  and  C_19
REMARK   10  A    between atoms: C_19  and  C_20
REMARK   11  A    between atoms: C_23  and  S_26
REMARK   12  A    between atoms: S_26  and  N_29
REMARK                            x       y       z     vdW  Elec       q    Type
REMARK                         _______ _______ _______ _____ _____    ______ ____
ROOT
ATOM      1  C   UNL     1       0.585  -0.664  -1.018  0.00  0.00    +0.223 C 
ATOM      2  O   UNL     1       1.093  -0.046  -1.929  0.00  0.00    -0.275 OA
ATOM      3  N   UNL     1       0.002  -0.004   0.002  0.00  0.00    -0.314 N 
ATOM      4  H   UNL     1      -0.404  -0.499   0.731  0.00  0.00    +0.149 HD
ENDROOT
BRANCH   1   5
ATOM      5  C   UNL     1       0.606  -2.171  -1.026  0.00  0.00    +0.173 C 
BRANCH   5   6
ATOM      6  S   UNL     1       1.453  -2.755  -2.515  0.00  0.00    -0.078 S 
BRANCH   6  15
ATOM      7  C   UNL     1       0.948  -8.602  -1.510  0.00  0.00    -0.023 A 
ATOM      8  C   UNL     1       0.305  -8.881  -0.366  0.00  0.00    -0.007 A 
ATOM      9  S   UNL     1      -0.085  -7.271   0.292  0.00  0.00    -0.073 S 
ATOM     10  C   UNL     1       0.628  -6.269  -0.988  0.00  0.00    +0.117 A 
ATOM     11  C   UNL     1       1.148  -7.215  -1.891  0.00  0.00    +0.076 A 
ATOM     12  C   UNL     1       1.796  -6.679  -3.049  0.00  0.00    +0.263 A 
ATOM     13  O   UNL     1       2.278  -7.422  -3.886  0.00  0.00    -0.267 OA
ATOM     14  N   UNL     1       1.867  -5.343  -3.200  0.00  0.00    -0.290 N 
ATOM     15  C   UNL     1       1.334  -4.496  -2.272  0.00  0.00    +0.173 A 
ATOM     16  N   UNL     1       0.736  -4.963  -1.195  0.00  0.00    -0.216 NA
ATOM     17  C   UNL     1       2.529  -4.789  -4.384  0.00  0.00    +0.154 C 
ATOM     18  C   UNL     1      -0.012 -10.232   0.222  0.00  0.00    +0.052 C 
BRANCH   7  20
ATOM     19  C   UNL     1       2.885 -10.079  -1.976  0.00  0.00    +0.009 C 
ATOM     20  C   UNL     1       1.457  -9.716  -2.388  0.00  0.00    +0.033 C 
ENDBRANCH   7  20
ENDBRANCH   6  15
ENDBRANCH   5   6
ENDBRANCH   1   5
BRANCH   3  21
ATOM     21  C   UNL     1      -0.018   1.461   0.010  0.00  0.00    +0.109 C 
BRANCH  21  22
ATOM     22  C   UNL     1      -0.734   1.954   1.269  0.00  0.00    +0.054 C 
BRANCH  22  23
ATOM     23  C   UNL     1      -0.754   3.461   1.277  0.00  0.00    -0.046 A 
ATOM     24  C   UNL     1       0.276   4.163   1.875  0.00  0.00    +0.005 A 
ATOM     25  C   UNL     1       0.259   5.545   1.878  0.00  0.00    +0.029 A 
ATOM     26  C   UNL     1      -0.792   6.225   1.293  0.00  0.00    +0.105 A 
ATOM     27  C   UNL     1      -1.825   5.523   0.700  0.00  0.00    +0.029 A 
ATOM     28  C   UNL     1      -1.806   4.141   0.692  0.00  0.00    +0.005 A 
BRANCH  26  29
ATOM     29  S   UNL     1      -0.815   7.987   1.301  0.00  0.00    +0.056 S 
ATOM     30  O   UNL     1       0.534   8.411   1.437  0.00  0.00    -0.153 OA
ATOM     31  O   UNL     1      -1.633   8.388   0.211  0.00  0.00    -0.153 OA
BRANCH  29  32
ATOM     32  N   UNL     1      -1.601   8.460   2.681  0.00  0.00    -0.204 NA
ATOM     33  H   UNL     1      -1.368   9.299   3.107  0.00  0.00    +0.144 HD
ATOM     34  H   UNL     1      -2.293   7.897   3.062  0.00  0.00    +0.144 HD
ENDBRANCH  29  32
ENDBRANCH  26  29
ENDBRANCH  22  23
ENDBRANCH  21  22
ENDBRANCH   3  21
TORSDOF 9
