REMARK  Name = ZINC20877701
REMARK  9 active torsions:
REMARK  status: ('A' for Active; 'I' for Inactive)
REMARK    1  A    between atoms: C_1  and  C_2
REMARK    2  A    between atoms: C_3  and  C_32
REMARK    3  A    between atoms: C_5  and  C_7
REMARK    4  A    between atoms: C_7  and  C_8
REMARK    5  A    between atoms: C_8  and  N_9
REMARK    6  A    between atoms: C_10  and  C_12
REMARK    7  A    between atoms: C_12  and  C_13
REMARK    8  A    between atoms: N_20  and  C_21
REMARK    9  A    between atoms: C_21  and  C_22
REMARK                            x       y       z     vdW  Elec       q    Type
REMARK                         _______ _______ _______ _____ _____    ______ ____
ROOT
ATOM      1  C   UNL     1       1.658   4.952   1.997  0.00  0.00    +0.028 C 
ATOM      2  C   UNL     1       1.930   5.157   3.460  0.00  0.00    +0.200 C 
ATOM      3  O   UNL     1       1.302   6.007   4.055  0.00  0.00    -0.278 OA
ATOM      4  N   UNL     1       2.837   4.441   4.135  0.00  0.00    -0.318 N 
ATOM      5  C   UNL     1       3.670   3.421   3.505  0.00  0.00    +0.085 C 
ATOM      6  C   UNL     1       3.060   2.998   2.168  0.00  0.00    -0.058 C 
ATOM      7  N   UNL     1       2.763   4.205   1.381  0.00  0.00    +0.391 N 
ATOM      8  H   UNL     1       2.940   4.650   5.210  0.00  0.00    +0.149 HD
ATOM      9  H   UNL     1       3.656   4.848   1.373  0.00  0.00    -0.080 HD
ENDROOT
BRANCH   1  10
ATOM     10  C   UNL     1       1.520   6.313   1.310  0.00  0.00    +0.089 C 
BRANCH  10  12
ATOM     11  N   UNL     1       2.975   8.241   0.776  0.00  0.00    -0.315 N 
ATOM     12  C   UNL     1       2.829   7.055   1.400  0.00  0.00    +0.212 C 
ATOM     13  O   UNL     1       3.751   6.585   2.032  0.00  0.00    -0.276 OA
ATOM     14  H   UNL     1       2.139   8.667   0.202  0.00  0.00    +0.149 HD
BRANCH  11  15
ATOM     15  C   UNL     1       4.247   8.963   0.863  0.00  0.00    +0.111 C 
BRANCH  15  16
ATOM     16  C   UNL     1       4.146  10.270   0.073  0.00  0.00    +0.081 C 
BRANCH  16  21
ATOM     17  C   UNL     1       8.773  11.563  -1.325  0.00  0.00    +0.066 C 
ATOM     18  C   UNL     1       7.579  11.661  -0.410  0.00  0.00    +0.049 A 
ATOM     19  C   UNL     1       7.590  12.497   0.660  0.00  0.00    +0.009 A 
ATOM     20  S   UNL     1       5.963  12.192   1.331  0.00  0.00    -0.077 S 
ATOM     21  C   UNL     1       5.455  11.012   0.162  0.00  0.00    +0.080 A 
ATOM     22  N   UNL     1       6.501  10.937  -0.627  0.00  0.00    -0.249 NA
ATOM     23  C   UNL     1       8.672  13.428   1.143  0.00  0.00    +0.053 C 
ENDBRANCH  16  21
ENDBRANCH  15  16
ENDBRANCH  11  15
ENDBRANCH  10  12
ENDBRANCH   1  10
BRANCH   7  24
ATOM     24  C   UNL     1       2.453   3.862  -0.014  0.00  0.00    -0.041 C 
BRANCH  24  25
ATOM     25  C   UNL     1       3.612   3.110  -0.616  0.00  0.00    -0.056 A 
ATOM     26  C   UNL     1       4.585   3.780  -1.292  0.00  0.00    +0.002 A 
ATOM     27  C   UNL     1       5.665   3.103  -1.855  0.00  0.00    +0.001 A 
ATOM     28  C   UNL     1       5.775   1.750  -1.749  0.00  0.00    +0.008 A 
ATOM     29  C   UNL     1       4.793   1.025  -1.054  0.00  0.00    -0.018 A 
ATOM     30  C   UNL     1       3.695   1.714  -0.481  0.00  0.00    -0.017 A 
ATOM     31  C   UNL     1       2.709   0.988   0.209  0.00  0.00    +0.009 A 
ATOM     32  C   UNL     1       2.822  -0.364   0.319  0.00  0.00    +0.001 A 
ATOM     33  C   UNL     1       3.902  -1.042  -0.244  0.00  0.00    +0.001 A 
ATOM     34  C   UNL     1       4.875  -0.372  -0.920  0.00  0.00    +0.008 A 
ENDBRANCH  24  25
ENDBRANCH   7  24
TORSDOF 7
