REMARK  Name = ZINC39596974
REMARK  8 active torsions:
REMARK  status: ('A' for Active; 'I' for Inactive)
REMARK    1  A    between atoms: C_1  and  C_2
REMARK    2  A    between atoms: C_2  and  C_4
REMARK    3  A    between atoms: C_2  and  N_10
REMARK    4  A    between atoms: C_11  and  C_13
REMARK    5  A    between atoms: C_24  and  C_26
REMARK    6  A    between atoms: C_32  and  O_34
REMARK    7  A    between atoms: O_34  and  C_35
REMARK    8  A    between atoms: C_35  and  C_36
REMARK                            x       y       z     vdW  Elec       q    Type
REMARK                         _______ _______ _______ _____ _____    ______ ____
ROOT
ATOM      1  C   UNL     1       0.780  -1.133   3.576  0.00  0.00    +0.100 C 
ATOM      2  C   UNL     1       1.973  -0.207   3.907  0.00  0.00    +0.121 C 
ATOM      3  N   UNL     1       1.444   0.739   4.916  0.00  0.00    -0.300 N 
ATOM      4  C   UNL     1       0.577  -0.093   5.784  0.00  0.00    +0.115 C 
ATOM      5  C   UNL     1      -0.132  -1.058   4.812  0.00  0.00    -0.004 C 
ATOM      6  C   UNL     1      -0.275  -2.438   5.448  0.00  0.00    -0.010 C 
ATOM      7  C   UNL     1      -1.232  -2.349   6.640  0.00  0.00    -0.082 C 
ATOM      8  N   UNL     1      -2.539  -1.860   6.184  0.00  0.00    +0.379 N 
ATOM      9  C   UNL     1      -2.409  -0.496   5.660  0.00  0.00    -0.082 C 
ATOM     10  C   UNL     1      -1.501  -0.506   4.426  0.00  0.00    -0.010 C 
ATOM     11  C   UNL     1       1.694   2.059   5.022  0.00  0.00    +0.219 C 
ATOM     12  O   UNL     1       1.181   2.705   5.912  0.00  0.00    -0.275 OA
ATOM     13  H   UNL     1      -2.889  -2.466   5.458  0.00  0.00    -0.086 HD
ATOM     14  H   UNL     1      -3.186  -1.861   6.959  0.00  0.00    -0.086 HD
ENDROOT
BRANCH  11  15
ATOM     15  C   UNL     1       2.612   2.734   4.035  0.00  0.00    +0.078 C 
ATOM     16  C   UNL     1       3.997   2.086   4.102  0.00  0.00    +0.032 C 
ATOM     17  C   UNL     1       4.917   2.751   3.074  0.00  0.00    +0.112 C 
ATOM     18  N   UNL     1       4.917   4.202   3.307  0.00  0.00    -0.267 N 
ATOM     19  C   UNL     1       3.631   4.910   3.352  0.00  0.00    +0.112 C 
ATOM     20  C   UNL     1       2.725   4.221   4.378  0.00  0.00    +0.032 C 
ATOM     21  C   UNL     1       6.075   4.870   3.476  0.00  0.00    +0.403 C 
ATOM     22  O   UNL     1       7.133   4.273   3.436  0.00  0.00    -0.226 OA
BRANCH  21  23
ATOM     23  O   UNL     1       6.060   6.199   3.688  0.00  0.00    -0.445 OA
BRANCH  23  24
ATOM     24  C   UNL     1       7.325   6.843   3.859  0.00  0.00    +0.269 C 
BRANCH  24  25
ATOM     25  C   UNL     1       7.111   8.318   4.084  0.00  0.00    -0.010 A 
ATOM     26  C   UNL     1       7.070   9.183   3.007  0.00  0.00    +0.007 A 
ATOM     27  C   UNL     1       6.874  10.536   3.214  0.00  0.00    +0.000 A 
ATOM     28  C   UNL     1       6.719  11.023   4.498  0.00  0.00    +0.000 A 
ATOM     29  C   UNL     1       6.758  10.158   5.575  0.00  0.00    +0.000 A 
ATOM     30  C   UNL     1       6.950   8.805   5.368  0.00  0.00    +0.007 A 
ENDBRANCH  24  25
ENDBRANCH  23  24
ENDBRANCH  21  23
ENDBRANCH  11  15
BRANCH   1  32
ATOM     31  N   UNL     1      -0.609  -1.501   1.563  0.00  0.00    -0.308 N 
ATOM     32  C   UNL     1       0.051  -0.633   2.355  0.00  0.00    +0.219 C 
ATOM     33  O   UNL     1       0.059   0.549   2.086  0.00  0.00    -0.275 OA
ATOM     34  H   UNL     1      -0.616  -2.447   1.779  0.00  0.00    +0.149 HD
BRANCH  31  36
ATOM     35  C   UNL     1      -0.340  -0.916  -0.796  0.00  0.00    +0.033 C 
ATOM     36  C   UNL     1      -1.318  -1.016   0.377  0.00  0.00    +0.100 C 
BRANCH  36  37
ATOM     37  C   UNL     1      -2.427  -1.974   0.026  0.00  0.00    -0.027 A 
ATOM     38  C   UNL     1      -2.222  -3.337   0.134  0.00  0.00    +0.005 A 
ATOM     39  C   UNL     1      -3.239  -4.217  -0.187  0.00  0.00    +0.000 A 
ATOM     40  C   UNL     1      -4.461  -3.733  -0.616  0.00  0.00    +0.000 A 
ATOM     41  C   UNL     1      -4.666  -2.370  -0.722  0.00  0.00    +0.000 A 
ATOM     42  C   UNL     1      -3.651  -1.491  -0.397  0.00  0.00    +0.005 A 
ENDBRANCH  36  37
ENDBRANCH  31  36
ENDBRANCH   1  32
TORSDOF 7
