REMARK  Name = ZINC33014891
REMARK  7 active torsions:
REMARK  status: ('A' for Active; 'I' for Inactive)
REMARK    1  A    between atoms: C_1  and  C_2
REMARK    2  A    between atoms: C_2  and  O_3
REMARK    3  A    between atoms: O_3  and  C_4
REMARK    4  A    between atoms: C_7  and  N_10
REMARK    5  A    between atoms: C_20  and  N_21
REMARK    6  A    between atoms: N_21  and  N_22
REMARK    7  A    between atoms: C_23  and  C_25
REMARK                            x       y       z     vdW  Elec       q    Type
REMARK                         _______ _______ _______ _____ _____    ______ ____
ROOT
ATOM      1  N   UNL     1      -3.792   1.838  -0.010  0.00  0.00    -0.202 N 
ATOM      2  C   UNL     1      -2.570   1.283   0.045  0.00  0.00    +0.258 C 
ATOM      3  O   UNL     1      -2.463   0.072   0.042  0.00  0.00    -0.269 OA
ATOM      4  C   UNL     1      -1.361   2.115   0.107  0.00  0.00    +0.046 A 
ATOM      5  C   UNL     1      -0.089   1.545   0.163  0.00  0.00    +0.014 A 
ATOM      6  C   UNL     1       1.022   2.360   0.214  0.00  0.00    +0.001 A 
ATOM      7  C   UNL     1       0.888   3.741   0.216  0.00  0.00    +0.001 A 
ATOM      8  C   UNL     1      -0.361   4.324   0.168  0.00  0.00    +0.009 A 
ATOM      9  C   UNL     1      -1.493   3.519   0.116  0.00  0.00    +0.000 A 
ATOM     10  C   UNL     1      -2.854   4.093   0.063  0.00  0.00    +0.060 C 
ATOM     11  C   UNL     1      -3.050   5.456   0.064  0.00  0.00    +0.101 C 
ATOM     12  C   UNL     1      -3.990   3.167  -0.010  0.00  0.00    +0.259 C 
ATOM     13  O   UNL     1      -5.124   3.607  -0.060  0.00  0.00    -0.269 OA
ENDROOT
BRANCH   1  17
ATOM     14  C   UNL     1      -7.117  -0.674  -0.184  0.00  0.00    +0.121 A 
ATOM     15  C   UNL     1      -6.218  -0.639  -1.241  0.00  0.00    +0.047 A 
ATOM     16  C   UNL     1      -5.117   0.193  -1.183  0.00  0.00    +0.027 A 
ATOM     17  C   UNL     1      -4.910   0.994  -0.069  0.00  0.00    +0.045 A 
ATOM     18  C   UNL     1      -5.806   0.954   0.991  0.00  0.00    +0.027 A 
ATOM     19  C   UNL     1      -6.910   0.126   0.930  0.00  0.00    +0.047 A 
BRANCH  14  20
ATOM     20  O   UNL     1      -8.201  -1.493  -0.241  0.00  0.00    -0.492 OA
BRANCH  20  22
ATOM     21  C   UNL     1     -10.236  -2.456   0.638  0.00  0.00    +0.048 C 
ATOM     22  C   UNL     1      -9.084  -1.478   0.882  0.00  0.00    +0.225 C 
ENDBRANCH  20  22
ENDBRANCH  14  20
ENDBRANCH   1  17
BRANCH  11  23
ATOM     23  N   UNL     1      -4.306   5.962   0.167  0.00  0.00    -0.271 N 
ATOM     24  H   UNL     1      -5.157   5.288   0.346  0.00  0.00    +0.169 HD
BRANCH  23  25
ATOM     25  N   UNL     1      -4.518   7.342   0.047  0.00  0.00    -0.233 N 
ATOM     26  C   UNL     1      -5.765   7.844   0.150  0.00  0.00    +0.267 C 
ATOM     27  O   UNL     1      -6.706   7.098   0.347  0.00  0.00    -0.268 OA
ATOM     28  H   UNL     1      -3.667   8.015  -0.132  0.00  0.00    +0.173 HD
BRANCH  26  29
ATOM     29  C   UNL     1      -5.986   9.287   0.023  0.00  0.00    +0.075 A 
ATOM     30  C   UNL     1      -7.174   9.998   0.097  0.00  0.00    +0.021 A 
ATOM     31  C   UNL     1      -7.097  11.360  -0.059  0.00  0.00    +0.008 A 
ATOM     32  C   UNL     1      -5.886  11.937  -0.272  0.00  0.00    +0.046 A 
ATOM     33  S   UNL     1      -4.797  10.587  -0.257  0.00  0.00    -0.092 S 
ENDBRANCH  26  29
ENDBRANCH  23  25
ENDBRANCH  11  23
TORSDOF 6
