REMARK  Name = ZINC29219497
REMARK  14 active torsions:
REMARK  status: ('A' for Active; 'I' for Inactive)
REMARK    1  A    between atoms: C_1  and  C_2
REMARK    2  A    between atoms: C_2  and  C_3
REMARK    3  A    between atoms: C_3  and  C_4
REMARK    4  A    between atoms: C_6  and  C_9
REMARK    5  A    between atoms: C_12  and  S_15
REMARK    6  A    between atoms: S_15  and  N_18
REMARK    7  A    between atoms: N_18  and  C_19
REMARK    8  A    between atoms: C_22  and  C_25
REMARK    9  A    between atoms: C_25  and  C_26
REMARK   10  A    between atoms: C_26  and  N_27
REMARK   11  A    between atoms: N_27  and  C_28
REMARK   12  A    between atoms: C_28  and  C_29
REMARK   13  A    between atoms: C_29  and  C_31
REMARK   14  A    between atoms: C_29  and  O_37
REMARK                            x       y       z     vdW  Elec       q    Type
REMARK                         _______ _______ _______ _____ _____    ______ ____
ROOT
ATOM      1  C   UNL     1      -6.449   2.393  -5.781  0.00  0.00    +0.048 A 
ATOM      2  C   UNL     1      -5.678   1.239  -5.833  0.00  0.00    +0.025 A 
ATOM      3  C   UNL     1      -4.969   0.834  -4.720  0.00  0.00    +0.005 A 
ATOM      4  C   UNL     1      -5.026   1.575  -3.554  0.00  0.00    -0.049 A 
ATOM      5  C   UNL     1      -5.798   2.721  -3.496  0.00  0.00    +0.005 A 
ATOM      6  C   UNL     1      -6.505   3.135  -4.608  0.00  0.00    +0.025 A 
ENDROOT
BRANCH   1   7
ATOM      7  N   UNL     1      -7.168   2.806  -6.905  0.00  0.00    -0.216 N 
ATOM      8  H   UNL     1      -6.685   2.819  -7.893  0.00  0.00    +0.174 HD
BRANCH   7   9
ATOM      9  S   UNL     1      -8.749   3.276  -6.751  0.00  0.00    +0.072 S 
ATOM     10  O   UNL     1      -8.783   4.256  -5.723  0.00  0.00    -0.150 OA
ATOM     11  O   UNL     1      -9.226   3.533  -8.064  0.00  0.00    -0.150 OA
BRANCH   9  15
ATOM     12  C   UNL     1     -11.064  -0.299  -5.207  0.00  0.00    +0.023 A 
ATOM     13  C   UNL     1     -10.583   0.659  -4.317  0.00  0.00    +0.013 A 
ATOM     14  C   UNL     1      -9.879   1.747  -4.793  0.00  0.00    +0.029 A 
ATOM     15  C   UNL     1      -9.649   1.885  -6.150  0.00  0.00    +0.109 A 
ATOM     16  C   UNL     1     -10.129   0.939  -7.038  0.00  0.00    +0.029 A 
ATOM     17  C   UNL     1     -10.830  -0.155  -6.573  0.00  0.00    +0.013 A 
BRANCH  12  20
ATOM     18  C   UNL     1     -12.919  -3.282  -4.592  0.00  0.00    +0.228 A 
ATOM     19  N   UNL     1     -12.342  -2.473  -5.445  0.00  0.00    -0.191 NA
ATOM     20  C   UNL     1     -11.821  -1.471  -4.701  0.00  0.00    +0.202 A 
ATOM     21  N   UNL     1     -12.105  -1.732  -3.451  0.00  0.00    -0.056 NA
ATOM     22  O   UNL     1     -12.738  -2.763  -3.374  0.00  0.00    -0.338 OA
BRANCH  18  23
ATOM     23  C   UNL     1     -13.649  -4.558  -4.923  0.00  0.00    +0.098 C 
BRANCH  23  25
ATOM     24  C   UNL     1     -13.406  -7.025  -5.238  0.00  0.00    +0.004 C 
ATOM     25  C   UNL     1     -12.665  -5.729  -4.902  0.00  0.00    +0.006 C 
ENDBRANCH  23  25
ENDBRANCH  18  23
ENDBRANCH  12  20
ENDBRANCH   9  15
ENDBRANCH   7   9
ENDBRANCH   1   7
BRANCH   4  26
ATOM     26  C   UNL     1      -4.251   1.129  -2.341  0.00  0.00    +0.016 C 
BRANCH  26  27
ATOM     27  C   UNL     1      -2.856   1.756  -2.369  0.00  0.00    -0.078 C 
BRANCH  27  28
ATOM     28  N   UNL     1      -2.100   1.321  -1.186  0.00  0.00    +0.381 N 
ATOM     29  H   UNL     1      -2.627   1.641  -0.276  0.00  0.00    -0.086 HD
ATOM     30  H   UNL     1      -2.010   0.225  -1.191  0.00  0.00    -0.086 HD
BRANCH  28  31
ATOM     31  C   UNL     1      -0.752   1.905  -1.179  0.00  0.00    -0.046 C 
BRANCH  31  32
ATOM     32  C   UNL     1       0.003   1.430   0.064  0.00  0.00    +0.129 C 
BRANCH  32  33
ATOM     33  C   UNL     1       1.386   2.029   0.071  0.00  0.00    -0.003 A 
ATOM     34  C   UNL     1       2.461   1.319  -0.443  0.00  0.00    +0.009 A 
ATOM     35  C   UNL     1       3.715   1.910  -0.415  0.00  0.00    +0.020 A 
ATOM     36  C   UNL     1       3.851   3.177   0.120  0.00  0.00    +0.111 A 
ATOM     37  N   UNL     1       2.806   3.822   0.600  0.00  0.00    -0.263 NA
ATOM     38  C   UNL     1       1.598   3.294   0.585  0.00  0.00    +0.116 A 
ENDBRANCH  32  33
BRANCH  32  39
ATOM     39  O   UNL     1      -0.702   1.845   1.236  0.00  0.00    -0.389 OA
ATOM     40  H   UNL     1      -0.308   1.593   2.232  0.00  0.00    +0.210 HD
ENDBRANCH  32  39
ENDBRANCH  31  32
ENDBRANCH  28  31
ENDBRANCH  27  28
ENDBRANCH  26  27
ENDBRANCH   4  26
TORSDOF 13
