REMARK  Name = ZINC40404738
REMARK  13 active torsions:
REMARK  status: ('A' for Active; 'I' for Inactive)
REMARK    1  A    between atoms: C_1  and  C_2
REMARK    2  A    between atoms: C_2  and  C_3
REMARK    3  A    between atoms: C_3  and  C_4
REMARK    4  A    between atoms: C_4  and  C_6
REMARK    5  A    between atoms: C_4  and  O_34
REMARK    6  A    between atoms: C_6  and  N_7
REMARK    7  A    between atoms: N_7  and  C_8
REMARK    8  A    between atoms: N_7  and  C_14
REMARK    9  A    between atoms: C_8  and  C_9
REMARK   10  A    between atoms: C_14  and  C_15
REMARK   11  A    between atoms: C_21  and  C_26
REMARK   12  A    between atoms: C_28  and  C_33
REMARK   13  A    between atoms: C_31  and  C_32
REMARK                            x       y       z     vdW  Elec       q    Type
REMARK                         _______ _______ _______ _____ _____    ______ ____
ROOT
ATOM      1  C   UNL     1      -3.496  -6.468   0.675  0.00  0.00    +0.094 A 
ATOM      2  N   UNL     1      -4.511  -7.344   0.886  0.00  0.00    -0.312 N 
ATOM      3  H   UNL     1      -5.413  -7.007   1.002  0.00  0.00    +0.170 HD
ATOM      4  C   UNL     1      -4.291  -8.671   0.935  0.00  0.00    +0.260 A 
ATOM      5  O   UNL     1      -5.214  -9.444   1.124  0.00  0.00    -0.267 OA
ATOM      6  C   UNL     1      -2.957  -9.159   0.762  0.00  0.00    +0.080 A 
ATOM      7  C   UNL     1      -2.469 -10.533   0.773  0.00  0.00    +0.004 A 
ATOM      8  C   UNL     1      -1.145 -10.756   0.584  0.00  0.00    +0.056 A 
ATOM      9  S   UNL     1      -0.476  -9.117   0.379  0.00  0.00    -0.076 S 
ATOM     10  C   UNL     1      -1.973  -8.180   0.550  0.00  0.00    +0.116 A 
ATOM     11  N   UNL     1      -2.269  -6.883   0.508  0.00  0.00    -0.229 NA
ENDROOT
BRANCH   7  12
ATOM     12  C   UNL     1      -3.402 -11.665   0.987  0.00  0.00    -0.013 A 
ATOM     13  C   UNL     1      -3.293 -12.455   2.130  0.00  0.00    +0.012 A 
ATOM     14  C   UNL     1      -4.165 -13.507   2.324  0.00  0.00    -0.050 A 
ATOM     15  C   UNL     1      -5.146 -13.777   1.387  0.00  0.00    +0.003 A 
ATOM     16  C   UNL     1      -5.260 -12.996   0.252  0.00  0.00    +0.004 A 
ATOM     17  C   UNL     1      -4.396 -11.938   0.049  0.00  0.00    -0.043 A 
ATOM     18  C   UNL     1      -4.525 -11.084  -1.186  0.00  0.00    +0.044 C 
ATOM     19  C   UNL     1      -4.047 -14.363   3.559  0.00  0.00    +0.044 C 
ENDBRANCH   7  12
BRANCH   1  20
ATOM     20  C   UNL     1      -3.791  -4.990   0.627  0.00  0.00    -0.003 C 
BRANCH  20  21
ATOM     21  N   UNL     1      -2.545  -4.250   0.383  0.00  0.00    +0.391 N 
ATOM     22  H   UNL     1      -1.862  -4.502   1.082  0.00  0.00    -0.080 HD
BRANCH  21  23
ATOM     23  C   UNL     1      -2.811  -2.808   0.455  0.00  0.00    -0.046 C 
BRANCH  23  24
ATOM     24  C   UNL     1      -3.211  -2.433   1.883  0.00  0.00    +0.098 C 
BRANCH  24  25
ATOM     25  O   UNL     1      -2.135  -2.733   2.774  0.00  0.00    -0.394 OA
ATOM     26  H   UNL     1      -1.337  -2.211   2.616  0.00  0.00    +0.210 HD
ENDBRANCH  24  25
BRANCH  24  27
ATOM     27  C   UNL     1      -3.526  -0.937   1.949  0.00  0.00    +0.029 C 
BRANCH  27  29
ATOM     28  C   UNL     1      -4.361   0.909   3.411  0.00  0.00    +0.004 C 
ATOM     29  C   UNL     1      -4.046  -0.587   3.345  0.00  0.00    -0.001 C 
ENDBRANCH  27  29
ENDBRANCH  24  27
ENDBRANCH  23  24
ENDBRANCH  21  23
BRANCH  21  30
ATOM     30  C   UNL     1      -2.028  -4.587  -0.950  0.00  0.00    -0.002 C 
BRANCH  30  31
ATOM     31  C   UNL     1      -0.680  -3.942  -1.144  0.00  0.00    +0.089 A 
ATOM     32  C   UNL     1       0.499  -4.447  -0.739  0.00  0.00    +0.042 A 
ATOM     33  C   UNL     1       1.495  -3.521  -1.124  0.00  0.00    +0.041 A 
ATOM     34  C   UNL     1       0.865  -2.506  -1.742  0.00  0.00    +0.195 A 
ATOM     35  O   UNL     1      -0.452  -2.769  -1.757  0.00  0.00    -0.470 OA
ENDBRANCH  30  31
ENDBRANCH  21  30
ENDBRANCH  20  21
ENDBRANCH   1  20
TORSDOF 10
