REMARK  Name = ZINC33287203
REMARK  10 active torsions:
REMARK  status: ('A' for Active; 'I' for Inactive)
REMARK    1  A    between atoms: C_1  and  C_2
REMARK    2  A    between atoms: C_6  and  C_8
REMARK    3  A    between atoms: C_10  and  C_14
REMARK    4  A    between atoms: C_11  and  C_13
REMARK    5  A    between atoms: C_14  and  S_15
REMARK    6  A    between atoms: S_15  and  C_16
REMARK    7  A    between atoms: N_25  and  C_27
REMARK    8  A    between atoms: C_27  and  C_28
REMARK    9  A    between atoms: C_31  and  O_34
REMARK   10  A    between atoms: O_34  and  C_35
REMARK                            x       y       z     vdW  Elec       q    Type
REMARK                         _______ _______ _______ _____ _____    ______ ____
ROOT
ATOM      1  C   UNL     1      -3.104  10.403   1.504  0.00  0.00    +0.192 A 
ATOM      2  N   UNL     1      -3.616  11.075   2.572  0.00  0.00    -0.183 NA
ATOM      3  C   UNL     1      -4.434  12.128   2.365  0.00  0.00    +0.276 A 
ATOM      4  O   UNL     1      -4.905  12.741   3.309  0.00  0.00    -0.266 OA
ATOM      5  C   UNL     1      -4.735  12.510   1.042  0.00  0.00    +0.024 A 
ATOM      6  C   UNL     1      -4.192  11.804   0.014  0.00  0.00    +0.049 A 
ATOM      7  N   UNL     1      -3.387  10.770   0.271  0.00  0.00    -0.227 NA
ATOM      8  C   UNL     1      -4.462  12.165  -1.424  0.00  0.00    +0.037 C 
ATOM      9  C   UNL     1      -5.687  13.075  -1.513  0.00  0.00    -0.072 C 
ATOM     10  N   UNL     1      -5.518  14.181  -0.556  0.00  0.00    +0.385 N 
ATOM     11  C   UNL     1      -5.647  13.685   0.818  0.00  0.00    -0.035 C 
ATOM     12  H   UNL     1      -4.508  14.601  -0.679  0.00  0.00    -0.081 HD
ENDROOT
BRANCH   1  13
ATOM     13  S   UNL     1      -2.046   9.020   1.776  0.00  0.00    -0.080 S 
BRANCH  13  14
ATOM     14  C   UNL     1      -1.692   8.553   0.064  0.00  0.00    +0.136 C 
BRANCH  14  17
ATOM     15  C   UNL     1      -0.086   5.314   0.029  0.00  0.00    +0.228 A 
ATOM     16  N   UNL     1      -1.159   6.070   0.042  0.00  0.00    -0.213 NA
ATOM     17  C   UNL     1      -0.777   7.356   0.049  0.00  0.00    +0.093 A 
ATOM     18  C   UNL     1       0.568   7.387   0.040  0.00  0.00    +0.127 A 
ATOM     19  O   UNL     1       0.998   6.110   0.032  0.00  0.00    -0.440 OA
ATOM     20  C   UNL     1       1.433   8.621   0.043  0.00  0.00    +0.088 C 
BRANCH  15  26
ATOM     21  C   UNL     1       2.458   1.022  -0.020  0.00  0.00    +0.044 C 
ATOM     22  C   UNL     1       1.149   1.767  -0.005  0.00  0.00    -0.050 A 
ATOM     23  C   UNL     1      -0.044   1.067  -0.002  0.00  0.00    +0.003 A 
ATOM     24  C   UNL     1      -1.251   1.744   0.006  0.00  0.00    +0.001 A 
ATOM     25  C   UNL     1      -1.271   3.123   0.022  0.00  0.00    +0.013 A 
ATOM     26  C   UNL     1      -0.071   3.836   0.018  0.00  0.00    +0.037 A 
ATOM     27  C   UNL     1       1.143   3.147   0.005  0.00  0.00    +0.016 A 
ENDBRANCH  15  26
ENDBRANCH  14  17
ENDBRANCH  13  14
ENDBRANCH   1  13
BRANCH  10  28
ATOM     28  C   UNL     1      -6.481  15.258  -0.820  0.00  0.00    -0.043 C 
BRANCH  28  29
ATOM     29  C   UNL     1      -7.881  14.703  -0.769  0.00  0.00    -0.064 A 
ATOM     30  C   UNL     1      -8.472  14.214  -1.920  0.00  0.00    +0.005 A 
ATOM     31  C   UNL     1      -9.753  13.699  -1.875  0.00  0.00    +0.046 A 
ATOM     32  C   UNL     1     -10.451  13.683  -0.677  0.00  0.00    +0.120 A 
ATOM     33  C   UNL     1      -9.859  14.180   0.475  0.00  0.00    +0.046 A 
ATOM     34  C   UNL     1      -8.575  14.688   0.426  0.00  0.00    +0.005 A 
BRANCH  32  35
ATOM     35  O   UNL     1     -11.714  13.182  -0.631  0.00  0.00    -0.495 OA
ATOM     36  C   UNL     1     -12.260  12.688  -1.856  0.00  0.00    +0.277 C 
ENDBRANCH  32  35
ENDBRANCH  28  29
ENDBRANCH  10  28
TORSDOF 7
