REMARK  Name = ZINC64847026
REMARK  7 active torsions:
REMARK  status: ('A' for Active; 'I' for Inactive)
REMARK    1  A    between atoms: C_1  and  C_2
REMARK    2  A    between atoms: C_2  and  C_4
REMARK    3  A    between atoms: C_2  and  N_10
REMARK    4  A    between atoms: C_4  and  C_5
REMARK    5  A    between atoms: C_11  and  C_13
REMARK    6  A    between atoms: C_13  and  C_14
REMARK    7  A    between atoms: N_22  and  C_23
REMARK                            x       y       z     vdW  Elec       q    Type
REMARK                         _______ _______ _______ _____ _____    ______ ____
ROOT
ATOM      1  C   UNL     1      -0.278  -1.150  -4.761  0.00  0.00    +0.001 C 
ATOM      2  C   UNL     1      -0.758   0.265  -5.094  0.00  0.00    +0.023 C 
ATOM      3  C   UNL     1      -1.779   0.197  -6.234  0.00  0.00    +0.109 C 
ATOM      4  N   UNL     1      -1.177  -0.518  -7.367  0.00  0.00    -0.286 N 
ATOM      5  C   UNL     1      -0.603  -1.851  -7.136  0.00  0.00    +0.109 C 
ATOM      6  C   UNL     1       0.405  -1.761  -5.986  0.00  0.00    +0.023 C 
ATOM      7  C   UNL     1      -1.152   0.037  -8.595  0.00  0.00    +0.302 C 
ATOM      8  O   UNL     1      -1.711   1.098  -8.794  0.00  0.00    -0.253 OA
ATOM      9  N   UNL     1      -0.508  -0.585  -9.602  0.00  0.00    -0.296 N 
ATOM     10  H   UNL     1      -0.126  -1.465  -9.463  0.00  0.00    +0.151 HD
ENDROOT
BRANCH   9  11
ATOM     11  C   UNL     1      -0.386   0.069 -10.908  0.00  0.00    +0.074 C 
ATOM     12  C   UNL     1       0.829   0.999 -10.900  0.00  0.00    +0.022 C 
ATOM     13  C   UNL     1       0.957   1.683 -12.263  0.00  0.00    +0.002 C 
ATOM     14  C   UNL     1       1.134   0.621 -13.351  0.00  0.00    +0.000 C 
ATOM     15  C   UNL     1      -0.081  -0.308 -13.358  0.00  0.00    +0.002 C 
ATOM     16  C   UNL     1      -0.209  -0.992 -11.995  0.00  0.00    +0.022 C 
ENDBRANCH   9  11
BRANCH   1  17
ATOM     17  C   UNL     1       0.717  -1.090  -3.599  0.00  0.00    +0.099 C 
BRANCH  17  19
ATOM     18  N   UNL     1       0.695  -0.471  -1.205  0.00  0.00    -0.312 N 
ATOM     19  C   UNL     1       0.012  -0.604  -2.359  0.00  0.00    +0.214 C 
ATOM     20  O   UNL     1      -1.169  -0.332  -2.400  0.00  0.00    -0.276 OA
ATOM     21  H   UNL     1       1.639  -0.689  -1.172  0.00  0.00    +0.149 HD
BRANCH  18  23
ATOM     22  C   UNL     1      -0.012   1.532   0.009  0.00  0.00    +0.028 C 
ATOM     23  C   UNL     1       0.010   0.002   0.001  0.00  0.00    +0.077 C 
BRANCH  23  24
ATOM     24  C   UNL     1       0.751  -0.504   1.240  0.00  0.00    +0.096 C 
BRANCH  24  25
ATOM     25  C   UNL     1       0.666  -2.007   1.298  0.00  0.00    +0.107 A 
ATOM     26  C   UNL     1       1.546  -2.866   0.751  0.00  0.00    +0.045 A 
ATOM     27  C   UNL     1       1.082  -4.169   1.044  0.00  0.00    +0.041 A 
ATOM     28  C   UNL     1      -0.053  -4.029   1.752  0.00  0.00    +0.195 A 
ATOM     29  O   UNL     1      -0.297  -2.717   1.908  0.00  0.00    -0.468 OA
ENDBRANCH  24  25
ENDBRANCH  23  24
ENDBRANCH  18  23
ENDBRANCH  17  19
ENDBRANCH   1  17
TORSDOF 6
