REMARK  Name = ZINC63698813
REMARK  6 active torsions:
REMARK  status: ('A' for Active; 'I' for Inactive)
REMARK    1  A    between atoms: C_1  and  C_2
REMARK    2  A    between atoms: C_5  and  C_8
REMARK    3  A    between atoms: C_12  and  C_14
REMARK    4  A    between atoms: C_14  and  N_15
REMARK    5  A    between atoms: C_21  and  C_23
REMARK    6  A    between atoms: C_24  and  C_28
REMARK                            x       y       z     vdW  Elec       q    Type
REMARK                         _______ _______ _______ _____ _____    ______ ____
ROOT
ATOM      1  C   UNL     1      -1.495  -6.124   1.797  0.00  0.00    +0.100 C 
ENDROOT
BRANCH   1   2
ATOM      2  N   UNL     1      -1.344  -6.443   3.223  0.00  0.00    -0.294 NA
ATOM      3  C   UNL     1       0.056  -6.260   3.663  0.00  0.00    +0.085 C 
ATOM      4  C   UNL     1       0.224  -6.287   5.192  0.00  0.00    +0.015 C 
ATOM      5  C   UNL     1      -0.592  -7.365   5.853  0.00  0.00    +0.001 C 
ATOM      6  C   UNL     1      -1.965  -6.779   6.251  0.00  0.00    +0.002 C 
ATOM      7  C   UNL     1      -2.854  -6.660   5.101  0.00  0.00    +0.024 C 
ATOM      8  C   UNL     1      -2.301  -5.713   4.020  0.00  0.00    +0.094 C 
BRANCH   8   9
ATOM      9  C   UNL     1      -3.428  -5.229   3.144  0.00  0.00    +0.010 A 
ATOM     10  C   UNL     1      -3.785  -3.958   2.837  0.00  0.00    -0.039 A 
ATOM     11  C   UNL     1      -4.867  -3.748   2.002  0.00  0.00    +0.011 A 
ATOM     12  C   UNL     1      -5.537  -4.821   1.514  0.00  0.00    +0.046 A 
ATOM     13  S   UNL     1      -4.632  -6.181   2.233  0.00  0.00    -0.100 S 
ATOM     14  C   UNL     1      -3.016  -2.790   3.400  0.00  0.00    +0.044 C 
ENDBRANCH   8   9
ENDBRANCH   1   2
BRANCH   1  19
ATOM     15  C   UNL     1      -0.584  -6.602  -0.487  0.00  0.00    +0.080 C 
ATOM     16  N   UNL     1      -0.995  -7.662  -1.126  0.00  0.00    -0.153 NA
ATOM     17  N   UNL     1      -1.240  -8.730  -0.269  0.00  0.00    -0.161 NA
ATOM     18  C   UNL     1      -1.008  -8.435   0.969  0.00  0.00    +0.118 C 
ATOM     19  C   UNL     1      -0.540  -6.994   0.977  0.00  0.00    +0.097 C 
BRANCH  15  24
ATOM     20  C   UNL     1       0.793  -1.502  -2.755  0.00  0.00    +0.044 C 
ATOM     21  C   UNL     1       0.433  -2.839  -2.160  0.00  0.00    -0.050 A 
ATOM     22  C   UNL     1       0.006  -3.866  -2.984  0.00  0.00    +0.004 A 
ATOM     23  C   UNL     1      -0.326  -5.092  -2.448  0.00  0.00    +0.010 A 
ATOM     24  C   UNL     1      -0.231  -5.296  -1.067  0.00  0.00    -0.001 A 
ATOM     25  C   UNL     1       0.201  -4.254  -0.242  0.00  0.00    +0.010 A 
ATOM     26  C   UNL     1       0.535  -3.035  -0.794  0.00  0.00    +0.004 A 
ENDBRANCH  15  24
ENDBRANCH   1  19
TORSDOF 4
