REMARK  Name = ZINC20214100
REMARK  10 active torsions:
REMARK  status: ('A' for Active; 'I' for Inactive)
REMARK    1  A    between atoms: C_1  and  C_2
REMARK    2  A    between atoms: C_2  and  O_3
REMARK    3  A    between atoms: O_3  and  C_4
REMARK    4  A    between atoms: C_4  and  C_6
REMARK    5  A    between atoms: C_7  and  C_21
REMARK    6  A    between atoms: C_12  and  C_14
REMARK    7  A    between atoms: C_21  and  N_22
REMARK    8  A    between atoms: N_22  and  C_23
REMARK    9  A    between atoms: N_22  and  C_29
REMARK   10  A    between atoms: C_23  and  C_24
REMARK                            x       y       z     vdW  Elec       q    Type
REMARK                         _______ _______ _______ _____ _____    ______ ____
ROOT
ATOM      1  C   UNL     1      -4.490   3.046   3.616  0.00  0.00    +0.076 C 
ATOM      2  C   UNL     1      -4.823   1.769   3.333  0.00  0.00    +0.008 C 
ATOM      3  N   UNL     1      -5.412   0.969   4.270  0.00  0.00    -0.274 N 
ATOM      4  C   UNL     1      -5.706   1.373   5.512  0.00  0.00    +0.304 C 
ATOM      5  O   UNL     1      -6.230   0.588   6.278  0.00  0.00    -0.252 OA
ATOM      6  N   UNL     1      -5.439   2.623   5.942  0.00  0.00    -0.288 N 
ATOM      7  C   UNL     1      -4.803   3.565   5.005  0.00  0.00    +0.143 C 
ATOM      8  H   UNL     1      -5.671  -0.071   4.022  0.00  0.00    +0.156 HD
ATOM      9  H   UNL     1      -5.684   2.945   6.964  0.00  0.00    +0.151 HD
ENDROOT
BRANCH   7  10
ATOM     10  C   UNL     1      -5.707   4.763   4.866  0.00  0.00    -0.022 A 
ATOM     11  C   UNL     1      -7.077   4.590   4.794  0.00  0.00    +0.007 A 
ATOM     12  C   UNL     1      -7.907   5.689   4.673  0.00  0.00    +0.020 A 
ATOM     13  C   UNL     1      -7.366   6.960   4.611  0.00  0.00    +0.041 A 
ATOM     14  C   UNL     1      -5.994   7.132   4.677  0.00  0.00    +0.020 A 
ATOM     15  C   UNL     1      -5.166   6.033   4.805  0.00  0.00    +0.007 A 
ATOM     16 CL   UNL     1      -8.407   8.340   4.450  0.00  0.00    -0.084 Cl
ENDBRANCH   7  10
BRANCH   1  17
ATOM     17  C   UNL     1      -3.875   3.874   2.648  0.00  0.00    +0.339 C 
ATOM     18  O   UNL     1      -3.753   3.483   1.502  0.00  0.00    -0.245 OA
BRANCH  17  19
ATOM     19  O   UNL     1      -3.424   5.098   2.995  0.00  0.00    -0.462 OA
BRANCH  19  21
ATOM     20  C   UNL     1      -2.369   7.224   2.544  0.00  0.00    +0.048 C 
ATOM     21  C   UNL     1      -2.814   5.880   1.966  0.00  0.00    +0.229 C 
ENDBRANCH  19  21
ENDBRANCH  17  19
ENDBRANCH   1  17
BRANCH   2  22
ATOM     22  C   UNL     1      -4.535   1.214   1.961  0.00  0.00    -0.025 C 
BRANCH  22  23
ATOM     23  N   UNL     1      -3.085   1.046   1.797  0.00  0.00    +0.390 N 
ATOM     24  H   UNL     1      -2.594   1.956   2.172  0.00  0.00    -0.080 HD
BRANCH  23  25
ATOM     25  C   UNL     1      -2.594  -0.091   2.587  0.00  0.00    -0.067 C 
ATOM     26  C   UNL     1      -3.510  -1.297   2.371  0.00  0.00    -0.015 C 
ATOM     27  C   UNL     1      -2.999  -2.480   3.194  0.00  0.00    -0.002 C 
ATOM     28  C   UNL     1      -2.992  -2.105   4.678  0.00  0.00    -0.000 C 
ATOM     29  C   UNL     1      -2.075  -0.899   4.894  0.00  0.00    -0.002 C 
ATOM     30  C   UNL     1      -2.586   0.285   4.070  0.00  0.00    -0.015 C 
ENDBRANCH  23  25
BRANCH  23  31
ATOM     31  C   UNL     1      -2.730   0.893   0.379  0.00  0.00    -0.002 C 
BRANCH  31  32
ATOM     32  C   UNL     1      -1.240   1.048   0.215  0.00  0.00    +0.089 A 
ATOM     33  C   UNL     1      -0.336   0.053   0.263  0.00  0.00    +0.042 A 
ATOM     34  C   UNL     1       0.932   0.642   0.055  0.00  0.00    +0.041 A 
ATOM     35  C   UNL     1       0.728   1.962  -0.102  0.00  0.00    +0.195 A 
ATOM     36  O   UNL     1      -0.589   2.202  -0.002  0.00  0.00    -0.470 OA
ENDBRANCH  31  32
ENDBRANCH  23  31
ENDBRANCH  22  23
ENDBRANCH   2  22
TORSDOF 9
