REMARK  Name = ZINC09486157
REMARK  9 active torsions:
REMARK  status: ('A' for Active; 'I' for Inactive)
REMARK    1  A    between atoms: C_1  and  C_2
REMARK    2  A    between atoms: C_4  and  C_33
REMARK    3  A    between atoms: C_11  and  C_13
REMARK    4  A    between atoms: C_14  and  C_20
REMARK    5  A    between atoms: C_23  and  O_28
REMARK    6  A    between atoms: C_24  and  O_26
REMARK    7  A    between atoms: O_26  and  C_27
REMARK    8  A    between atoms: O_28  and  C_29
REMARK    9  A    between atoms: C_29  and  C_30
REMARK                            x       y       z     vdW  Elec       q    Type
REMARK                         _______ _______ _______ _____ _____    ______ ____
ROOT
ATOM      1  C   UNL     1      -0.018   1.503   0.010  0.00  0.00    +0.066 C 
ATOM      2  C   UNL     1       0.002  -0.004   0.002  0.00  0.00    +0.044 A 
ATOM      3  C   UNL     1       0.006  -0.699  -1.197  0.00  0.00    +0.046 A 
ATOM      4  C   UNL     1       0.025  -2.085  -1.159  0.00  0.00    +0.044 A 
ATOM      5  N   UNL     1       0.040  -2.697   0.013  0.00  0.00    -0.216 NA
ATOM      6  C   UNL     1       0.035  -2.003   1.140  0.00  0.00    +0.253 A 
ATOM      7  N   UNL     1       0.022  -0.680   1.139  0.00  0.00    -0.216 NA
ATOM      8  N   UNL     1       0.051  -2.682   2.357  0.00  0.00    -0.183 N 
ATOM      9  C   UNL     1       0.043  -2.119   3.584  0.00  0.00    +0.136 A 
ATOM     10  C   UNL     1       0.051  -3.133   4.504  0.00  0.00    +0.023 A 
ATOM     11  C   UNL     1       0.075  -4.337   3.814  0.00  0.00    +0.066 A 
ATOM     12  N   UNL     1       0.070  -4.076   2.528  0.00  0.00    -0.167 NA
ATOM     13  C   UNL     1       0.096  -5.710   4.436  0.00  0.00    +0.068 C 
ATOM     14  C   UNL     1       0.026  -2.875   5.989  0.00  0.00    +0.063 C 
ATOM     15  C   UNL     1       0.692  -1.521   6.253  0.00  0.00    +0.109 C 
ATOM     16  C   UNL     1       0.229  -0.485   5.268  0.00  0.00    +0.219 C 
ATOM     17  O   UNL     1       0.040   0.649   5.652  0.00  0.00    -0.275 OA
ATOM     18  N   UNL     1       0.016  -0.779   3.967  0.00  0.00    -0.270 N 
ATOM     19  C   UNL     1       0.030  -2.883  -2.437  0.00  0.00    +0.066 C 
ATOM     20  H   UNL     1      -0.151  -0.078   3.318  0.00  0.00    +0.156 HD
ENDROOT
BRANCH  14  21
ATOM     21  C   UNL     1      -1.401  -2.844   6.475  0.00  0.00    -0.036 A 
ATOM     22  C   UNL     1      -2.285  -1.916   5.957  0.00  0.00    +0.008 A 
ATOM     23  C   UNL     1      -3.595  -1.884   6.400  0.00  0.00    +0.050 A 
ATOM     24  C   UNL     1      -4.023  -2.782   7.364  0.00  0.00    +0.163 A 
ATOM     25  C   UNL     1      -3.132  -3.716   7.885  0.00  0.00    +0.162 A 
ATOM     26  C   UNL     1      -1.823  -3.746   7.434  0.00  0.00    +0.053 A 
BRANCH  25  27
ATOM     27  O   UNL     1      -3.548  -4.600   8.831  0.00  0.00    -0.491 OA
ATOM     28  C   UNL     1      -2.579  -5.529   9.320  0.00  0.00    +0.277 C 
ENDBRANCH  25  27
BRANCH  24  29
ATOM     29  O   UNL     1      -5.310  -2.751   7.801  0.00  0.00    -0.479 OA
BRANCH  29  30
ATOM     30  C   UNL     1      -6.168  -1.765   7.222  0.00  0.00    +0.324 C 
BRANCH  30  31
ATOM     31  C   UNL     1      -7.545  -1.882   7.824  0.00  0.00    +0.248 C 
ATOM     32  O   UNL     1      -7.769  -2.726   8.665  0.00  0.00    -0.272 OA
ATOM     33  N   UNL     1      -8.527  -1.048   7.427  0.00  0.00    -0.327 N 
ATOM     34  H   UNL     1      -8.347  -0.373   6.754  0.00  0.00    +0.145 HD
ATOM     35  H   UNL     1      -9.413  -1.123   7.814  0.00  0.00    +0.145 HD
ENDBRANCH  30  31
ENDBRANCH  29  30
ENDBRANCH  24  29
ENDBRANCH  14  21
TORSDOF 5
