REMARK  Name = ZINC67643689
REMARK  6 active torsions:
REMARK  status: ('A' for Active; 'I' for Inactive)
REMARK    1  A    between atoms: C_1  and  C_2
REMARK    2  A    between atoms: C_2  and  C_3
REMARK    3  A    between atoms: C_2  and  C_4
REMARK    4  A    between atoms: C_9  and  N_10
REMARK    5  A    between atoms: C_13  and  C_19
REMARK    6  A    between atoms: C_15  and  O_18
REMARK                            x       y       z     vdW  Elec       q    Type
REMARK                         _______ _______ _______ _____ _____    ______ ____
ROOT
ATOM      1  N   UNL     1      -1.225  -1.770  -2.171  0.00  0.00    -0.312 N 
ATOM      2  C   UNL     1       0.214  -1.483  -2.245  0.00  0.00    +0.107 C 
ATOM      3  C   UNL     1       0.963  -2.789  -2.527  0.00  0.00    +0.029 C 
ATOM      4  C   UNL     1       0.387  -3.441  -3.786  0.00  0.00    +0.051 C 
ATOM      5  C   UNL     1      -1.090  -3.771  -3.561  0.00  0.00    +0.139 C 
ATOM      6  C   UNL     1      -1.862  -2.482  -3.287  0.00  0.00    +0.138 C 
ENDROOT
BRANCH   4   7
ATOM      7  C   UNL     1       1.144  -4.709  -4.086  0.00  0.00    -0.038 A 
ATOM      8  C   UNL     1       1.164  -5.736  -3.161  0.00  0.00    +0.008 A 
ATOM      9  C   UNL     1       1.857  -6.902  -3.432  0.00  0.00    +0.050 A 
ATOM     10  C   UNL     1       2.534  -7.042  -4.632  0.00  0.00    +0.166 A 
ATOM     11  C   UNL     1       2.514  -6.008  -5.564  0.00  0.00    +0.166 A 
ATOM     12  C   UNL     1       1.813  -4.845  -5.288  0.00  0.00    +0.053 A 
ATOM     13  O   UNL     1       3.248  -6.386  -6.651  0.00  0.00    -0.453 OA
ATOM     14  C   UNL     1       4.052  -7.494  -6.206  0.00  0.00    +0.466 C 
ATOM     15  O   UNL     1       3.280  -8.069  -5.135  0.00  0.00    -0.453 OA
ENDBRANCH   4   7
BRANCH   1  21
ATOM     16  C   UNL     1      -2.587  -0.132  -1.032  0.00  0.00    +0.013 A 
ATOM     17  C   UNL     1      -3.320   0.206   0.089  0.00  0.00    +0.119 A 
ATOM     18  N   UNL     1      -3.405  -0.659   1.090  0.00  0.00    -0.243 NA
ATOM     19  C   UNL     1      -2.802  -1.829   1.030  0.00  0.00    +0.223 A 
ATOM     20  N   UNL     1      -2.093  -2.193  -0.019  0.00  0.00    -0.220 NA
ATOM     21  C   UNL     1      -1.966  -1.382  -1.066  0.00  0.00    +0.128 A 
BRANCH  16  23
ATOM     22  C   UNL     1      -3.857   1.128  -2.749  0.00  0.00    +0.012 C 
ATOM     23  C   UNL     1      -2.466   0.822  -2.192  0.00  0.00    +0.018 C 
ATOM     24  C   UNL     1      -1.810   2.121  -1.718  0.00  0.00    +0.012 C 
ENDBRANCH  16  23
ENDBRANCH   1  21
BRANCH   5  25
ATOM     25  O   UNL     1      -1.619  -4.409  -4.725  0.00  0.00    -0.390 OA
ATOM     26  H   UNL     1      -2.554  -4.647  -4.653  0.00  0.00    +0.210 HD
ENDBRANCH   5  25
TORSDOF 4
