REMARK  Name = ZINC22866419
REMARK  5 active torsions:
REMARK  status: ('A' for Active; 'I' for Inactive)
REMARK    1  A    between atoms: N_9  and  C_26
REMARK    2  A    between atoms: C_10  and  S_12
REMARK    3  A    between atoms: S_12  and  C_13
REMARK    4  A    between atoms: C_13  and  C_14
REMARK    5  A    between atoms: N_16  and  C_17
REMARK                            x       y       z     vdW  Elec       q    Type
REMARK                         _______ _______ _______ _____ _____    ______ ____
ROOT
ATOM      1  C   UNL     1       2.381   1.420   0.047  0.00  0.00    +0.001 A 
ATOM      2  C   UNL     1       1.162   2.085   0.058  0.00  0.00    +0.002 A 
ATOM      3  C   UNL     1      -0.016   1.393   0.056  0.00  0.00    +0.028 A 
ATOM      4  C   UNL     1       0.003  -0.005   0.043  0.00  0.00    +0.079 A 
ATOM      5  C   UNL     1       1.246  -0.678   0.031  0.00  0.00    +0.065 A 
ATOM      6  C   UNL     1       2.432   0.053   0.034  0.00  0.00    +0.015 A 
ATOM      7  C   UNL     1       1.239  -2.147   0.017  0.00  0.00    +0.263 A 
ATOM      8  O   UNL     1       2.277  -2.783   0.007  0.00  0.00    -0.267 OA
ATOM      9  N   UNL     1       0.036  -2.767   0.015  0.00  0.00    -0.284 N 
ATOM     10  C   UNL     1      -1.119  -2.037   0.026  0.00  0.00    +0.173 A 
ATOM     11  N   UNL     1      -1.136  -0.727   0.040  0.00  0.00    -0.223 NA
ENDROOT
BRANCH   9  12
ATOM     12  C   UNL     1      -0.029  -4.230   0.001  0.00  0.00    +0.093 C 
ATOM     13  C   UNL     1       0.722  -4.804   1.220  0.00  0.00    +0.025 C 
ATOM     14  C   UNL     1       1.404  -6.086   0.677  0.00  0.00    +0.002 C 
ATOM     15  C   UNL     1       1.839  -5.664  -0.748  0.00  0.00    +0.002 C 
ATOM     16  C   UNL     1       0.681  -4.777  -1.250  0.00  0.00    +0.025 C 
ENDBRANCH   9  12
BRANCH  10  17
ATOM     17  S   UNL     1      -2.656  -2.898   0.023  0.00  0.00    -0.078 S 
BRANCH  17  18
ATOM     18  C   UNL     1      -3.801  -1.496   0.040  0.00  0.00    +0.173 C 
BRANCH  18  19
ATOM     19  C   UNL     1      -5.219  -2.006   0.040  0.00  0.00    +0.228 C 
ATOM     20  O   UNL     1      -5.435  -3.199   0.029  0.00  0.00    -0.275 OA
ATOM     21  N   UNL     1      -6.248  -1.135   0.052  0.00  0.00    -0.283 N 
ATOM     22  H   UNL     1      -6.054  -0.056   0.137  0.00  0.00    +0.155 HD
BRANCH  21  23
ATOM     23  C   UNL     1      -7.560  -1.603  -0.045  0.00  0.00    +0.062 A 
ATOM     24  C   UNL     1      -7.905  -2.787   0.531  0.00  0.00    +0.025 A 
ATOM     25  C   UNL     1      -9.206  -3.282   0.454  0.00  0.00    +0.004 A 
ATOM     26  C   UNL     1     -10.184  -2.608  -0.198  0.00  0.00    +0.031 A 
ATOM     27  C   UNL     1      -9.900  -1.366  -0.824  0.00  0.00    +0.102 A 
ATOM     28  C   UNL     1      -8.541  -0.840  -0.741  0.00  0.00    +0.121 A 
ATOM     29  N   UNL     1      -8.418   0.329  -1.363  0.00  0.00    -0.189 NA
ATOM     30  S   UNL     1      -9.835   0.669  -1.941  0.00  0.00    +0.117 S 
ATOM     31  N   UNL     1     -10.709  -0.557  -1.505  0.00  0.00    -0.191 NA
ENDBRANCH  21  23
ENDBRANCH  18  19
ENDBRANCH  17  18
ENDBRANCH  10  17
TORSDOF 5
