REMARK  Name = ZINC06498689
REMARK  5 active torsions:
REMARK  status: ('A' for Active; 'I' for Inactive)
REMARK    1  A    between atoms: C_1  and  C_2
REMARK    2  A    between atoms: C_7  and  C_27
REMARK    3  A    between atoms: C_17  and  C_19
REMARK    4  A    between atoms: C_19  and  O_20
REMARK    5  A    between atoms: O_20  and  C_21
REMARK                            x       y       z     vdW  Elec       q    Type
REMARK                         _______ _______ _______ _____ _____    ______ ____
ROOT
ATOM      1  C   UNL     1      -0.019   1.526   0.010  0.00  0.00    +0.008 C 
ATOM      2  C   UNL     1       0.002  -0.004   0.002  0.00  0.00    -0.001 C 
ATOM      3  C   UNL     1       0.753  -0.505  -1.230  0.00  0.00    +0.055 C 
ATOM      4  C   UNL     1       0.786  -2.025  -1.234  0.00  0.00    +0.017 C 
ATOM      5  C   UNL     1       0.839  -2.705  -0.078  0.00  0.00    +0.040 C 
ATOM      6  C   UNL     1       0.913  -4.207   0.065  0.00  0.00    +0.182 C 
ATOM      7  N   UNL     1       0.659  -4.937  -1.159  0.00  0.00    -0.252 N 
ATOM      8  C   UNL     1       1.516  -4.829  -2.255  0.00  0.00    +0.059 A 
ATOM      9  C   UNL     1       2.253  -5.911  -2.708  0.00  0.00    +0.025 A 
ATOM     10  C   UNL     1       3.124  -5.745  -3.770  0.00  0.00    +0.002 A 
ATOM     11  C   UNL     1       3.261  -4.509  -4.376  0.00  0.00    +0.002 A 
ATOM     12  C   UNL     1       2.514  -3.429  -3.937  0.00  0.00    +0.025 A 
ATOM     13  C   UNL     1       1.627  -3.600  -2.888  0.00  0.00    +0.053 A 
ATOM     14  N   UNL     1       0.771  -2.589  -2.469  0.00  0.00    -0.316 N 
ATOM     15  C   UNL     1      -0.424  -5.736  -1.242  0.00  0.00    +0.258 C 
ATOM     16  O   UNL     1      -1.176  -5.838  -0.295  0.00  0.00    -0.271 OA
ATOM     17  C   UNL     1       0.831  -2.015   1.157  0.00  0.00    +0.163 C 
ATOM     18  O   UNL     1       0.898  -2.656   2.188  0.00  0.00    -0.292 OA
ATOM     19  C   UNL     1       0.742  -0.521   1.242  0.00  0.00    +0.083 C 
ATOM     20  H   UNL     1       0.044  -2.248  -3.220  0.00  0.00    +0.152 HD
ENDROOT
BRANCH   6  21
ATOM     21  C   UNL     1       2.289  -4.573   0.559  0.00  0.00    +0.130 A 
ATOM     22  C   UNL     1       2.615  -4.868   1.830  0.00  0.00    +0.047 A 
ATOM     23  C   UNL     1       4.001  -5.149   1.842  0.00  0.00    +0.041 A 
ATOM     24  C   UNL     1       4.438  -5.009   0.578  0.00  0.00    +0.195 A 
ATOM     25  O   UNL     1       3.396  -4.666  -0.196  0.00  0.00    -0.466 OA
ENDBRANCH   6  21
BRANCH  15  26
ATOM     26  C   UNL     1      -0.701  -6.501  -2.510  0.00  0.00    +0.325 C 
BRANCH  26  27
ATOM     27  O   UNL     1      -1.895  -7.269  -2.351  0.00  0.00    -0.483 OA
BRANCH  27  28
ATOM     28  C   UNL     1      -2.289  -8.024  -3.411  0.00  0.00    +0.121 A 
ATOM     29  C   UNL     1      -1.545  -8.020  -4.581  0.00  0.00    +0.045 A 
ATOM     30  C   UNL     1      -1.944  -8.792  -5.655  0.00  0.00    +0.004 A 
ATOM     31  C   UNL     1      -3.091  -9.559  -5.568  0.00  0.00    +0.000 A 
ATOM     32  C   UNL     1      -3.838  -9.560  -4.405  0.00  0.00    +0.004 A 
ATOM     33  C   UNL     1      -3.440  -8.794  -3.326  0.00  0.00    +0.045 A 
ENDBRANCH  27  28
ENDBRANCH  26  27
ENDBRANCH  15  26
TORSDOF 4
