REMARK  Name = ZINC08904046
REMARK  12 active torsions:
REMARK  status: ('A' for Active; 'I' for Inactive)
REMARK    1  A    between atoms: C_1  and  C_2
REMARK    2  A    between atoms: C_2  and  C_3
REMARK    3  A    between atoms: C_3  and  C_4
REMARK    4  A    between atoms: C_4  and  O_5
REMARK    5  A    between atoms: O_5  and  C_6
REMARK    6  A    between atoms: C_11  and  C_12
REMARK    7  A    between atoms: C_15  and  C_26
REMARK    8  A    between atoms: C_21  and  N_25
REMARK    9  A    between atoms: C_22  and  C_23
REMARK   10  A    between atoms: C_26  and  C_27
REMARK   11  A    between atoms: C_26  and  C_28
REMARK   12  A    between atoms: C_26  and  C_29
REMARK                            x       y       z     vdW  Elec       q    Type
REMARK                         _______ _______ _______ _____ _____    ______ ____
ROOT
ATOM      1  C   UNL     1       2.873  -3.080  -5.099  0.00  0.00    +0.105 C 
ATOM      2  C   UNL     1       2.182  -3.668  -6.303  0.00  0.00    +0.050 A 
ATOM      3  C   UNL     1       0.842  -3.609  -6.663  0.00  0.00    +0.076 A 
ATOM      4  N   UNL     1       0.694  -4.265  -7.790  0.00  0.00    -0.175 NA
ATOM      5  N   UNL     1       1.947  -4.763  -8.181  0.00  0.00    -0.246 N 
ATOM      6  H   UNL     1       2.131  -5.287  -8.976  0.00  0.00    +0.192 HD
ATOM      7  C   UNL     1       2.846  -4.387  -7.257  0.00  0.00    +0.222 A 
ATOM      8  O   UNL     1       4.180  -4.625  -7.198  0.00  0.00    -0.423 OA
ATOM      9  C   UNL     1       4.904  -3.906  -6.316  0.00  0.00    +0.200 C 
ATOM     10  C   UNL     1       4.362  -3.168  -5.321  0.00  0.00    +0.098 C 
ENDROOT
BRANCH   1  16
ATOM     11  C   UNL     1       2.178  -3.189  -2.693  0.00  0.00    +0.125 A 
ATOM     12  C   UNL     1       1.826  -3.909  -1.560  0.00  0.00    +0.046 A 
ATOM     13  C   UNL     1       1.798  -5.289  -1.601  0.00  0.00    +0.004 A 
ATOM     14  C   UNL     1       2.120  -5.954  -2.770  0.00  0.00    +0.001 A 
ATOM     15  C   UNL     1       2.471  -5.240  -3.900  0.00  0.00    +0.008 A 
ATOM     16  C   UNL     1       2.495  -3.859  -3.866  0.00  0.00    +0.007 A 
BRANCH  11  17
ATOM     17  O   UNL     1       2.206  -1.831  -2.655  0.00  0.00    -0.492 OA
BRANCH  17  18
ATOM     18  C   UNL     1       1.867  -1.210  -1.414  0.00  0.00    +0.229 C 
BRANCH  18  19
ATOM     19  C   UNL     1       1.954   0.310  -1.564  0.00  0.00    +0.041 C 
BRANCH  19  21
ATOM     20  C   UNL     1       1.677   2.496  -0.386  0.00  0.00    +0.004 C 
ATOM     21  C   UNL     1       1.591   0.976  -0.235  0.00  0.00    -0.000 C 
ENDBRANCH  19  21
ENDBRANCH  18  19
ENDBRANCH  17  18
ENDBRANCH  11  17
ENDBRANCH   1  16
BRANCH   3  22
ATOM     22  C   UNL     1      -0.251  -2.913  -5.894  0.00  0.00    +0.007 C 
ATOM     23  C   UNL     1       0.167  -1.470  -5.605  0.00  0.00    +0.017 C 
ATOM     24  C   UNL     1      -1.538  -2.914  -6.723  0.00  0.00    +0.017 C 
ATOM     25  C   UNL     1      -0.494  -3.648  -4.575  0.00  0.00    +0.017 C 
ENDBRANCH   3  22
BRANCH   9  26
ATOM     26  N   UNL     1       6.271  -3.927  -6.434  0.00  0.00    -0.328 N 
ATOM     27  H   UNL     1       6.690  -4.448  -7.137  0.00  0.00    +0.145 HD
ATOM     28  H   UNL     1       6.819  -3.421  -5.814  0.00  0.00    +0.145 HD
ENDBRANCH   9  26
BRANCH  10  29
ATOM     29  C   UNL     1       5.233  -2.442  -4.447  0.00  0.00    +0.101 C 
ATOM     30  N   UNL     1       5.924  -1.866  -3.753  0.00  0.00    -0.191 NA
ENDBRANCH  10  29
TORSDOF 8
