REMARK  Name = ZINC39847801
REMARK  12 active torsions:
REMARK  status: ('A' for Active; 'I' for Inactive)
REMARK    1  A    between atoms: C_1  and  C_2
REMARK    2  A    between atoms: C_2  and  C_3
REMARK    3  A    between atoms: C_2  and  C_4
REMARK    4  A    between atoms: C_7  and  C_10
REMARK    5  A    between atoms: C_12  and  C_26
REMARK    6  A    between atoms: N_16  and  C_17
REMARK    7  A    between atoms: C_17  and  C_18
REMARK    8  A    between atoms: C_18  and  C_19
REMARK    9  A    between atoms: C_19  and  N_20
REMARK   10  A    between atoms: C_26  and  C_28
REMARK   11  A    between atoms: C_33  and  O_38
REMARK   12  A    between atoms: O_38  and  C_39
REMARK                            x       y       z     vdW  Elec       q    Type
REMARK                         _______ _______ _______ _____ _____    ______ ____
ROOT
ATOM      1  C   UNL     1      -5.379  -1.996   0.044  0.00  0.00    +0.145 C 
ATOM      2  C   UNL     1      -5.416  -3.474   0.355  0.00  0.00    +0.076 C 
ATOM      3  C   UNL     1      -5.990  -4.083  -0.708  0.00  0.00    +0.249 C 
ATOM      4  C   UNL     1      -6.340  -3.064  -1.721  0.00  0.00    +0.288 C 
ATOM      5  O   UNL     1      -6.870  -3.297  -2.789  0.00  0.00    -0.266 OA
ATOM      6  N   UNL     1      -5.984  -1.841  -1.285  0.00  0.00    -0.283 N 
ATOM      7  O   UNL     1      -6.210  -5.413  -0.825  0.00  0.00    -0.282 OA
ENDROOT
BRANCH   1  11
ATOM      8  C   UNL     1      -1.339  -0.608  -0.011  0.00  0.00    -0.045 A 
ATOM      9  C   UNL     1      -2.198  -0.197   0.992  0.00  0.00    +0.004 A 
ATOM     10  C   UNL     1      -3.505  -0.646   1.009  0.00  0.00    +0.006 A 
ATOM     11  C   UNL     1      -3.954  -1.506   0.024  0.00  0.00    -0.022 A 
ATOM     12  C   UNL     1      -3.096  -1.916  -0.979  0.00  0.00    +0.006 A 
ATOM     13  C   UNL     1      -1.790  -1.464  -0.999  0.00  0.00    +0.004 A 
BRANCH   8  15
ATOM     14  C   UNL     1       0.100   1.408  -0.127  0.00  0.00    +0.012 C 
ATOM     15  C   UNL     1       0.086  -0.119  -0.029  0.00  0.00    +0.013 C 
ATOM     16  C   UNL     1       0.792  -0.554   1.256  0.00  0.00    +0.012 C 
ENDBRANCH   8  15
ENDBRANCH   1  11
BRANCH   2  17
ATOM     17  C   UNL     1      -4.924  -4.122   1.574  0.00  0.00    +0.195 C 
ATOM     18  O   UNL     1      -3.974  -4.881   1.519  0.00  0.00    -0.287 OA
BRANCH  17  19
ATOM     19  C   UNL     1      -5.581  -3.856   2.870  0.00  0.00    +0.023 A 
ATOM     20  C   UNL     1      -6.753  -3.077   2.911  0.00  0.00    +0.012 A 
ATOM     21  C   UNL     1      -7.374  -2.820   4.089  0.00  0.00    +0.009 A 
ATOM     22  C   UNL     1      -6.848  -3.332   5.291  0.00  0.00    -0.014 A 
ATOM     23  C   UNL     1      -7.476  -3.077   6.519  0.00  0.00    +0.054 A 
ATOM     24  C   UNL     1      -6.938  -3.592   7.677  0.00  0.00    +0.121 A 
ATOM     25  C   UNL     1      -5.773  -4.367   7.642  0.00  0.00    +0.046 A 
ATOM     26  C   UNL     1      -5.145  -4.629   6.465  0.00  0.00    +0.012 A 
ATOM     27  C   UNL     1      -5.668  -4.118   5.262  0.00  0.00    -0.017 A 
ATOM     28  C   UNL     1      -5.042  -4.379   4.035  0.00  0.00    +0.020 A 
BRANCH  24  29
ATOM     29  O   UNL     1      -7.544  -3.346   8.867  0.00  0.00    -0.495 OA
ATOM     30  C   UNL     1      -6.938  -3.908  10.033  0.00  0.00    +0.277 C 
ENDBRANCH  24  29
ENDBRANCH  17  19
ENDBRANCH   2  17
BRANCH   6  31
ATOM     31  C   UNL     1      -6.168  -0.580  -2.007  0.00  0.00    +0.111 C 
BRANCH  31  32
ATOM     32  C   UNL     1      -4.935  -0.300  -2.868  0.00  0.00    +0.040 C 
BRANCH  32  33
ATOM     33  C   UNL     1      -5.127   1.017  -3.622  0.00  0.00    +0.124 C 
BRANCH  33  34
ATOM     34  N   UNL     1      -3.946   1.285  -4.446  0.00  0.00    -0.338 N 
ATOM     35  C   UNL     1      -2.828   1.975  -4.063  0.00  0.00    +0.104 A 
ATOM     36  C   UNL     1      -1.994   1.984  -5.121  0.00  0.00    +0.101 A 
ATOM     37  N   UNL     1      -2.587   1.317  -6.122  0.00  0.00    -0.352 N 
ATOM     38  C   UNL     1      -3.755   0.891  -5.724  0.00  0.00    +0.173 A 
ATOM     39  H   UNL     1      -2.207   1.172  -7.003  0.00  0.00    +0.166 HD
ENDBRANCH  33  34
ENDBRANCH  32  33
ENDBRANCH  31  32
ENDBRANCH   6  31
TORSDOF 9
