REMARK  Name = ZINC35559559
REMARK  5 active torsions:
REMARK  status: ('A' for Active; 'I' for Inactive)
REMARK    1  A    between atoms: C_1  and  C_2
REMARK    2  A    between atoms: C_2  and  N_3
REMARK    3  A    between atoms: N_3  and  C_4
REMARK    4  A    between atoms: C_4  and  C_6
REMARK    5  A    between atoms: C_4  and  C_13
REMARK                            x       y       z     vdW  Elec       q    Type
REMARK                         _______ _______ _______ _____ _____    ______ ____
ROOT
ATOM      1  C   UNL     1       0.710  -1.947  -1.215  0.00  0.00    +0.006 C 
ENDROOT
BRANCH   1   2
ATOM      2  C   UNL     1      -0.722  -2.475  -1.330  0.00  0.00    +0.201 C 
ATOM      3  C   UNL     1      -0.717  -4.007  -1.228  0.00  0.00    +0.272 C 
ATOM      4  O   UNL     1      -2.067  -4.468  -1.353  0.00  0.00    -0.485 OA
ATOM      5  C   UNL     1      -2.806  -3.929  -2.360  0.00  0.00    +0.162 A 
ATOM      6  C   UNL     1      -3.968  -4.568  -2.769  0.00  0.00    +0.049 A 
ATOM      7  C   UNL     1      -4.731  -4.031  -3.788  0.00  0.00    +0.004 A 
ATOM      8  C   UNL     1      -4.340  -2.856  -4.403  0.00  0.00    +0.004 A 
ATOM      9  C   UNL     1      -3.183  -2.215  -4.001  0.00  0.00    +0.049 A 
ATOM     10  C   UNL     1      -2.411  -2.750  -2.980  0.00  0.00    +0.162 A 
ATOM     11  O   UNL     1      -1.270  -2.111  -2.601  0.00  0.00    -0.483 OA
ENDBRANCH   1   2
BRANCH   1  12
ATOM     12  C   UNL     1       1.520  -2.432  -2.389  0.00  0.00    -0.031 A 
ATOM     13  C   UNL     1       1.763  -1.599  -3.466  0.00  0.00    +0.031 A 
ATOM     14  C   UNL     1       2.497  -2.067  -4.506  0.00  0.00    +0.080 A 
ATOM     15  S   UNL     1       2.869  -3.731  -3.977  0.00  0.00    -0.065 S 
ATOM     16  C   UNL     1       2.027  -3.689  -2.403  0.00  0.00    +0.081 A 
ATOM     17 CL   UNL     1       1.892  -4.936  -1.203  0.00  0.00    -0.076 Cl
ATOM     18 CL   UNL     1       2.954  -1.259  -5.973  0.00  0.00    -0.076 Cl
ENDBRANCH   1  12
BRANCH   1  19
ATOM     19  N   UNL     1       0.690  -0.478  -1.207  0.00  0.00    +0.386 N 
ATOM     20  H   UNL     1       0.202  -0.144  -2.024  0.00  0.00    -0.085 HD
ATOM     21  H   UNL     1       1.636  -0.129  -1.214  0.00  0.00    -0.085 HD
BRANCH  19  23
ATOM     22  C   UNL     1      -0.019   1.526   0.010  0.00  0.00    -0.017 C 
ATOM     23  C   UNL     1       0.002  -0.004   0.002  0.00  0.00    -0.085 C 
ENDBRANCH  19  23
ENDBRANCH   1  19
TORSDOF 4
