REMARK  Name = ZINC17008610
REMARK  4 active torsions:
REMARK  status: ('A' for Active; 'I' for Inactive)
REMARK    1  A    between atoms: C_1  and  C_2
REMARK    2  A    between atoms: C_5  and  C_24
REMARK    3  A    between atoms: C_6  and  N_8
REMARK    4  A    between atoms: C_18  and  C_21
REMARK                            x       y       z     vdW  Elec       q    Type
REMARK                         _______ _______ _______ _____ _____    ______ ____
ROOT
ATOM      1  N   UNL     1       1.238   2.552   1.550  0.00  0.00    -0.209 N 
ATOM      2  C   UNL     1       1.401   1.225   1.905  0.00  0.00    +0.231 C 
ATOM      3  O   UNL     1       2.392   0.535   1.811  0.00  0.00    -0.274 OA
ATOM      4  C   UNL     1       0.053   0.882   2.449  0.00  0.00    +0.098 C 
ATOM      5  C   UNL     1      -0.606  -0.505   2.463  0.00  0.00    +0.025 C 
ATOM      6  C   UNL     1      -1.477  -0.629   1.158  0.00  0.00    +0.017 C 
ATOM      7  C   UNL     1      -2.009   0.865   1.250  0.00  0.00    +0.027 C 
ATOM      8  C   UNL     1      -0.725   1.576   1.260  0.00  0.00    +0.063 C 
ATOM      9  C   UNL     1      -0.094   2.883   1.367  0.00  0.00    +0.233 C 
ATOM     10  O   UNL     1      -0.612   3.972   1.310  0.00  0.00    -0.274 OA
ATOM     11  C   UNL     1      -0.013   1.086   0.008  0.00  0.00    +0.022 C 
ATOM     12  C   UNL     1      -2.586   0.696   2.662  0.00  0.00    -0.026 C 
ATOM     13  C   UNL     1      -1.804  -0.092   3.386  0.00  0.00    -0.027 C 
ENDROOT
BRANCH   1  19
ATOM     14  C   UNL     1       4.503   4.620  -1.491  0.00  0.00    +0.044 C 
ATOM     15  C   UNL     1       3.897   4.469  -0.120  0.00  0.00    -0.049 A 
ATOM     16  C   UNL     1       4.384   5.216   0.937  0.00  0.00    +0.004 A 
ATOM     17  C   UNL     1       3.831   5.080   2.196  0.00  0.00    +0.005 A 
ATOM     18  C   UNL     1       2.784   4.203   2.402  0.00  0.00    -0.029 A 
ATOM     19  C   UNL     1       2.296   3.448   1.344  0.00  0.00    +0.047 A 
ATOM     20  C   UNL     1       2.854   3.586   0.080  0.00  0.00    +0.027 A 
ATOM     21  C   UNL     1       2.176   4.061   3.773  0.00  0.00    +0.045 C 
ENDBRANCH   1  19
TORSDOF 1
