REMARK  Name = ZINC04090300
REMARK  5 active torsions:
REMARK  status: ('A' for Active; 'I' for Inactive)
REMARK    1  A    between atoms: C_4  and  S_7
REMARK    2  A    between atoms: S_7  and  C_8
REMARK    3  A    between atoms: C_11  and  C_13
REMARK    4  A    between atoms: C_14  and  C_15
REMARK    5  A    between atoms: C_14  and  C_17
REMARK                            x       y       z     vdW  Elec       q    Type
REMARK                         _______ _______ _______ _____ _____    ______ ____
ROOT
ATOM      1  C   UNL     1       0.766  -4.947  -0.139  0.00  0.00    +0.064 C 
ATOM      2  C   UNL     1      -0.429  -4.321  -0.322  0.00  0.00    +0.071 C 
ENDROOT
BRANCH   2   3
ATOM      3  C   UNL     1      -1.687  -5.133  -0.491  0.00  0.00    +0.198 C 
ATOM      4  N   UNL     1      -2.352  -4.781  -1.751  0.00  0.00    -0.320 N 
ATOM      5  C   UNL     1      -3.621  -4.281  -1.428  0.00  0.00    +0.050 A 
ATOM      6  C   UNL     1      -4.641  -3.811  -2.247  0.00  0.00    +0.025 A 
ATOM      7  C   UNL     1      -5.824  -3.361  -1.693  0.00  0.00    +0.002 A 
ATOM      8  C   UNL     1      -5.998  -3.376  -0.322  0.00  0.00    +0.002 A 
ATOM      9  C   UNL     1      -4.990  -3.841   0.500  0.00  0.00    +0.025 A 
ATOM     10  C   UNL     1      -3.796  -4.296  -0.048  0.00  0.00    +0.050 A 
ATOM     11  N   UNL     1      -2.647  -4.807   0.571  0.00  0.00    -0.320 N 
ATOM     12  H   UNL     1      -1.981  -4.876  -2.643  0.00  0.00    +0.148 HD
ATOM     13  H   UNL     1      -2.511  -4.923   1.524  0.00  0.00    +0.148 HD
ENDBRANCH   2   3
BRANCH   1  17
ATOM     14  C   UNL     1       3.340  -2.485  -0.069  0.00  0.00    +0.167 A 
ATOM     15  C   UNL     1       4.108  -3.611  -0.005  0.00  0.00    +0.057 A 
ATOM     16  C   UNL     1       3.240  -4.705  -0.023  0.00  0.00    +0.050 A 
ATOM     17  C   UNL     1       1.957  -4.194  -0.098  0.00  0.00    +0.130 A 
ATOM     18  O   UNL     1       2.047  -2.845  -0.119  0.00  0.00    -0.449 OA
BRANCH  14  19
ATOM     19  S   UNL     1       3.944  -0.830  -0.076  0.00  0.00    -0.052 S 
BRANCH  19  23
ATOM     20  C   UNL     1       4.169   0.235  -4.473  0.00  0.00    +0.000 A 
ATOM     21  C   UNL     1       4.439   1.196  -3.515  0.00  0.00    +0.001 A 
ATOM     22  C   UNL     1       4.371   0.875  -2.174  0.00  0.00    +0.015 A 
ATOM     23  C   UNL     1       4.031  -0.415  -1.786  0.00  0.00    +0.016 A 
ATOM     24  C   UNL     1       3.760  -1.379  -2.751  0.00  0.00    +0.015 A 
ATOM     25  C   UNL     1       3.830  -1.050  -4.090  0.00  0.00    +0.001 A 
ENDBRANCH  19  23
ENDBRANCH  14  19
ENDBRANCH   1  17
BRANCH   2  26
ATOM     26  C   UNL     1      -0.490  -2.890  -0.354  0.00  0.00    +0.098 C 
ATOM     27  N   UNL     1      -0.538  -1.756  -0.379  0.00  0.00    -0.191 NA
ENDBRANCH   2  26
TORSDOF 5
