REMARK  Name = ZINC36061399
REMARK  16 active torsions:
REMARK  status: ('A' for Active; 'I' for Inactive)
REMARK    1  A    between atoms: C_1  and  C_2
REMARK    2  A    between atoms: C_3  and  C_33
REMARK    3  A    between atoms: C_4  and  C_23
REMARK    4  A    between atoms: C_7  and  C_12
REMARK    5  A    between atoms: C_13  and  N_15
REMARK    6  A    between atoms: N_15  and  C_16
REMARK    7  A    between atoms: C_16  and  C_17
REMARK    8  A    between atoms: C_26  and  O_31
REMARK    9  A    between atoms: C_27  and  O_29
REMARK   10  A    between atoms: O_29  and  C_30
REMARK   11  A    between atoms: O_31  and  C_32
REMARK   12  A    between atoms: C_33  and  O_35
REMARK   13  A    between atoms: O_35  and  C_36
REMARK   14  A    between atoms: C_36  and  C_37
REMARK   15  A    between atoms: C_36  and  C_38
REMARK   16  A    between atoms: C_36  and  C_39
REMARK                            x       y       z     vdW  Elec       q    Type
REMARK                         _______ _______ _______ _____ _____    ______ ____
ROOT
ATOM      1  C   UNL     1       1.313   0.043  -0.950  0.00  0.00    +0.066 C 
ATOM      2  C   UNL     1       0.947  -1.377  -0.604  0.00  0.00    +0.053 C 
ATOM      3  C   UNL     1      -0.370  -1.702  -0.342  0.00  0.00    +0.083 C 
ATOM      4  C   UNL     1      -0.687  -3.141   0.000  0.00  0.00    +0.150 C 
ATOM      5  N   UNL     1       0.452  -4.096   0.027  0.00  0.00    -0.267 N 
ATOM      6  C   UNL     1       0.397  -5.447   0.311  0.00  0.00    +0.048 C 
ATOM      7  C   UNL     1       1.556  -6.141   0.281  0.00  0.00    +0.072 C 
ATOM      8  S   UNL     1       2.733  -4.875  -0.153  0.00  0.00    -0.060 S 
ATOM      9  C   UNL     1       1.681  -3.573  -0.263  0.00  0.00    +0.166 C 
ATOM     10  N   UNL     1       1.889  -2.306  -0.559  0.00  0.00    -0.230 NA
ENDROOT
BRANCH   4  11
ATOM     11  C   UNL     1      -1.692  -3.645  -1.003  0.00  0.00    -0.018 A 
ATOM     12  C   UNL     1      -3.009  -3.832  -0.626  0.00  0.00    +0.009 A 
ATOM     13  C   UNL     1      -3.934  -4.295  -1.542  0.00  0.00    +0.050 A 
ATOM     14  C   UNL     1      -3.543  -4.572  -2.842  0.00  0.00    +0.162 A 
ATOM     15  C   UNL     1      -2.218  -4.384  -3.222  0.00  0.00    +0.162 A 
ATOM     16  C   UNL     1      -1.296  -3.915  -2.300  0.00  0.00    +0.055 A 
BRANCH  15  17
ATOM     17  O   UNL     1      -1.829  -4.655  -4.497  0.00  0.00    -0.491 OA
ATOM     18  C   UNL     1      -0.435  -4.540  -4.788  0.00  0.00    +0.277 C 
ENDBRANCH  15  17
BRANCH  14  19
ATOM     19  O   UNL     1      -4.453  -5.028  -3.745  0.00  0.00    -0.491 OA
ATOM     20  C   UNL     1      -5.795  -5.198  -3.285  0.00  0.00    +0.277 C 
ENDBRANCH  14  19
ENDBRANCH   4  11
BRANCH   6  21
ATOM     21  C   UNL     1      -0.876  -6.105   0.636  0.00  0.00    +0.091 C 
ATOM     22  C   UNL     1      -0.887  -7.391   1.035  0.00  0.00    +0.239 C 
ATOM     23  O   UNL     1       0.261  -8.112   1.028  0.00  0.00    -0.271 OA
BRANCH  22  24
ATOM     24  N   UNL     1      -2.070  -7.977   1.451  0.00  0.00    -0.309 N 
ATOM     25  H   UNL     1      -2.904  -7.486   1.386  0.00  0.00    +0.149 HD
BRANCH  24  26
ATOM     26  C   UNL     1      -2.063  -9.340   1.990  0.00  0.00    +0.136 C 
BRANCH  26  27
ATOM     27  C   UNL     1      -3.500  -9.789   2.261  0.00  0.00    +0.135 C 
ATOM     28  C   UNL     1      -3.512 -11.208   2.883  0.00  0.00    +0.035 C 
ATOM     29  C   UNL     1      -4.869 -11.187   3.638  0.00  0.00    +0.031 C 
ATOM     30  C   UNL     1      -4.968  -9.715   4.094  0.00  0.00    +0.160 C 
ATOM     31  O   UNL     1      -4.111  -8.940   3.245  0.00  0.00    -0.375 OA
ENDBRANCH  26  27
ENDBRANCH  24  26
ENDBRANCH  22  24
ENDBRANCH   6  21
BRANCH   3  32
ATOM     32  C   UNL     1      -1.378  -0.731  -0.391  0.00  0.00    +0.340 C 
ATOM     33  O   UNL     1      -1.093   0.431  -0.621  0.00  0.00    -0.245 OA
BRANCH  32  34
ATOM     34  O   UNL     1      -2.666  -1.083  -0.182  0.00  0.00    -0.456 OA
BRANCH  34  35
ATOM     35  C   UNL     1      -3.649  -0.056  -0.320  0.00  0.00    +0.106 C 
ATOM     36  C   UNL     1      -3.591   0.518  -1.737  0.00  0.00    +0.055 C 
ATOM     37  C   UNL     1      -5.039  -0.643  -0.064  0.00  0.00    +0.055 C 
ATOM     38  C   UNL     1      -3.371   1.057   0.693  0.00  0.00    +0.055 C 
ENDBRANCH  34  35
ENDBRANCH  32  34
ENDBRANCH   3  32
TORSDOF 10
