REMARK  Name = ZINC38613981
REMARK  7 active torsions:
REMARK  status: ('A' for Active; 'I' for Inactive)
REMARK    1  A    between atoms: C_1  and  C_2
REMARK    2  A    between atoms: C_2  and  C_3
REMARK    3  A    between atoms: C_2  and  C_4
REMARK    4  A    between atoms: C_7  and  C_10
REMARK    5  A    between atoms: N_11  and  N_12
REMARK    6  A    between atoms: C_13  and  C_15
REMARK    7  A    between atoms: C_18  and  C_21
REMARK                            x       y       z     vdW  Elec       q    Type
REMARK                         _______ _______ _______ _____ _____    ______ ____
ROOT
ATOM      1  N   UNL     1      -6.942  -3.315  -1.109  0.00  0.00    -0.205 N 
ATOM      2  C   UNL     1      -7.504  -4.064  -2.079  0.00  0.00    +0.263 C 
ATOM      3  O   UNL     1      -6.868  -4.346  -3.072  0.00  0.00    -0.271 OA
ATOM      4  H   UNL     1      -7.450  -3.089  -0.315  0.00  0.00    +0.177 HD
ENDROOT
BRANCH   2   5
ATOM      5  C   UNL     1      -8.923  -4.549  -1.929  0.00  0.00    +0.240 C 
ATOM      6  C   UNL     1      -8.973  -5.804  -1.076  0.00  0.00    +0.041 C 
ATOM      7  C   UNL     1      -9.481  -6.738  -1.905  0.00  0.00    +0.092 C 
ATOM      8  N   UNL     1      -9.735  -6.199  -3.127  0.00  0.00    -0.153 NA
ATOM      9  N   UNL     1      -9.459  -4.997  -3.225  0.00  0.00    -0.170 NA
BRANCH   7  10
ATOM     10  C   UNL     1      -9.728  -8.151  -1.537  0.00  0.00    +0.010 A 
ATOM     11  C   UNL     1     -10.534  -8.462  -0.456  0.00  0.00    +0.011 A 
ATOM     12  C   UNL     1     -10.770  -9.786  -0.104  0.00  0.00    +0.001 A 
ATOM     13  C   UNL     1     -10.217 -10.812  -0.810  0.00  0.00    +0.008 A 
ATOM     14  C   UNL     1      -9.391 -10.542  -1.914  0.00  0.00    -0.017 A 
ATOM     15  C   UNL     1      -9.146  -9.198  -2.290  0.00  0.00    -0.009 A 
ATOM     16  C   UNL     1      -8.327  -8.931  -3.397  0.00  0.00    +0.009 A 
ATOM     17  C   UNL     1      -7.783  -9.963  -4.099  0.00  0.00    +0.001 A 
ATOM     18  C   UNL     1      -8.029 -11.285  -3.735  0.00  0.00    +0.001 A 
ATOM     19  C   UNL     1      -8.808 -11.582  -2.658  0.00  0.00    +0.008 A 
ENDBRANCH   7  10
ENDBRANCH   2   5
BRANCH   1  21
ATOM     20  C   UNL     1      -5.081  -2.144  -0.315  0.00  0.00    +0.138 C 
ATOM     21  N   UNL     1      -5.623  -2.864  -1.248  0.00  0.00    -0.188 NA
BRANCH  20  25
ATOM     22  C   UNL     1      -1.085  -0.778  -0.737  0.00  0.00    -0.045 A 
ATOM     23  C   UNL     1      -1.808  -0.453   0.398  0.00  0.00    +0.004 A 
ATOM     24  C   UNL     1      -3.107  -0.893   0.541  0.00  0.00    +0.010 A 
ATOM     25  C   UNL     1      -3.693  -1.669  -0.462  0.00  0.00    -0.005 A 
ATOM     26  C   UNL     1      -2.957  -1.993  -1.604  0.00  0.00    +0.010 A 
ATOM     27  C   UNL     1      -1.661  -1.541  -1.737  0.00  0.00    +0.004 A 
BRANCH  22  29
ATOM     28  C   UNL     1       0.357   1.236  -0.850  0.00  0.00    +0.012 C 
ATOM     29  C   UNL     1       0.334  -0.293  -0.886  0.00  0.00    +0.013 C 
ATOM     30  C   UNL     1       1.185  -0.844   0.261  0.00  0.00    +0.012 C 
ENDBRANCH  22  29
ENDBRANCH  20  25
ENDBRANCH   1  21
TORSDOF 5
