REMARK  Name = ZINC12651304
REMARK  5 active torsions:
REMARK  status: ('A' for Active; 'I' for Inactive)
REMARK    1  A    between atoms: C_1  and  C_2
REMARK    2  A    between atoms: N_11  and  C_30
REMARK    3  A    between atoms: N_16  and  C_17
REMARK    4  A    between atoms: C_17  and  N_19
REMARK    5  A    between atoms: C_20  and  C_22
REMARK                            x       y       z     vdW  Elec       q    Type
REMARK                         _______ _______ _______ _____ _____    ______ ____
ROOT
ATOM      1  C   UNL     1       0.013   1.504   0.004  0.00  0.00    +0.044 C 
ATOM      2  C   UNL     1       0.027  -0.004  -0.003  0.00  0.00    -0.050 A 
ATOM      3  C   UNL     1       0.024  -0.691  -1.202  0.00  0.00    +0.005 A 
ATOM      4  C   UNL     1       0.041  -2.070  -1.213  0.00  0.00    +0.024 A 
ATOM      5  C   UNL     1       0.065  -2.783  -0.013  0.00  0.00    +0.039 A 
ATOM      6  C   UNL     1       0.056  -2.082   1.186  0.00  0.00    -0.023 A 
ATOM      7  C   UNL     1       0.047  -0.702   1.190  0.00  0.00    +0.009 A 
ATOM      8  C   UNL     1       0.055  -3.091   2.303  0.00  0.00    +0.025 C 
ATOM      9  C   UNL     1       0.955  -2.738   3.439  0.00  0.00    -0.069 C 
ATOM     10  N   UNL     1       2.277  -3.330   3.395  0.00  0.00    +0.378 N 
ATOM     11  C   UNL     1       2.229  -4.763   3.162  0.00  0.00    -0.077 C 
ATOM     12  C   UNL     1       1.558  -5.109   1.855  0.00  0.00    +0.005 C 
ATOM     13  C   UNL     1       0.237  -4.440   1.645  0.00  0.00    +0.085 C 
ATOM     14  N   UNL     1       0.090  -4.165   0.201  0.00  0.00    -0.279 N 
ATOM     15  C   UNL     1       3.047  -2.697   2.317  0.00  0.00    -0.096 C 
ATOM     16  H   UNL     1       2.742  -3.157   4.274  0.00  0.00    -0.082 HD
ENDROOT
BRANCH  14  17
ATOM     17  C   UNL     1      -0.004  -5.103  -0.763  0.00  0.00    +0.144 C 
ATOM     18  S   UNL     1      -0.306  -4.638  -2.383  0.00  0.00    -0.018 S 
BRANCH  17  19
ATOM     19  N   UNL     1       0.139  -6.406  -0.451  0.00  0.00    -0.263 N 
ATOM     20  C   UNL     1       0.151  -7.335  -1.428  0.00  0.00    +0.251 C 
ATOM     21  O   UNL     1       0.034  -6.997  -2.589  0.00  0.00    -0.270 OA
ATOM     22  H   UNL     1       0.232  -6.676   0.476  0.00  0.00    +0.157 HD
BRANCH  20  23
ATOM     23  C   UNL     1       0.308  -8.762  -1.087  0.00  0.00    +0.055 A 
ATOM     24  C   UNL     1       0.437  -9.155   0.248  0.00  0.00    +0.016 A 
ATOM     25  C   UNL     1       0.583 -10.489   0.560  0.00  0.00    +0.021 A 
ATOM     26  C   UNL     1       0.602 -11.442  -0.446  0.00  0.00    +0.042 A 
ATOM     27  C   UNL     1       0.475 -11.061  -1.771  0.00  0.00    +0.040 A 
ATOM     28  C   UNL     1       0.321  -9.728  -2.097  0.00  0.00    +0.054 A 
ATOM     29 CL   UNL     1       0.153  -9.253  -3.758  0.00  0.00    -0.083 Cl
ATOM     30 CL   UNL     1       0.787 -13.120  -0.043  0.00  0.00    -0.083 Cl
ENDBRANCH  20  23
ENDBRANCH  17  19
ENDBRANCH  14  17
TORSDOF 3
