REMARK  Name = ZINC38971605
REMARK  6 active torsions:
REMARK  status: ('A' for Active; 'I' for Inactive)
REMARK    1  A    between atoms: C_1  and  C_2
REMARK    2  A    between atoms: C_5  and  C_8
REMARK    3  A    between atoms: C_8  and  N_9
REMARK    4  A    between atoms: N_9  and  C_10
REMARK    5  A    between atoms: N_13  and  S_14
REMARK    6  A    between atoms: S_14  and  C_17
REMARK                            x       y       z     vdW  Elec       q    Type
REMARK                         _______ _______ _______ _____ _____    ______ ____
ROOT
ATOM      1  C   UNL     1       1.509  -6.215  -0.040  0.00  0.00    +0.220 C 
ATOM      2  C   UNL     1       2.476  -6.644   1.040  0.00  0.00    +0.188 C 
ATOM      3  N   UNL     1       2.282  -6.293   2.277  0.00  0.00    -0.110 NA
ATOM      4  N   UNL     1       3.537  -7.394   0.703  0.00  0.00    -0.226 NA
ATOM      5  C   UNL     1       3.755  -7.763  -0.542  0.00  0.00    +0.089 A 
ATOM      6  C   UNL     1       4.887  -8.555  -0.862  0.00  0.00    +0.030 A 
ATOM      7  C   UNL     1       5.115  -8.936  -2.138  0.00  0.00    +0.002 A 
ATOM      8  C   UNL     1       4.268  -8.581  -3.200  0.00  0.00    +0.002 A 
ATOM      9  C   UNL     1       3.162  -7.829  -3.006  0.00  0.00    +0.027 A 
ATOM     10  C   UNL     1       2.843  -7.373  -1.645  0.00  0.00    +0.063 A 
ATOM     11  N   UNL     1       1.785  -6.646  -1.420  0.00  0.00    -0.362 N 
ATOM     12  H   UNL     1       1.192  -6.394  -2.146  0.00  0.00    +0.162 HD
ENDROOT
BRANCH   3  13
ATOM     13  S   UNL     1       3.349  -6.771   3.450  0.00  0.00    +0.102 S 
ATOM     14  O   UNL     1       3.241  -8.184   3.546  0.00  0.00    -0.146 OA
ATOM     15  O   UNL     1       4.580  -6.118   3.169  0.00  0.00    -0.146 OA
BRANCH  13  16
ATOM     16  C   UNL     1       2.769  -6.116   4.979  0.00  0.00    +0.132 A 
ATOM     17  C   UNL     1       2.357  -6.970   5.985  0.00  0.00    +0.050 A 
ATOM     18  C   UNL     1       1.902  -6.455   7.186  0.00  0.00    +0.043 A 
ATOM     19  C   UNL     1       1.859  -5.086   7.380  0.00  0.00    +0.021 A 
ATOM     20  C   UNL     1       2.272  -4.232   6.375  0.00  0.00    +0.023 A 
ATOM     21  C   UNL     1       2.732  -4.747   5.176  0.00  0.00    +0.068 A 
ATOM     22 CL   UNL     1       3.257  -3.674   3.916  0.00  0.00    -0.082 Cl
ATOM     23 CL   UNL     1       1.383  -7.528   8.448  0.00  0.00    -0.083 Cl
ENDBRANCH  13  16
ENDBRANCH   3  13
BRANCH   1  24
ATOM     24  N   UNL     1       1.451  -4.747  -0.032  0.00  0.00    -0.287 NA
ATOM     25  H   UNL     1       1.958  -4.361  -0.814  0.00  0.00    +0.125 HD
BRANCH  24  26
ATOM     26  C   UNL     1       0.059  -4.275  -0.021  0.00  0.00    +0.118 C 
BRANCH  26  31
ATOM     27  C   UNL     1      -0.018   1.503   0.010  0.00  0.00    +0.044 C 
ATOM     28  C   UNL     1       0.002  -0.004   0.002  0.00  0.00    -0.050 A 
ATOM     29  C   UNL     1       0.006  -0.689  -1.199  0.00  0.00    +0.003 A 
ATOM     30  C   UNL     1       0.025  -2.071  -1.206  0.00  0.00    +0.005 A 
ATOM     31  C   UNL     1       0.040  -2.768  -0.013  0.00  0.00    -0.033 A 
ATOM     32  C   UNL     1       0.037  -2.084   1.188  0.00  0.00    +0.005 A 
ATOM     33  C   UNL     1       0.023  -0.702   1.195  0.00  0.00    +0.003 A 
ENDBRANCH  26  31
ENDBRANCH  24  26
ENDBRANCH   1  24
TORSDOF 5
