REMARK  Name = ZINC13112539
REMARK  11 active torsions:
REMARK  status: ('A' for Active; 'I' for Inactive)
REMARK    1  A    between atoms: C_1  and  C_2
REMARK    2  A    between atoms: C_3  and  N_15
REMARK    3  A    between atoms: N_6  and  C_9
REMARK    4  A    between atoms: N_7  and  C_8
REMARK    5  A    between atoms: N_15  and  C_16
REMARK    6  A    between atoms: C_19  and  C_22
REMARK    7  A    between atoms: C_22  and  N_23
REMARK    8  A    between atoms: N_23  and  C_24
REMARK    9  A    between atoms: C_24  and  C_25
REMARK   10  A    between atoms: N_28  and  C_32
REMARK   11  A    between atoms: C_32  and  C_33
REMARK                            x       y       z     vdW  Elec       q    Type
REMARK                         _______ _______ _______ _____ _____    ______ ____
ROOT
ATOM      1  C   UNL     1      -2.736   0.038  -0.381  0.00  0.00    +0.031 A 
ATOM      2  C   UNL     1      -1.681  -0.833  -0.626  0.00  0.00    +0.023 A 
ATOM      3  C   UNL     1      -1.932  -2.173  -0.844  0.00  0.00    +0.003 A 
ATOM      4  C   UNL     1      -3.231  -2.647  -0.831  0.00  0.00    -0.064 A 
ATOM      5  C   UNL     1      -4.284  -1.782  -0.592  0.00  0.00    +0.003 A 
ATOM      6  C   UNL     1      -4.040  -0.441  -0.367  0.00  0.00    +0.023 A 
ENDROOT
BRANCH   1   7
ATOM      7  N   UNL     1      -2.487   1.393  -0.154  0.00  0.00    -0.309 N 
ATOM      8  H   UNL     1      -3.325   2.102  -0.084  0.00  0.00    +0.152 HD
BRANCH   7  11
ATOM      9  C   UNL     1      -1.174   3.514  -1.940  0.00  0.00    +0.067 C 
ATOM     10  C   UNL     1      -0.550   2.783  -0.779  0.00  0.00    +0.059 A 
ATOM     11  C   UNL     1      -1.161   1.852  -0.014  0.00  0.00    +0.119 A 
ATOM     12  C   UNL     1      -0.192   1.412   0.990  0.00  0.00    +0.293 A 
ATOM     13  O   UNL     1      -0.377   0.581   1.862  0.00  0.00    -0.264 OA
ATOM     14  N   UNL     1       0.949   2.096   0.764  0.00  0.00    -0.216 N 
ATOM     15  N   UNL     1       0.735   2.946  -0.328  0.00  0.00    -0.282 N 
ATOM     16  C   UNL     1       1.726   3.862  -0.898  0.00  0.00    +0.171 C 
BRANCH  14  17
ATOM     17  C   UNL     1       2.136   1.978   1.492  0.00  0.00    +0.067 A 
ATOM     18  C   UNL     1       3.347   1.821   0.830  0.00  0.00    +0.028 A 
ATOM     19  C   UNL     1       4.518   1.709   1.552  0.00  0.00    +0.002 A 
ATOM     20  C   UNL     1       4.486   1.744   2.934  0.00  0.00    +0.000 A 
ATOM     21  C   UNL     1       3.282   1.895   3.597  0.00  0.00    +0.002 A 
ATOM     22  C   UNL     1       2.107   2.013   2.881  0.00  0.00    +0.028 A 
ENDBRANCH  14  17
ENDBRANCH   7  11
ENDBRANCH   1   7
BRANCH   4  23
ATOM     23  C   UNL     1      -3.500  -4.109  -1.075  0.00  0.00    -0.047 C 
BRANCH  23  24
ATOM     24  N   UNL     1      -3.693  -4.338  -2.513  0.00  0.00    +0.383 N 
ATOM     25  H   UNL     1      -4.548  -3.743  -2.868  0.00  0.00    -0.085 HD
ATOM     26  H   UNL     1      -2.785  -4.036  -3.057  0.00  0.00    -0.085 HD
BRANCH  24  27
ATOM     27  C   UNL     1      -3.958  -5.756  -2.790  0.00  0.00    -0.049 C 
BRANCH  27  28
ATOM     28  C   UNL     1      -4.153  -5.954  -4.295  0.00  0.00    +0.115 C 
ATOM     29  C   UNL     1      -4.435  -7.431  -4.583  0.00  0.00    +0.114 C 
ATOM     30  N   UNL     1      -4.697  -7.603  -6.020  0.00  0.00    -0.294 NA
ATOM     31  C   UNL     1      -5.839  -6.779  -6.443  0.00  0.00    +0.113 C 
ATOM     32  C   UNL     1      -5.543  -5.309  -6.136  0.00  0.00    +0.175 C 
ATOM     33  O   UNL     1      -5.260  -5.166  -4.741  0.00  0.00    -0.376 OA
BRANCH  30  34
ATOM     34  C   UNL     1      -4.917  -9.017  -6.349  0.00  0.00    +0.119 C 
BRANCH  34  35
ATOM     35  C   UNL     1      -6.066  -9.550  -5.533  0.00  0.00    -0.033 A 
ATOM     36  C   UNL     1      -5.828 -10.120  -4.296  0.00  0.00    +0.005 A 
ATOM     37  C   UNL     1      -6.883 -10.605  -3.545  0.00  0.00    +0.000 A 
ATOM     38  C   UNL     1      -8.173 -10.529  -4.035  0.00  0.00    +0.000 A 
ATOM     39  C   UNL     1      -8.410  -9.964  -5.273  0.00  0.00    +0.000 A 
ATOM     40  C   UNL     1      -7.356  -9.475  -6.023  0.00  0.00    +0.005 A 
ENDBRANCH  34  35
ENDBRANCH  30  34
ENDBRANCH  27  28
ENDBRANCH  24  27
ENDBRANCH  23  24
ENDBRANCH   4  23
TORSDOF 9
