REMARK  Name = ZINC39658992
REMARK  8 active torsions:
REMARK  status: ('A' for Active; 'I' for Inactive)
REMARK    1  A    between atoms: C_1  and  C_2
REMARK    2  A    between atoms: C_2  and  C_33
REMARK    3  A    between atoms: C_5  and  C_8
REMARK    4  A    between atoms: C_8  and  N_9
REMARK    5  A    between atoms: C_10  and  C_12
REMARK    6  A    between atoms: C_23  and  C_25
REMARK    7  A    between atoms: C_25  and  C_26
REMARK    8  A    between atoms: C_26  and  C_27
REMARK                            x       y       z     vdW  Elec       q    Type
REMARK                         _______ _______ _______ _____ _____    ______ ____
ROOT
ATOM      1  C   UNL     1       3.020  -2.669   5.320  0.00  0.00    +0.100 C 
ATOM      2  C   UNL     1       4.201  -1.840   4.766  0.00  0.00    +0.121 C 
ATOM      3  N   UNL     1       5.368  -2.268   5.573  0.00  0.00    -0.300 N 
ATOM      4  C   UNL     1       5.187  -3.730   5.738  0.00  0.00    +0.115 C 
ATOM      5  C   UNL     1       3.671  -3.908   5.956  0.00  0.00    -0.004 C 
ATOM      6  C   UNL     1       3.185  -5.176   5.261  0.00  0.00    -0.010 C 
ATOM      7  C   UNL     1       3.800  -6.398   5.948  0.00  0.00    -0.082 C 
ATOM      8  N   UNL     1       3.412  -6.413   7.364  0.00  0.00    +0.379 N 
ATOM      9  C   UNL     1       3.963  -5.236   8.046  0.00  0.00    -0.082 C 
ATOM     10  C   UNL     1       3.354  -3.965   7.447  0.00  0.00    -0.010 C 
ATOM     11  C   UNL     1       6.369  -1.500   6.049  0.00  0.00    +0.216 C 
ATOM     12  O   UNL     1       7.262  -2.002   6.698  0.00  0.00    -0.276 OA
ATOM     13  H   UNL     1       2.405  -6.401   7.435  0.00  0.00    -0.086 HD
ATOM     14  H   UNL     1       3.768  -7.250   7.800  0.00  0.00    -0.086 HD
ENDROOT
BRANCH   1  16
ATOM     15  N   UNL     1       0.786  -3.275   4.448  0.00  0.00    -0.312 N 
ATOM     16  C   UNL     1       2.096  -3.077   4.201  0.00  0.00    +0.218 C 
ATOM     17  O   UNL     1       2.531  -3.227   3.079  0.00  0.00    -0.275 OA
ATOM     18  H   UNL     1       0.438  -3.155   5.345  0.00  0.00    +0.149 HD
BRANCH  15  19
ATOM     19  C   UNL     1      -0.112  -3.672   3.361  0.00  0.00    +0.138 C 
BRANCH  19  24
ATOM     20  C   UNL     1      -4.383  -2.324   5.021  0.00  0.00    +0.074 C 
ATOM     21  C   UNL     1      -3.477  -2.574   3.814  0.00  0.00    +0.165 C 
ATOM     22  O   UNL     1      -3.765  -3.866   3.253  0.00  0.00    -0.347 OA
ATOM     23  C   UNL     1      -2.483  -4.370   2.807  0.00  0.00    +0.196 C 
ATOM     24  C   UNL     1      -1.533  -3.830   3.905  0.00  0.00    +0.164 C 
ATOM     25  O   UNL     1      -2.105  -2.546   4.228  0.00  0.00    -0.342 OA
ATOM     26  C   UNL     1      -3.717  -1.494   2.758  0.00  0.00    +0.074 C 
ENDBRANCH  19  24
ENDBRANCH  15  19
ENDBRANCH   1  16
BRANCH  11  27
ATOM     27  C   UNL     1       6.379  -0.019   5.774  0.00  0.00    +0.100 C 
BRANCH  27  28
ATOM     28  C   UNL     1       7.614   0.612   6.421  0.00  0.00    +0.044 C 
BRANCH  28  29
ATOM     29  C   UNL     1       7.623   2.094   6.146  0.00  0.00    -0.047 A 
ATOM     30  C   UNL     1       8.246   2.582   5.013  0.00  0.00    +0.003 A 
ATOM     31  C   UNL     1       8.255   3.942   4.761  0.00  0.00    +0.000 A 
ATOM     32  C   UNL     1       7.641   4.812   5.642  0.00  0.00    +0.000 A 
ATOM     33  C   UNL     1       7.017   4.323   6.774  0.00  0.00    +0.000 A 
ATOM     34  C   UNL     1       7.004   2.964   7.024  0.00  0.00    +0.003 A 
ENDBRANCH  28  29
ENDBRANCH  27  28
ENDBRANCH  11  27
TORSDOF 6
