REMARK  Name = ZINC46552182
REMARK  7 active torsions:
REMARK  status: ('A' for Active; 'I' for Inactive)
REMARK    1  A    between atoms: C_1  and  C_2
REMARK    2  A    between atoms: C_6  and  N_9
REMARK    3  A    between atoms: C_7  and  C_8
REMARK    4  A    between atoms: N_12  and  C_15
REMARK    5  A    between atoms: C_15  and  C_16
REMARK    6  A    between atoms: N_18  and  C_19
REMARK    7  A    between atoms: C_19  and  C_26
REMARK                            x       y       z     vdW  Elec       q    Type
REMARK                         _______ _______ _______ _____ _____    ______ ____
ROOT
ATOM      1  N   UNL     1       0.051  -2.796   2.390  0.00  0.00    -0.333 N 
ATOM      2  C   UNL     1      -1.202  -3.202   3.046  0.00  0.00    +0.086 C 
ATOM      3  C   UNL     1      -1.146  -2.764   4.513  0.00  0.00    -0.059 C 
ATOM      4  N   UNL     1       0.067  -3.305   5.138  0.00  0.00    +0.387 N 
ATOM      5  C   UNL     1       1.258  -2.723   4.507  0.00  0.00    -0.059 C 
ATOM      6  C   UNL     1       1.321  -3.163   3.036  0.00  0.00    +0.086 C 
ATOM      7  H   UNL     1       0.084  -4.308   5.025  0.00  0.00    -0.081 HD
ENDROOT
BRANCH   1  13
ATOM      8  C   UNL     1      -0.018   1.503   0.010  0.00  0.00    +0.044 C 
ATOM      9  C   UNL     1       0.002  -0.004   0.002  0.00  0.00    -0.046 A 
ATOM     10  C   UNL     1       0.006  -0.688  -1.200  0.00  0.00    +0.004 A 
ATOM     11  C   UNL     1       0.024  -2.071  -1.212  0.00  0.00    +0.002 A 
ATOM     12  C   UNL     1       0.039  -2.773  -0.023  0.00  0.00    +0.023 A 
ATOM     13  C   UNL     1       0.036  -2.089   1.186  0.00  0.00    +0.033 A 
ATOM     14  C   UNL     1       0.023  -0.700   1.194  0.00  0.00    -0.027 A 
ATOM     15  C   UNL     1       0.025   0.046   2.504  0.00  0.00    +0.046 C 
ENDBRANCH   1  13
BRANCH   4  16
ATOM     16  C   UNL     1       0.065  -2.979   6.571  0.00  0.00    +0.019 C 
BRANCH  16  17
ATOM     17  C   UNL     1       1.245  -3.637   7.238  0.00  0.00    +0.198 C 
ATOM     18  O   UNL     1       2.013  -4.311   6.584  0.00  0.00    -0.278 OA
ATOM     19  N   UNL     1       1.448  -3.475   8.560  0.00  0.00    -0.299 N 
ATOM     20  H   UNL     1       0.834  -2.936   9.083  0.00  0.00    +0.150 HD
BRANCH  19  21
ATOM     21  C   UNL     1       2.595  -4.115   9.209  0.00  0.00    +0.121 C 
ATOM     22  C   UNL     1       2.526  -5.636   8.960  0.00  0.00    +0.041 C 
ATOM     23  C   UNL     1       3.901  -6.215   9.157  0.00  0.00    +0.003 C 
ATOM     24  C   UNL     1       4.116  -6.748  10.587  0.00  0.00    +0.000 C 
ATOM     25  C   UNL     1       3.531  -5.816  11.666  0.00  0.00    +0.000 C 
ATOM     26  C   UNL     1       3.797  -4.364  11.377  0.00  0.00    +0.003 C 
ATOM     27  C   UNL     1       2.581  -3.783  10.626  0.00  0.00    +0.041 C 
BRANCH  21  28
ATOM     28  C   UNL     1       3.834  -3.592   8.609  0.00  0.00    +0.088 C 
ATOM     29  N   UNL     1       4.790  -3.188   8.146  0.00  0.00    -0.194 NA
ENDBRANCH  21  28
ENDBRANCH  19  21
ENDBRANCH  16  17
ENDBRANCH   4  16
TORSDOF 5
