REMARK  Name = ZINC04025822
REMARK  5 active torsions:
REMARK  status: ('A' for Active; 'I' for Inactive)
REMARK    1  A    between atoms: C_1  and  C_2
REMARK    2  A    between atoms: C_5  and  O_27
REMARK    3  A    between atoms: C_18  and  C_26
REMARK    4  A    between atoms: C_23  and  O_25
REMARK    5  A    between atoms: O_27  and  C_28
REMARK                            x       y       z     vdW  Elec       q    Type
REMARK                         _______ _______ _______ _____ _____    ______ ____
ROOT
ATOM      1  C   UNL     1      -4.183  -0.347  -0.920  0.00  0.00    +0.012 C 
ATOM      2  C   UNL     1      -3.194  -0.665  -2.044  0.00  0.00    -0.026 C 
ATOM      3  C   UNL     1      -3.715  -0.083  -3.359  0.00  0.00    +0.010 C 
ATOM      4  C   UNL     1      -5.074  -0.703  -3.689  0.00  0.00    +0.032 C 
ATOM      5  C   UNL     1      -4.924  -2.219  -3.826  0.00  0.00    +0.122 C 
ATOM      6  C   UNL     1      -4.405  -2.801  -2.509  0.00  0.00    +0.035 C 
ATOM      7  C   UNL     1      -3.046  -2.182  -2.179  0.00  0.00    -0.002 C 
ATOM      8  C   UNL     1      -2.529  -2.761  -0.860  0.00  0.00    +0.004 C 
ATOM      9  C   UNL     1      -1.168  -2.144  -0.531  0.00  0.00    +0.004 C 
ATOM     10  C   UNL     1      -1.313  -0.626  -0.400  0.00  0.00    -0.004 C 
ATOM     11  C   UNL     1      -1.821  -0.065  -1.728  0.00  0.00    -0.001 C 
ATOM     12  C   UNL     1      -1.973   1.453  -1.587  0.00  0.00    +0.005 C 
ATOM     13  C   UNL     1      -0.615   2.075  -1.292  0.00  0.00    +0.010 C 
ATOM     14  C   UNL     1      -0.019   1.534   0.011  0.00  0.00    -0.003 C 
ATOM     15  C   UNL     1       0.002  -0.004   0.002  0.00  0.00    +0.001 C 
ATOM     16  C   UNL     1       1.142  -0.344  -0.976  0.00  0.00    +0.007 C 
ATOM     17  C   UNL     1       2.220   0.717  -0.655  0.00  0.00    +0.032 C 
ATOM     18  C   UNL     1       1.488   1.904  -0.002  0.00  0.00    +0.121 C 
ATOM     19  C   UNL     1      -0.729   2.083   1.250  0.00  0.00    +0.014 C 
ENDROOT
BRANCH  18  20
ATOM     20  O   UNL     1       1.958   2.095   1.334  0.00  0.00    -0.391 OA
ATOM     21  H   UNL     1       2.894   2.328   1.392  0.00  0.00    +0.210 HD
ENDBRANCH  18  20
BRANCH   5  22
ATOM     22  O   UNL     1      -6.194  -2.798  -4.135  0.00  0.00    -0.348 OA
BRANCH  22  23
ATOM     23  C   UNL     1      -6.463  -2.894  -5.535  0.00  0.00    +0.250 C 
ATOM     24  C   UNL     1      -7.927  -3.289  -5.746  0.00  0.00    +0.061 C 
ATOM     25  C   UNL     1      -8.193  -3.449  -7.246  0.00  0.00    +0.007 C 
ATOM     26  C   UNL     1      -7.222  -4.487  -7.818  0.00  0.00    +0.028 C 
ATOM     27  C   UNL     1      -5.785  -4.045  -7.526  0.00  0.00    +0.163 C 
ATOM     28  O   UNL     1      -5.615  -3.886  -6.117  0.00  0.00    -0.351 OA
ENDBRANCH  22  23
ENDBRANCH   5  22
TORSDOF 3
