REMARK  Name = ZINC00989446
REMARK  7 active torsions:
REMARK  status: ('A' for Active; 'I' for Inactive)
REMARK    1  A    between atoms: C_4  and  C_7
REMARK    2  A    between atoms: C_7  and  C_9
REMARK    3  A    between atoms: C_7  and  O_24
REMARK    4  A    between atoms: N_11  and  N_12
REMARK    5  A    between atoms: C_13  and  C_14
REMARK    6  A    between atoms: C_17  and  O_22
REMARK    7  A    between atoms: C_19  and  O_20
REMARK                            x       y       z     vdW  Elec       q    Type
REMARK                         _______ _______ _______ _____ _____    ______ ____
ROOT
ATOM      1  N   UNL     1       0.362   4.329  -3.599  0.00  0.00    -0.188 NA
ATOM      2  C   UNL     1      -0.591   4.089  -4.448  0.00  0.00    +0.142 C 
ENDROOT
BRANCH   2   3
ATOM      3  C   UNL     1      -0.490   4.589  -5.830  0.00  0.00    +0.038 A 
ATOM      4  C   UNL     1      -1.514   4.332  -6.746  0.00  0.00    +0.032 A 
ATOM      5  C   UNL     1      -1.415   4.801  -8.038  0.00  0.00    +0.061 A 
ATOM      6  C   UNL     1      -0.300   5.531  -8.434  0.00  0.00    +0.148 A 
ATOM      7  C   UNL     1       0.722   5.792  -7.532  0.00  0.00    +0.102 A 
ATOM      8  C   UNL     1       0.632   5.329  -6.230  0.00  0.00    +0.143 A 
ATOM      9 BR   UNL     1       2.235   6.786  -8.079  0.00  0.00    -0.043 Br
ATOM     10 BR   UNL     1      -2.802   4.453  -9.275  0.00  0.00    -0.046 Br
BRANCH   8  11
ATOM     11  O   UNL     1       1.629   5.587  -5.345  0.00  0.00    -0.505 OA
ATOM     12  H   UNL     1       2.324   4.916  -5.329  0.00  0.00    +0.292 HD
ENDBRANCH   8  11
BRANCH   6  13
ATOM     13  O   UNL     1      -0.210   5.991  -9.709  0.00  0.00    -0.504 OA
ATOM     14  H   UNL     1      -0.588   6.872  -9.837  0.00  0.00    +0.292 HD
ENDBRANCH   6  13
ENDBRANCH   2   3
BRANCH   1  17
ATOM     15  C   UNL     1       1.254   4.104  -1.404  0.00  0.00    +0.265 C 
ATOM     16  O   UNL     1       2.228   4.739  -1.749  0.00  0.00    -0.271 OA
ATOM     17  N   UNL     1       0.265   3.854  -2.285  0.00  0.00    -0.205 N 
ATOM     18  H   UNL     1      -0.513   3.346  -2.009  0.00  0.00    +0.177 HD
BRANCH  15  19
ATOM     19  C   UNL     1       1.151   3.592   0.010  0.00  0.00    +0.232 C 
BRANCH  19  23
ATOM     20  C   UNL     1       1.208  -0.679  -0.014  0.00  0.00    +0.000 A 
ATOM     21  C   UNL     1       0.002  -0.004   0.002  0.00  0.00    +0.000 A 
ATOM     22  C   UNL     1      -0.017   1.378   0.010  0.00  0.00    +0.006 A 
ATOM     23  C   UNL     1       1.171   2.086   0.002  0.00  0.00    -0.010 A 
ATOM     24  C   UNL     1       2.377   1.411  -0.014  0.00  0.00    +0.006 A 
ATOM     25  C   UNL     1       2.396   0.029  -0.021  0.00  0.00    +0.000 A 
ENDBRANCH  19  23
BRANCH  19  26
ATOM     26  O   UNL     1       2.255   4.080   0.775  0.00  0.00    -0.378 OA
ATOM     27  H   UNL     1       3.119   3.808   0.436  0.00  0.00    +0.211 HD
ENDBRANCH  19  26
ENDBRANCH  15  19
ENDBRANCH   1  17
TORSDOF 7
