REMARK  Name = ZINC33676432
REMARK  6 active torsions:
REMARK  status: ('A' for Active; 'I' for Inactive)
REMARK    1  A    between atoms: C_8  and  C_9
REMARK    2  A    between atoms: C_9  and  C_10
REMARK    3  A    between atoms: C_10  and  N_11
REMARK    4  A    between atoms: N_14  and  C_17
REMARK    5  A    between atoms: C_17  and  C_18
REMARK    6  A    between atoms: C_22  and  C_27
REMARK                            x       y       z     vdW  Elec       q    Type
REMARK                         _______ _______ _______ _____ _____    ______ ____
ROOT
ATOM      1  C   UNL     1       6.103   3.354   0.019  0.00  0.00    +0.001 A 
ATOM      2  C   UNL     1       6.163   1.971   0.043  0.00  0.00    +0.001 A 
ATOM      3  C   UNL     1       5.004   1.226   0.069  0.00  0.00    +0.015 A 
ATOM      4  C   UNL     1       3.761   1.856   0.071  0.00  0.00    +0.020 A 
ATOM      5  C   UNL     1       3.699   3.251   0.044  0.00  0.00    -0.004 A 
ATOM      6  C   UNL     1       4.882   3.994   0.021  0.00  0.00    +0.009 A 
ATOM      7  C   UNL     1       2.408   3.963   0.037  0.00  0.00    -0.013 C 
ATOM      8  C   UNL     1       2.368   5.236   0.459  0.00  0.00    -0.020 C 
ATOM      9  C   UNL     1       1.158   3.325  -0.419  0.00  0.00    -0.003 A 
ATOM     10  C   UNL     1       0.104   4.134  -0.854  0.00  0.00    +0.022 A 
ATOM     11  C   UNL     1      -1.075   3.564  -1.284  0.00  0.00    +0.055 A 
ATOM     12  C   UNL     1      -1.219   2.187  -1.294  0.00  0.00    +0.013 A 
ATOM     13  C   UNL     1      -0.189   1.378  -0.865  0.00  0.00    +0.016 A 
ATOM     14  C   UNL     1       1.010   1.937  -0.426  0.00  0.00    +0.020 A 
ATOM     15  S   UNL     1       2.304   0.874   0.108  0.00  0.00    -0.088 S 
ENDROOT
BRANCH  11  16
ATOM     16  C   UNL     1      -2.207   4.442  -1.751  0.00  0.00    +0.417 C 
ATOM     17  F   UNL     1      -2.085   4.668  -3.126  0.00  0.00    -0.166 F 
ATOM     18  F   UNL     1      -3.426   3.809  -1.488  0.00  0.00    -0.166 F 
ATOM     19  F   UNL     1      -2.160   5.664  -1.072  0.00  0.00    -0.166 F 
ENDBRANCH  11  16
BRANCH   8  20
ATOM     20  C   UNL     1       1.054   5.855   0.863  0.00  0.00    +0.009 C 
BRANCH  20  21
ATOM     21  C   UNL     1       1.192   6.479   2.253  0.00  0.00    -0.075 C 
BRANCH  21  22
ATOM     22  N   UNL     1      -0.088   7.083   2.647  0.00  0.00    +0.382 N 
ATOM     23  C   UNL     1      -0.420   8.226   1.785  0.00  0.00    -0.063 C 
ATOM     24  C   UNL     1      -1.794   8.775   2.176  0.00  0.00    +0.066 C 
ATOM     25  N   UNL     1      -1.774   9.174   3.590  0.00  0.00    -0.305 NA
ATOM     26  C   UNL     1      -1.443   8.031   4.453  0.00  0.00    +0.066 C 
ATOM     27  C   UNL     1      -0.069   7.482   4.062  0.00  0.00    -0.063 C 
ATOM     28  H   UNL     1      -0.873   6.322   2.520  0.00  0.00    -0.082 HD
BRANCH  25  29
ATOM     29  C   UNL     1      -3.054   9.777   3.985  0.00  0.00    +0.095 C 
BRANCH  29  30
ATOM     30  C   UNL     1      -3.246  11.100   3.239  0.00  0.00    +0.095 C 
ATOM     31 BR   UNL     1      -4.959  11.907   3.767  0.00  0.00    -0.090 Br
ENDBRANCH  29  30
ENDBRANCH  25  29
ENDBRANCH  21  22
ENDBRANCH  20  21
ENDBRANCH   8  20
TORSDOF 6
