REMARK  Name = ZINC17085917
REMARK  5 active torsions:
REMARK  status: ('A' for Active; 'I' for Inactive)
REMARK    1  A    between atoms: C_1  and  C_2
REMARK    2  A    between atoms: C_2  and  C_3
REMARK    3  A    between atoms: C_2  and  C_4
REMARK    4  A    between atoms: C_2  and  C_5
REMARK    5  A    between atoms: C_17  and  C_20
REMARK                            x       y       z     vdW  Elec       q    Type
REMARK                         _______ _______ _______ _____ _____    ______ ____
ROOT
ATOM      1  C   UNL     1      -0.765   1.599  -1.228  0.00  0.00    -0.000 C 
ATOM      2  C   UNL     1      -2.260   1.321  -1.044  0.00  0.00    +0.009 C 
ATOM      3  C   UNL     1      -2.828   2.230   0.046  0.00  0.00    +0.037 C 
ATOM      4  C   UNL     1      -1.972   2.090   1.300  0.00  0.00    -0.023 A 
ATOM      5  C   UNL     1      -0.724   1.574   1.232  0.00  0.00    -0.004 A 
ATOM      6  S   UNL     1      -0.125   1.603   2.901  0.00  0.00    -0.078 S 
ATOM      7  C   UNL     1      -1.497   2.284   3.666  0.00  0.00    +0.080 A 
ATOM      8  C   UNL     1      -2.416   2.489   2.625  0.00  0.00    +0.068 A 
ATOM      9  C   UNL     1      -3.730   3.075   2.978  0.00  0.00    +0.248 C 
ATOM     10  O   UNL     1      -4.622   3.170   2.156  0.00  0.00    -0.270 OA
ATOM     11  N   UNL     1      -3.896   3.499   4.248  0.00  0.00    -0.289 N 
ATOM     12  C   UNL     1      -2.801   3.625   5.205  0.00  0.00    +0.190 C 
ATOM     13  N   UNL     1      -1.767   2.600   4.972  0.00  0.00    -0.316 N 
ATOM     14  C   UNL     1      -0.013   1.086   0.008  0.00  0.00    +0.046 C 
ATOM     15  H   UNL     1      -4.922   3.755   4.550  0.00  0.00    +0.151 HD
ATOM     16  H   UNL     1      -1.255   2.132   5.826  0.00  0.00    +0.149 HD
ENDROOT
BRANCH  12  17
ATOM     17  C   UNL     1      -2.181   4.992   5.066  0.00  0.00    -0.009 A 
ATOM     18  C   UNL     1      -0.837   5.172   5.385  0.00  0.00    +0.008 A 
ATOM     19  C   UNL     1      -0.246   6.393   5.271  0.00  0.00    +0.009 A 
ATOM     20  C   UNL     1      -1.001   7.491   4.824  0.00  0.00    -0.018 A 
ATOM     21  C   UNL     1      -0.426   8.766   4.692  0.00  0.00    +0.008 A 
ATOM     22  C   UNL     1      -1.188   9.806   4.256  0.00  0.00    +0.001 A 
ATOM     23  C   UNL     1      -2.533   9.627   3.936  0.00  0.00    +0.001 A 
ATOM     24  C   UNL     1      -3.123   8.406   4.051  0.00  0.00    +0.008 A 
ATOM     25  C   UNL     1      -2.368   7.308   4.498  0.00  0.00    -0.018 A 
ATOM     26  C   UNL     1      -2.942   6.031   4.624  0.00  0.00    +0.015 A 
ENDBRANCH  12  17
BRANCH   1  28
ATOM     27  C   UNL     1      -0.496  -0.629  -2.324  0.00  0.00    +0.011 C 
ATOM     28  C   UNL     1      -0.258   0.874  -2.476  0.00  0.00    -0.035 C 
ATOM     29  C   UNL     1      -1.010   1.388  -3.705  0.00  0.00    +0.011 C 
ATOM     30  C   UNL     1       1.239   1.139  -2.646  0.00  0.00    +0.011 C 
ENDBRANCH   1  28
TORSDOF 2
