REMARK  Name = ZINC09668709
REMARK  10 active torsions:
REMARK  status: ('A' for Active; 'I' for Inactive)
REMARK    1  A    between atoms: C_1  and  C_2
REMARK    2  A    between atoms: C_11  and  C_13
REMARK    3  A    between atoms: C_16  and  O_21
REMARK    4  A    between atoms: C_17  and  O_19
REMARK    5  A    between atoms: O_19  and  C_20
REMARK    6  A    between atoms: O_21  and  C_22
REMARK    7  A    between atoms: N_23  and  C_24
REMARK    8  A    between atoms: C_27  and  C_30
REMARK    9  A    between atoms: C_30  and  C_31
REMARK   10  A    between atoms: C_30  and  C_32
REMARK                            x       y       z     vdW  Elec       q    Type
REMARK                         _______ _______ _______ _____ _____    ______ ____
ROOT
ATOM      1  C   UNL     1       5.181   2.022  -2.542  0.00  0.00    +0.066 C 
ATOM      2  C   UNL     1       4.143   1.266  -1.754  0.00  0.00    +0.047 A 
ATOM      3  C   UNL     1       4.215  -0.094  -1.665  0.00  0.00    +0.093 A 
ATOM      4  C   UNL     1       3.239  -0.782  -0.919  0.00  0.00    +0.257 A 
ATOM      5  O   UNL     1       3.267  -1.998  -0.824  0.00  0.00    -0.267 OA
ATOM      6  N   UNL     1       2.274  -0.066  -0.313  0.00  0.00    -0.255 N 
ATOM      7  C   UNL     1       2.242   1.292  -0.454  0.00  0.00    +0.207 A 
ATOM      8  N   UNL     1       3.157   1.927  -1.148  0.00  0.00    -0.221 NA
ATOM      9  N   UNL     1       1.196   1.962   0.152  0.00  0.00    -0.259 N 
ATOM     10  C   UNL     1      -0.027   1.300   0.168  0.00  0.00    +0.166 C 
ATOM     11  C   UNL     1       1.245  -0.709   0.509  0.00  0.00    +0.221 C 
ATOM     12  N   UNL     1      -1.207   1.994   0.019  0.00  0.00    -0.289 N 
ATOM     13  H   UNL     1       1.309   2.842   0.543  0.00  0.00    +0.158 HD
ATOM     14  H   UNL     1      -1.198   2.963  -0.015  0.00  0.00    +0.155 HD
ATOM     15  N   UNL     1      -0.088  -0.032   0.324  0.00  0.00    -0.336 N 
ATOM     16  H   UNL     1      -0.975  -0.549   0.317  0.00  0.00    +0.164 HD
ENDROOT
BRANCH  11  17
ATOM     17  C   UNL     1       1.649  -0.650   1.960  0.00  0.00    -0.001 A 
ATOM     18  C   UNL     1       2.988  -0.662   2.304  0.00  0.00    +0.011 A 
ATOM     19  C   UNL     1       3.364  -0.608   3.633  0.00  0.00    +0.050 A 
ATOM     20  C   UNL     1       2.398  -0.542   4.624  0.00  0.00    +0.162 A 
ATOM     21  C   UNL     1       1.050  -0.531   4.278  0.00  0.00    +0.162 A 
ATOM     22  C   UNL     1       0.680  -0.580   2.943  0.00  0.00    +0.057 A 
BRANCH  21  23
ATOM     23  O   UNL     1       0.098  -0.467   5.247  0.00  0.00    -0.491 OA
ATOM     24  C   UNL     1      -1.265  -0.459   4.818  0.00  0.00    +0.277 C 
ENDBRANCH  21  23
BRANCH  20  25
ATOM     25  O   UNL     1       2.766  -0.489   5.932  0.00  0.00    -0.491 OA
ATOM     26  C   UNL     1       4.167  -0.504   6.213  0.00  0.00    +0.277 C 
ENDBRANCH  20  25
ENDBRANCH  11  17
BRANCH  12  27
ATOM     27  C   UNL     1      -2.417   1.300  -0.085  0.00  0.00    +0.033 A 
ATOM     28  C   UNL     1      -2.456   0.057  -0.703  0.00  0.00    +0.023 A 
ATOM     29  C   UNL     1      -3.652  -0.627  -0.799  0.00  0.00    +0.006 A 
ATOM     30  C   UNL     1      -4.812  -0.070  -0.291  0.00  0.00    -0.045 A 
ATOM     31  C   UNL     1      -4.777   1.170   0.320  0.00  0.00    +0.006 A 
ATOM     32  C   UNL     1      -3.583   1.857   0.425  0.00  0.00    +0.023 A 
BRANCH  30  33
ATOM     33  C   UNL     1      -6.116  -0.817  -0.403  0.00  0.00    +0.013 C 
ATOM     34  C   UNL     1      -6.438  -1.061  -1.879  0.00  0.00    +0.012 C 
ATOM     35  C   UNL     1      -6.000  -2.158   0.323  0.00  0.00    +0.012 C 
ENDBRANCH  30  33
ENDBRANCH  12  27
TORSDOF 5
