REMARK  Name = ZINC05195431
REMARK  5 active torsions:
REMARK  status: ('A' for Active; 'I' for Inactive)
REMARK    1  A    between atoms: C_6  and  N_7
REMARK    2  A    between atoms: C_9  and  N_14
REMARK    3  A    between atoms: C_22  and  C_24
REMARK    4  A    between atoms: C_24  and  C_25
REMARK    5  A    between atoms: C_25  and  O_26
REMARK                            x       y       z     vdW  Elec       q    Type
REMARK                         _______ _______ _______ _____ _____    ______ ____
ROOT
ATOM      1  N   UNL     1       3.200   2.533  -3.416  0.00  0.00    -0.294 N 
ATOM      2  C   UNL     1       2.561   2.787  -2.256  0.00  0.00    +0.303 C 
ATOM      3  O   UNL     1       1.503   2.239  -2.012  0.00  0.00    -0.253 OA
ATOM      4  N   UNL     1       3.094   3.649  -1.368  0.00  0.00    -0.283 N 
ATOM      5  C   UNL     1       4.305   4.413  -1.701  0.00  0.00    +0.109 C 
ATOM      6  C   UNL     1       4.026   5.902  -1.474  0.00  0.00    +0.019 C 
ATOM      7  C   UNL     1       3.525   6.111  -0.043  0.00  0.00    +0.003 C 
ATOM      8  C   UNL     1       2.219   5.339   0.159  0.00  0.00    +0.023 C 
ATOM      9  C   UNL     1       2.477   3.843  -0.050  0.00  0.00    +0.080 C 
ATOM     10  H   UNL     1       4.005   3.023  -3.643  0.00  0.00    +0.151 HD
ENDROOT
BRANCH   1  13
ATOM     11  N   UNL     1       3.695   1.839  -6.479  0.00  0.00    -0.270 N 
ATOM     12  C   UNL     1       3.785   1.001  -5.277  0.00  0.00    +0.136 C 
ATOM     13  C   UNL     1       2.677   1.516  -4.332  0.00  0.00    +0.101 C 
ATOM     14  C   UNL     1       1.672   2.134  -5.330  0.00  0.00    +0.120 C 
ATOM     15  C   UNL     1       2.516   2.482  -6.538  0.00  0.00    +0.222 C 
ATOM     16  O   UNL     1       2.178   3.233  -7.428  0.00  0.00    -0.275 OA
BRANCH  11  22
ATOM     17  C   UNL     1       4.569   2.852  -8.489  0.00  0.00    +0.025 A 
ATOM     18  C   UNL     1       5.571   2.967  -9.433  0.00  0.00    +0.022 A 
ATOM     19  C   UNL     1       6.705   2.179  -9.340  0.00  0.00    +0.041 A 
ATOM     20  C   UNL     1       6.841   1.278  -8.299  0.00  0.00    +0.022 A 
ATOM     21  C   UNL     1       5.845   1.163  -7.349  0.00  0.00    +0.025 A 
ATOM     22  C   UNL     1       4.706   1.953  -7.440  0.00  0.00    +0.036 A 
ATOM     23 CL   UNL     1       7.959   2.321 -10.532  0.00  0.00    -0.084 Cl
ENDBRANCH  11  22
ENDBRANCH   1  13
BRANCH   9  24
ATOM     24  C   UNL     1       1.152   3.080   0.013  0.00  0.00    +0.050 C 
BRANCH  24  25
ATOM     25  C   UNL     1       0.504   3.295   1.383  0.00  0.00    +0.157 C 
BRANCH  25  26
ATOM     26  O   UNL     1      -0.784   2.678   1.403  0.00  0.00    -0.395 OA
ATOM     27  H   UNL     1      -1.254   2.774   2.243  0.00  0.00    +0.209 HD
ENDBRANCH  25  26
ENDBRANCH  24  25
ENDBRANCH   9  24
TORSDOF 5
