REMARK  Name = ZINC39852686
REMARK  8 active torsions:
REMARK  status: ('A' for Active; 'I' for Inactive)
REMARK    1  A    between atoms: C_1  and  C_2
REMARK    2  A    between atoms: C_2  and  C_3
REMARK    3  A    between atoms: C_3  and  N_4
REMARK    4  A    between atoms: C_5  and  C_7
REMARK    5  A    between atoms: C_7  and  C_8
REMARK    6  A    between atoms: C_8  and  C_9
REMARK    7  A    between atoms: C_9  and  C_10
REMARK    8  A    between atoms: C_18  and  C_20
REMARK                            x       y       z     vdW  Elec       q    Type
REMARK                         _______ _______ _______ _____ _____    ______ ____
ROOT
ATOM      1  C   UNL     1      -5.379  -6.776   0.017  0.00  0.00    -0.013 A 
ATOM      2  C   UNL     1      -6.207  -7.071  -1.151  0.00  0.00    +0.005 A 
ATOM      3  C   UNL     1      -6.000  -6.982  -2.531  0.00  0.00    +0.030 A 
ATOM      4  C   UNL     1      -6.998  -7.343  -3.392  0.00  0.00    +0.042 A 
ATOM      5  C   UNL     1      -8.218  -7.798  -2.906  0.00  0.00    +0.022 A 
ATOM      6  C   UNL     1      -8.443  -7.893  -1.550  0.00  0.00    +0.027 A 
ATOM      7  C   UNL     1      -7.441  -7.532  -0.655  0.00  0.00    +0.047 A 
ATOM      8  N   UNL     1      -7.365  -7.516   0.720  0.00  0.00    -0.353 N 
ATOM      9  C   UNL     1      -6.124  -7.067   1.113  0.00  0.00    +0.069 A 
ATOM     10  H   UNL     1      -8.077  -7.784   1.322  0.00  0.00    +0.166 HD
ATOM     11 CL   UNL     1      -6.741  -7.233  -5.105  0.00  0.00    -0.084 Cl
ENDROOT
BRANCH   9  12
ATOM     12  C   UNL     1      -5.674  -6.921   2.513  0.00  0.00    +0.087 A 
ATOM     13  C   UNL     1      -6.615  -6.743   3.528  0.00  0.00    +0.030 A 
ATOM     14  C   UNL     1      -6.178  -6.608   4.833  0.00  0.00    +0.004 A 
ATOM     15  C   UNL     1      -4.813  -6.655   5.084  0.00  0.00    +0.020 A 
ATOM     16  C   UNL     1      -3.936  -6.835   4.031  0.00  0.00    +0.111 A 
ATOM     17  N   UNL     1      -4.377  -6.966   2.796  0.00  0.00    -0.254 NA
ENDBRANCH   9  12
BRANCH   1  18
ATOM     18  C   UNL     1      -3.966  -6.254   0.006  0.00  0.00    +0.038 C 
BRANCH  18  19
ATOM     19  C   UNL     1      -3.986  -4.725   0.015  0.00  0.00    +0.014 C 
BRANCH  19  20
ATOM     20  C   UNL     1      -2.551  -4.195   0.004  0.00  0.00    +0.096 C 
BRANCH  20  22
ATOM     21  N   UNL     1      -1.413  -1.998   0.005  0.00  0.00    -0.315 N 
ATOM     22  C   UNL     1      -2.571  -2.688   0.012  0.00  0.00    +0.213 C 
ATOM     23  O   UNL     1      -3.630  -2.096   0.025  0.00  0.00    -0.276 OA
ATOM     24  H   UNL     1      -0.567  -2.472  -0.006  0.00  0.00    +0.149 HD
BRANCH  21  25
ATOM     25  C   UNL     1      -1.433  -0.534   0.013  0.00  0.00    +0.104 C 
BRANCH  25  27
ATOM     26  C   UNL     1      -0.019   1.526   0.010  0.00  0.00    +0.005 C 
ATOM     27  C   UNL     1       0.002  -0.004   0.002  0.00  0.00    +0.015 C 
ENDBRANCH  25  27
ENDBRANCH  21  25
ENDBRANCH  20  22
ENDBRANCH  19  20
ENDBRANCH  18  19
ENDBRANCH   1  18
TORSDOF 7
