REMARK  Name = ZINC20689952
REMARK  9 active torsions:
REMARK  status: ('A' for Active; 'I' for Inactive)
REMARK    1  A    between atoms: C_1  and  O_2
REMARK    2  A    between atoms: O_2  and  C_3
REMARK    3  A    between atoms: C_6  and  N_9
REMARK    4  A    between atoms: N_9  and  S_10
REMARK    5  A    between atoms: S_10  and  C_13
REMARK    6  A    between atoms: C_26  and  C_29
REMARK    7  A    between atoms: C_32  and  O_36
REMARK    8  A    between atoms: C_33  and  O_35
REMARK    9  A    between atoms: O_36  and  C_37
REMARK                            x       y       z     vdW  Elec       q    Type
REMARK                         _______ _______ _______ _____ _____    ______ ____
ROOT
ATOM      1  C   UNL     1       0.043  -0.395   0.149  0.00  0.00    +0.109 A 
ATOM      2  C   UNL     1       0.265   0.970   0.183  0.00  0.00    +0.030 A 
ATOM      3  C   UNL     1       1.551   1.462   0.267  0.00  0.00    +0.025 A 
ATOM      4  C   UNL     1       2.634   0.592   0.314  0.00  0.00    +0.031 A 
ATOM      5  C   UNL     1       2.401  -0.788   0.288  0.00  0.00    -0.018 A 
ATOM      6  C   UNL     1       1.113  -1.269   0.203  0.00  0.00    +0.034 A 
ATOM      7  C   UNL     1       3.578  -1.680   0.367  0.00  0.00    +0.049 C 
ATOM      8  C   UNL     1       3.562  -3.051  -0.206  0.00  0.00    -0.023 C 
ATOM      9  C   UNL     1       4.789  -3.356  -0.613  0.00  0.00    -0.030 C 
ATOM     10  C   UNL     1       5.729  -2.173  -0.368  0.00  0.00    +0.033 C 
ATOM     11  C   UNL     1       4.751  -0.991  -0.394  0.00  0.00    +0.029 C 
ATOM     12  C   UNL     1       5.112   0.227   0.438  0.00  0.00    +0.105 C 
ATOM     13  N   UNL     1       3.931   1.115   0.376  0.00  0.00    -0.336 N 
ATOM     14  H   UNL     1       4.063   2.207   0.378  0.00  0.00    +0.147 HD
ENDROOT
BRANCH  12  15
ATOM     15  C   UNL     1       6.315   0.919  -0.148  0.00  0.00    -0.023 A 
ATOM     16  C   UNL     1       6.166   1.759  -1.236  0.00  0.00    +0.009 A 
ATOM     17  C   UNL     1       7.267   2.397  -1.777  0.00  0.00    +0.050 A 
ATOM     18  C   UNL     1       8.523   2.195  -1.229  0.00  0.00    +0.161 A 
ATOM     19  C   UNL     1       8.674   1.349  -0.135  0.00  0.00    +0.159 A 
ATOM     20  C   UNL     1       7.565   0.717   0.406  0.00  0.00    +0.054 A 
BRANCH  19  21
ATOM     21  O   UNL     1       9.905   1.147   0.407  0.00  0.00    -0.503 OA
ATOM     22  H   UNL     1      10.022   0.477   1.272  0.00  0.00    +0.292 HD
ENDBRANCH  19  21
BRANCH  18  23
ATOM     23  O   UNL     1       9.607   2.822  -1.759  0.00  0.00    -0.491 OA
ATOM     24  C   UNL     1       9.378   3.676  -2.882  0.00  0.00    +0.277 C 
ENDBRANCH  18  23
ENDBRANCH  12  15
BRANCH   1  25
ATOM     25  S   UNL     1      -1.601  -1.018   0.035  0.00  0.00    +0.072 S 
ATOM     26  O   UNL     1      -1.550  -2.376   0.451  0.00  0.00    -0.150 OA
ATOM     27  O   UNL     1      -2.443  -0.060   0.661  0.00  0.00    -0.150 OA
BRANCH  25  28
ATOM     28  N   UNL     1      -2.010  -1.030  -1.570  0.00  0.00    -0.216 N 
ATOM     29  H   UNL     1      -2.835  -0.399  -1.933  0.00  0.00    +0.174 HD
BRANCH  28  33
ATOM     30  C   UNL     1       0.087  -3.453  -4.236  0.00  0.00    +0.120 A 
ATOM     31  C   UNL     1      -0.818  -4.019  -3.350  0.00  0.00    +0.047 A 
ATOM     32  C   UNL     1      -1.513  -3.217  -2.467  0.00  0.00    +0.028 A 
ATOM     33  C   UNL     1      -1.306  -1.844  -2.465  0.00  0.00    +0.048 A 
ATOM     34  C   UNL     1      -0.403  -1.278  -3.356  0.00  0.00    +0.028 A 
ATOM     35  C   UNL     1       0.295  -2.082  -4.235  0.00  0.00    +0.047 A 
BRANCH  30  37
ATOM     36  C   UNL     1       1.687  -3.595  -5.990  0.00  0.00    +0.277 C 
ATOM     37  O   UNL     1       0.771  -4.244  -5.106  0.00  0.00    -0.495 OA
ENDBRANCH  30  37
ENDBRANCH  28  33
ENDBRANCH  25  28
ENDBRANCH   1  25
TORSDOF 7
