REMARK  Name = ZINC01818672
REMARK  12 active torsions:
REMARK  status: ('A' for Active; 'I' for Inactive)
REMARK    1  A    between atoms: C_1  and  O_2
REMARK    2  A    between atoms: O_2  and  C_3
REMARK    3  A    between atoms: C_5  and  C_14
REMARK    4  A    between atoms: C_8  and  O_9
REMARK    5  A    between atoms: O_9  and  C_10
REMARK    6  A    between atoms: C_10  and  C_11
REMARK    7  A    between atoms: N_15  and  N_16
REMARK    8  A    between atoms: C_17  and  C_19
REMARK    9  A    between atoms: C_19  and  S_20
REMARK   10  A    between atoms: S_20  and  C_21
REMARK   11  A    between atoms: C_24  and  C_32
REMARK   12  A    between atoms: N_25  and  C_26
REMARK                            x       y       z     vdW  Elec       q    Type
REMARK                         _______ _______ _______ _____ _____    ______ ____
ROOT
ATOM      1  N   UNL     1      -1.713  -4.949  -5.108  0.00  0.00    -0.206 N 
ATOM      2  C   UNL     1      -1.346  -3.870  -4.388  0.00  0.00    +0.242 C 
ATOM      3  O   UNL     1      -1.646  -2.757  -4.768  0.00  0.00    -0.273 OA
ATOM      4  H   UNL     1      -1.473  -5.838  -4.805  0.00  0.00    +0.177 HD
ENDROOT
BRANCH   1   6
ATOM      5  C   UNL     1      -2.795  -5.824  -6.986  0.00  0.00    +0.138 C 
ATOM      6  N   UNL     1      -2.441  -4.785  -6.293  0.00  0.00    -0.188 NA
BRANCH   5   9
ATOM      7  C   UNL     1      -4.662  -6.603 -10.150  0.00  0.00    +0.162 A 
ATOM      8  C   UNL     1      -3.943  -6.770  -8.981  0.00  0.00    +0.059 A 
ATOM      9  C   UNL     1      -3.561  -5.652  -8.234  0.00  0.00    -0.002 A 
ATOM     10  C   UNL     1      -3.913  -4.372  -8.669  0.00  0.00    +0.013 A 
ATOM     11  C   UNL     1      -4.625  -4.213  -9.839  0.00  0.00    +0.050 A 
ATOM     12  C   UNL     1      -5.003  -5.323 -10.581  0.00  0.00    +0.163 A 
BRANCH   7  14
ATOM     13  C   UNL     1      -4.650  -8.970 -10.379  0.00  0.00    +0.277 C 
ATOM     14  O   UNL     1      -5.035  -7.688 -10.880  0.00  0.00    -0.491 OA
ENDBRANCH   7  14
BRANCH  12  15
ATOM     15  O   UNL     1      -5.710  -5.161 -11.731  0.00  0.00    -0.479 OA
BRANCH  15  16
ATOM     16  C   UNL     1      -6.026  -3.821 -12.114  0.00  0.00    +0.324 C 
BRANCH  16  17
ATOM     17  C   UNL     1      -6.806  -3.839 -13.404  0.00  0.00    +0.248 C 
ATOM     18  O   UNL     1      -7.064  -4.894 -13.942  0.00  0.00    -0.272 OA
ATOM     19  N   UNL     1      -7.215  -2.681 -13.960  0.00  0.00    -0.327 N 
ATOM     20  H   UNL     1      -7.008  -1.837 -13.530  0.00  0.00    +0.145 HD
ATOM     21  H   UNL     1      -7.717  -2.692 -14.790  0.00  0.00    +0.145 HD
ENDBRANCH  16  17
ENDBRANCH  15  16
ENDBRANCH  12  15
ENDBRANCH   5   9
ENDBRANCH   1   6
BRANCH   2  22
ATOM     22  C   UNL     1      -0.562  -4.045  -3.113  0.00  0.00    +0.174 C 
BRANCH  22  23
ATOM     23  S   UNL     1      -0.224  -2.423  -2.385  0.00  0.00    -0.076 S 
BRANCH  23  24
ATOM     24  C   UNL     1       0.676  -2.914  -0.951  0.00  0.00    +0.197 A 
ATOM     25  N   UNL     1       0.968  -4.145  -0.597  0.00  0.00    -0.122 NA
ATOM     26  N   UNL     1       1.633  -4.144   0.502  0.00  0.00    -0.128 NA
ATOM     27  C   UNL     1       1.813  -2.911   0.917  0.00  0.00    +0.169 A 
ATOM     28  N   UNL     1       1.200  -2.083   0.002  0.00  0.00    -0.270 N 
BRANCH  28  29
ATOM     29  C   UNL     1       1.133  -0.684   0.036  0.00  0.00    +0.051 A 
ATOM     30  C   UNL     1      -0.084  -0.051   0.247  0.00  0.00    +0.026 A 
ATOM     31  C   UNL     1      -0.147   1.329   0.280  0.00  0.00    +0.002 A 
ATOM     32  C   UNL     1       1.001   2.079   0.104  0.00  0.00    +0.000 A 
ATOM     33  C   UNL     1       2.215   1.451  -0.106  0.00  0.00    +0.002 A 
ATOM     34  C   UNL     1       2.284   0.072  -0.140  0.00  0.00    +0.026 A 
ENDBRANCH  28  29
BRANCH  27  35
ATOM     35  C   UNL     1       2.533  -2.490   2.138  0.00  0.00    +0.020 A 
ATOM     36  C   UNL     1       3.405  -3.373   2.776  0.00  0.00    +0.011 A 
ATOM     37  C   UNL     1       4.079  -2.973   3.911  0.00  0.00    +0.001 A 
ATOM     38  C   UNL     1       3.882  -1.703   4.424  0.00  0.00    +0.000 A 
ATOM     39  C   UNL     1       3.014  -0.825   3.800  0.00  0.00    +0.001 A 
ATOM     40  C   UNL     1       2.339  -1.211   2.660  0.00  0.00    +0.011 A 
ENDBRANCH  27  35
ENDBRANCH  23  24
ENDBRANCH  22  23
ENDBRANCH   2  22
TORSDOF 11
