REMARK  Name = ZINC08783661
REMARK  9 active torsions:
REMARK  status: ('A' for Active; 'I' for Inactive)
REMARK    1  A    between atoms: C_1  and  N_2
REMARK    2  A    between atoms: N_2  and  C_3
REMARK    3  A    between atoms: N_2  and  C_4
REMARK    4  A    between atoms: C_11  and  N_27
REMARK    5  A    between atoms: C_12  and  C_25
REMARK    6  A    between atoms: C_13  and  C_15
REMARK    7  A    between atoms: C_18  and  C_21
REMARK    8  A    between atoms: C_21  and  O_23
REMARK    9  A    between atoms: O_23  and  C_24
REMARK                            x       y       z     vdW  Elec       q    Type
REMARK                         _______ _______ _______ _____ _____    ______ ____
ROOT
ATOM      1  C   UNL     1       4.665   2.100  -3.544  0.00  0.00    +0.033 A 
ATOM      2  C   UNL     1       3.593   1.218  -3.617  0.00  0.00    +0.023 A 
ATOM      3  C   UNL     1       2.897   0.883  -2.473  0.00  0.00    +0.010 A 
ATOM      4  C   UNL     1       3.261   1.421  -1.252  0.00  0.00    +0.008 A 
ATOM      5  C   UNL     1       4.329   2.302  -1.172  0.00  0.00    +0.136 A 
ATOM      6  C   UNL     1       5.031   2.642  -2.321  0.00  0.00    +0.069 A 
ATOM      7  O   UNL     1       4.700   2.839   0.016  0.00  0.00    -0.441 OA
ATOM      8  C   UNL     1       4.317   2.257   1.164  0.00  0.00    +0.199 C 
ATOM      9  C   UNL     1       3.275   1.393   1.216  0.00  0.00    +0.098 C 
ATOM     10  C   UNL     1       2.489   1.042  -0.016  0.00  0.00    +0.098 C 
ENDROOT
BRANCH  10  11
ATOM     11  C   UNL     1       1.177   1.782   0.000  0.00  0.00    -0.035 A 
ATOM     12  C   UNL     1      -0.013   1.076   0.008  0.00  0.00    +0.005 A 
ATOM     13  C   UNL     1      -1.217   1.748   0.017  0.00  0.00    +0.015 A 
ATOM     14  C   UNL     1      -1.234   3.144   0.030  0.00  0.00    +0.059 A 
ATOM     15  C   UNL     1      -0.030   3.850   0.023  0.00  0.00    +0.015 A 
ATOM     16  C   UNL     1       1.167   3.166   0.008  0.00  0.00    +0.005 A 
BRANCH  14  17
ATOM     17  C   UNL     1      -2.521   3.870   0.045  0.00  0.00    +0.339 C 
ATOM     18  O   UNL     1      -2.532   5.085   0.051  0.00  0.00    -0.245 OA
BRANCH  17  19
ATOM     19  O   UNL     1      -3.681   3.185   0.053  0.00  0.00    -0.464 OA
ATOM     20  C   UNL     1      -4.906   3.964   0.068  0.00  0.00    +0.280 C 
ENDBRANCH  17  19
ENDBRANCH  14  17
ENDBRANCH  10  11
BRANCH   1  22
ATOM     21  C   UNL     1       4.981   1.869  -5.992  0.00  0.00    +0.129 C 
ATOM     22  N   UNL     1       5.370   2.442  -4.700  0.00  0.00    -0.336 N 
ATOM     23  C   UNL     1       6.499   3.372  -4.621  0.00  0.00    +0.129 C 
ENDBRANCH   1  22
BRANCH   8  24
ATOM     24  N   UNL     1       5.001   2.545   2.318  0.00  0.00    -0.328 N 
ATOM     25  H   UNL     1       5.750   3.161   2.297  0.00  0.00    +0.145 HD
ATOM     26  H   UNL     1       4.736   2.132   3.155  0.00  0.00    +0.145 HD
ENDBRANCH   8  24
BRANCH   9  27
ATOM     27  C   UNL     1       2.914   0.804   2.471  0.00  0.00    +0.101 C 
ATOM     28  N   UNL     1       2.627   0.337   3.466  0.00  0.00    -0.191 NA
ENDBRANCH   9  27
TORSDOF 6
