REMARK  Name = ZINC09482782
REMARK  4 active torsions:
REMARK  status: ('A' for Active; 'I' for Inactive)
REMARK    1  A    between atoms: C_6  and  O_11
REMARK    2  A    between atoms: O_11  and  C_12
REMARK    3  A    between atoms: C_12  and  C_13
REMARK    4  A    between atoms: C_13  and  N_14
REMARK                            x       y       z     vdW  Elec       q    Type
REMARK                         _______ _______ _______ _____ _____    ______ ____
ROOT
ATOM      1  N   UNL     1      -2.368  -2.651  -0.068  0.00  0.00    -0.298 N 
ATOM      2  C   UNL     1      -2.398  -4.000   0.499  0.00  0.00    +0.110 C 
ATOM      3  C   UNL     1      -1.292  -4.825  -0.174  0.00  0.00    +0.041 C 
ATOM      4  C   UNL     1       0.050  -4.226   0.251  0.00  0.00    +0.129 C 
ATOM      5  N   UNL     1       0.026  -2.769   0.077  0.00  0.00    -0.280 N 
ATOM      6  C   UNL     1      -1.132  -2.055   0.010  0.00  0.00    +0.202 A 
ATOM      7  N   UNL     1      -1.132  -0.734  -0.007  0.00  0.00    -0.216 NA
ATOM      8  C   UNL     1       0.002  -0.004   0.002  0.00  0.00    +0.080 A 
ATOM      9  C   UNL     1      -0.017   1.394   0.010  0.00  0.00    +0.028 A 
ATOM     10  C   UNL     1       1.161   2.086   0.002  0.00  0.00    +0.002 A 
ATOM     11  C   UNL     1       2.381   1.422  -0.015  0.00  0.00    +0.001 A 
ATOM     12  C   UNL     1       2.432   0.056  -0.020  0.00  0.00    +0.015 A 
ATOM     13  C   UNL     1       1.246  -0.676  -0.006  0.00  0.00    +0.065 A 
ATOM     14  C   UNL     1       1.230  -2.141   0.010  0.00  0.00    +0.263 A 
ATOM     15  O   UNL     1       2.266  -2.779  -0.036  0.00  0.00    -0.267 OA
ENDROOT
BRANCH   1  16
ATOM     16  C   UNL     1      -3.401  -1.801   0.539  0.00  0.00    +0.149 C 
BRANCH  16  17
ATOM     17  C   UNL     1      -3.147  -1.686   2.044  0.00  0.00    +0.248 C 
BRANCH  17  18
ATOM     18  O   UNL     1      -1.914  -0.999   2.267  0.00  0.00    -0.490 OA
BRANCH  18  24
ATOM     19  C   UNL     1       0.750   0.395   7.820  0.00  0.00    +0.001 A 
ATOM     20  C   UNL     1       1.565   0.870   6.793  0.00  0.00    +0.001 A 
ATOM     21  C   UNL     1       1.218   0.698   5.489  0.00  0.00    +0.008 A 
ATOM     22  C   UNL     1       0.022   0.033   5.168  0.00  0.00    -0.014 A 
ATOM     23  C   UNL     1      -0.368  -0.161   3.833  0.00  0.00    +0.054 A 
ATOM     24  C   UNL     1      -1.538  -0.811   3.559  0.00  0.00    +0.121 A 
ATOM     25  C   UNL     1      -2.356  -1.281   4.592  0.00  0.00    +0.046 A 
ATOM     26  C   UNL     1      -2.003  -1.114   5.894  0.00  0.00    +0.012 A 
ATOM     27  C   UNL     1      -0.806  -0.449   6.213  0.00  0.00    -0.018 A 
ATOM     28  C   UNL     1      -0.415  -0.253   7.548  0.00  0.00    +0.008 A 
ENDBRANCH  18  24
ENDBRANCH  17  18
ENDBRANCH  16  17
ENDBRANCH   1  16
TORSDOF 4
