REMARK  Name = ZINC09340881
REMARK  5 active torsions:
REMARK  status: ('A' for Active; 'I' for Inactive)
REMARK    1  A    between atoms: C_1  and  C_2
REMARK    2  A    between atoms: C_12  and  C_13
REMARK    3  A    between atoms: C_13  and  C_14
REMARK    4  A    between atoms: N_16  and  C_17
REMARK    5  A    between atoms: C_27  and  C_28
REMARK                            x       y       z     vdW  Elec       q    Type
REMARK                         _______ _______ _______ _____ _____    ______ ____
ROOT
ATOM      1  C   UNL     1      -5.507   1.216  -4.002  0.00  0.00    +0.045 C 
ATOM      2  C   UNL     1      -4.662   0.622  -5.098  0.00  0.00    -0.029 A 
ATOM      3  C   UNL     1      -4.981   0.861  -6.509  0.00  0.00    +0.022 A 
ATOM      4  C   UNL     1      -6.077   1.646  -6.870  0.00  0.00    +0.024 A 
ATOM      5  C   UNL     1      -6.355   1.847  -8.212  0.00  0.00    +0.029 A 
ATOM      6  C   UNL     1      -5.543   1.268  -9.207  0.00  0.00    +0.139 A 
ATOM      7  C   UNL     1      -4.455   0.488  -8.841  0.00  0.00    +0.093 A 
ATOM      8  C   UNL     1      -4.167   0.280  -7.503  0.00  0.00    +0.143 A 
ATOM      9  O   UNL     1      -3.108  -0.479  -7.142  0.00  0.00    -0.422 OA
ATOM     10  C   UNL     1      -2.809  -0.696  -5.852  0.00  0.00    +0.341 A 
ATOM     11  O   UNL     1      -1.845  -1.387  -5.576  0.00  0.00    -0.245 OA
ATOM     12  C   UNL     1      -3.581  -0.146  -4.807  0.00  0.00    +0.049 A 
ATOM     13  O   UNL     1      -6.049   1.633 -10.403  0.00  0.00    -0.462 OA
ATOM     14  C   UNL     1      -7.135   2.410 -10.255  0.00  0.00    +0.204 A 
ATOM     15  C   UNL     1      -7.397   2.596  -8.943  0.00  0.00    +0.028 A 
ENDROOT
BRANCH  15  16
ATOM     16  C   UNL     1      -8.505   3.388  -8.356  0.00  0.00    -0.014 A 
ATOM     17  C   UNL     1      -9.321   2.829  -7.374  0.00  0.00    +0.010 A 
ATOM     18  C   UNL     1     -10.347   3.572  -6.828  0.00  0.00    +0.020 A 
ATOM     19  C   UNL     1     -10.574   4.867  -7.261  0.00  0.00    +0.041 A 
ATOM     20  C   UNL     1      -9.770   5.425  -8.241  0.00  0.00    +0.020 A 
ATOM     21  C   UNL     1      -8.738   4.692  -8.790  0.00  0.00    +0.010 A 
ATOM     22 CL   UNL     1     -11.871   5.795  -6.575  0.00  0.00    -0.084 Cl
ENDBRANCH  15  16
BRANCH  12  23
ATOM     23  C   UNL     1      -3.210  -0.415  -3.371  0.00  0.00    +0.138 C 
BRANCH  23  24
ATOM     24  C   UNL     1      -2.259   0.651  -2.890  0.00  0.00    +0.218 C 
ATOM     25  O   UNL     1      -1.917   1.541  -3.639  0.00  0.00    -0.275 OA
ATOM     26  N   UNL     1      -1.790   0.615  -1.627  0.00  0.00    -0.307 N 
ATOM     27  H   UNL     1      -2.064  -0.097  -1.028  0.00  0.00    +0.149 HD
BRANCH  26  28
ATOM     28  C   UNL     1      -0.866   1.651  -1.159  0.00  0.00    +0.119 C 
ATOM     29  C   UNL     1      -0.013   1.086   0.008  0.00  0.00    +0.197 C 
ATOM     30  S   UNL     1      -0.999   1.741   1.420  0.00  0.00    -0.008 S 
ATOM     31  O   UNL     1      -2.012   0.823   1.805  0.00  0.00    -0.170 OA
ATOM     32  O   UNL     1      -0.161   2.369   2.381  0.00  0.00    -0.170 OA
ATOM     33  C   UNL     1      -1.838   3.063   0.563  0.00  0.00    +0.132 C 
ATOM     34  C   UNL     1      -1.648   2.843  -0.712  0.00  0.00    +0.015 C 
ENDBRANCH  26  28
ENDBRANCH  23  24
ENDBRANCH  12  23
TORSDOF 4
