REMARK  Name = ZINC09043182
REMARK  7 active torsions:
REMARK  status: ('A' for Active; 'I' for Inactive)
REMARK    1  A    between atoms: C_4  and  O_7
REMARK    2  A    between atoms: O_7  and  C_8
REMARK    3  A    between atoms: C_11  and  N_14
REMARK    4  A    between atoms: C_18  and  N_54
REMARK    5  A    between atoms: C_22  and  C_23
REMARK    6  A    between atoms: C_22  and  N_54
REMARK    7  A    between atoms: C_23  and  C_24
REMARK                            x       y       z     vdW  Elec       q    Type
REMARK                         _______ _______ _______ _____ _____    ______ ____
ROOT
ATOM      1  N   UNL     1       6.308  -4.226  -0.303  0.00  0.00    -0.212 N 
ATOM      2  C   UNL     1       6.523  -5.534  -0.487  0.00  0.00    +0.225 C 
ATOM      3  O   UNL     1       5.661  -6.378  -0.610  0.00  0.00    -0.275 OA
ATOM      4  C   UNL     1       8.014  -5.793  -0.520  0.00  0.00    +0.090 C 
ATOM      5  C   UNL     1       8.628  -4.394  -0.312  0.00  0.00    +0.026 C 
ATOM      6  C   UNL     1       7.421  -3.491  -0.188  0.00  0.00    +0.213 C 
ATOM      7  O   UNL     1       7.456  -2.292  -0.013  0.00  0.00    -0.277 OA
ENDROOT
BRANCH   1  11
ATOM      8  C   UNL     1       2.482  -2.576  -0.089  0.00  0.00    +0.129 A 
ATOM      9  C   UNL     1       3.377  -2.391   0.956  0.00  0.00    +0.048 A 
ATOM     10  C   UNL     1       4.641  -2.942   0.887  0.00  0.00    +0.027 A 
ATOM     11  C   UNL     1       5.021  -3.671  -0.231  0.00  0.00    +0.044 A 
ATOM     12  C   UNL     1       4.127  -3.851  -1.278  0.00  0.00    +0.027 A 
ATOM     13  C   UNL     1       2.861  -3.305  -1.207  0.00  0.00    +0.048 A 
BRANCH   8  14
ATOM     14  O   UNL     1       1.236  -2.037  -0.019  0.00  0.00    -0.456 OA
BRANCH  14  18
ATOM     15  C   UNL     1       0.367   0.433   3.168  0.00  0.00    +0.000 A 
ATOM     16  C   UNL     1       1.278   0.837   2.210  0.00  0.00    +0.004 A 
ATOM     17  C   UNL     1       1.571   0.012   1.142  0.00  0.00    +0.046 A 
ATOM     18  C   UNL     1       0.950  -1.224   1.031  0.00  0.00    +0.128 A 
ATOM     19  C   UNL     1       0.036  -1.627   1.994  0.00  0.00    +0.046 A 
ATOM     20  C   UNL     1      -0.253  -0.798   3.060  0.00  0.00    +0.004 A 
ENDBRANCH  14  18
ENDBRANCH   8  14
ENDBRANCH   1  11
BRANCH   5  21
ATOM     21  N   UNL     1       9.446  -4.013  -1.479  0.00  0.00    +0.387 N 
ATOM     22  H   UNL     1       8.831  -3.666  -2.224  0.00  0.00    -0.085 HD
ATOM     23  H   UNL     1       9.961  -4.834  -1.815  0.00  0.00    -0.085 HD
BRANCH  21  24
ATOM     24  C   UNL     1      10.405  -2.954  -1.109  0.00  0.00    -0.077 C 
BRANCH  24  25
ATOM     25  C   UNL     1      11.237  -2.580  -2.337  0.00  0.00    +0.018 C 
BRANCH  25  26
ATOM     26  C   UNL     1      12.219  -1.499  -1.966  0.00  0.00    -0.024 A 
ATOM     27  C   UNL     1      12.047  -0.176  -2.121  0.00  0.00    +0.087 A 
ATOM     28  N   UNL     1      13.152   0.494  -1.672  0.00  0.00    -0.360 N 
ATOM     29  H   UNL     1      13.262   1.458  -1.681  0.00  0.00    +0.165 HD
ATOM     30  C   UNL     1      14.087  -0.404  -1.206  0.00  0.00    +0.047 A 
ATOM     31  C   UNL     1      13.541  -1.691  -1.364  0.00  0.00    +0.003 A 
ATOM     32  C   UNL     1      14.277  -2.812  -0.977  0.00  0.00    +0.010 A 
ATOM     33  C   UNL     1      15.521  -2.653  -0.436  0.00  0.00    +0.001 A 
ATOM     34  C   UNL     1      16.062  -1.385  -0.272  0.00  0.00    +0.002 A 
ATOM     35  C   UNL     1      15.355  -0.265  -0.652  0.00  0.00    +0.026 A 
ENDBRANCH  25  26
ENDBRANCH  24  25
ENDBRANCH  21  24
ENDBRANCH   5  21
TORSDOF 7
