REMARK  Name = ZINC20441784
REMARK  6 active torsions:
REMARK  status: ('A' for Active; 'I' for Inactive)
REMARK    1  A    between atoms: C_6  and  S_7
REMARK    2  A    between atoms: S_7  and  N_10
REMARK    3  A    between atoms: N_10  and  C_11
REMARK    4  A    between atoms: C_17  and  N_19
REMARK    5  A    between atoms: N_22  and  C_25
REMARK    6  A    between atoms: C_25  and  C_26
REMARK                            x       y       z     vdW  Elec       q    Type
REMARK                         _______ _______ _______ _____ _____    ______ ____
ROOT
ATOM      1  C   UNL     1      -0.753   1.593  -1.232  0.00  0.00    +0.063 C 
ATOM      2  C   UNL     1      -2.188   1.063  -1.221  0.00  0.00    +0.019 C 
ATOM      3  C   UNL     1      -2.904   1.556   0.038  0.00  0.00    +0.001 C 
ATOM      4  C   UNL     1      -2.164   1.050   1.278  0.00  0.00    -0.001 C 
ATOM      5  C   UNL     1      -0.729   1.579   1.267  0.00  0.00    -0.014 C 
ATOM      6  C   UNL     1      -0.013   1.086   0.008  0.00  0.00    -0.050 C 
ENDROOT
BRANCH   6   7
ATOM      7  N   UNL     1       1.365   1.594  -0.002  0.00  0.00    +0.384 N 
ATOM      8  C   UNL     1       2.057   1.215  -1.242  0.00  0.00    -0.063 C 
ATOM      9  C   UNL     1       3.459   1.829  -1.249  0.00  0.00    +0.066 C 
ATOM     10  N   UNL     1       4.202   1.361  -0.071  0.00  0.00    -0.302 NA
ATOM     11  C   UNL     1       3.510   1.741   1.169  0.00  0.00    +0.066 C 
ATOM     12  C   UNL     1       2.108   1.127   1.176  0.00  0.00    -0.063 C 
ATOM     13  H   UNL     1       1.319   2.693   0.039  0.00  0.00    -0.081 HD
BRANCH  10  14
ATOM     14  C   UNL     1       5.580   1.870  -0.081  0.00  0.00    +0.119 C 
BRANCH  14  15
ATOM     15  C   UNL     1       6.331   1.263  -1.238  0.00  0.00    -0.030 A 
ATOM     16  C   UNL     1       6.333   1.896  -2.467  0.00  0.00    +0.009 A 
ATOM     17  C   UNL     1       7.020   1.342  -3.532  0.00  0.00    +0.050 A 
ATOM     18  C   UNL     1       7.709   0.151  -3.369  0.00  0.00    +0.166 A 
ATOM     19  C   UNL     1       7.707  -0.486  -2.130  0.00  0.00    +0.167 A 
ATOM     20  C   UNL     1       7.021   0.077  -1.067  0.00  0.00    +0.054 A 
ATOM     21  O   UNL     1       8.450  -1.627  -2.226  0.00  0.00    -0.453 OA
ATOM     22  C   UNL     1       9.241  -1.472  -3.419  0.00  0.00    +0.466 C 
ATOM     23  O   UNL     1       8.453  -0.591  -4.240  0.00  0.00    -0.453 OA
ENDBRANCH  14  15
ENDBRANCH  10  14
ENDBRANCH   6   7
BRANCH   1  24
ATOM     24  N   UNL     1      -0.773   3.058  -1.224  0.00  0.00    -0.188 NA
ATOM     25  H   UNL     1      -1.018   3.599  -0.298  0.00  0.00    +0.148 HD
BRANCH  24  26
ATOM     26  S   UNL     1      -0.672   3.895  -2.649  0.00  0.00    +0.059 S 
ATOM     27  O   UNL     1      -0.744   5.274  -2.315  0.00  0.00    -0.153 OA
ATOM     28  O   UNL     1       0.420   3.341  -3.369  0.00  0.00    -0.153 OA
BRANCH  26  34
ATOM     29  C   UNL     1      -2.135   2.453  -4.447  0.00  0.00    +0.030 A 
ATOM     30  C   UNL     1      -3.276   2.159  -5.170  0.00  0.00    +0.022 A 
ATOM     31  C   UNL     1      -4.406   2.944  -5.026  0.00  0.00    +0.041 A 
ATOM     32  C   UNL     1      -4.395   4.019  -4.155  0.00  0.00    +0.022 A 
ATOM     33  C   UNL     1      -3.255   4.309  -3.429  0.00  0.00    +0.030 A 
ATOM     34  C   UNL     1      -2.126   3.525  -3.574  0.00  0.00    +0.105 A 
ATOM     35 CL   UNL     1      -5.837   2.581  -5.939  0.00  0.00    -0.084 Cl
ENDBRANCH  26  34
ENDBRANCH  24  26
ENDBRANCH   1  24
TORSDOF 6
