REMARK  Name = ZINC64185924
REMARK  9 active torsions:
REMARK  status: ('A' for Active; 'I' for Inactive)
REMARK    1  A    between atoms: C_1  and  C_2
REMARK    2  A    between atoms: C_2  and  C_3
REMARK    3  A    between atoms: C_2  and  C_4
REMARK    4  A    between atoms: C_4  and  C_6
REMARK    5  A    between atoms: C_4  and  N_23
REMARK    6  A    between atoms: C_11  and  C_14
REMARK    7  A    between atoms: C_24  and  C_26
REMARK    8  A    between atoms: C_26  and  O_27
REMARK    9  A    between atoms: O_27  and  C_28
REMARK                            x       y       z     vdW  Elec       q    Type
REMARK                         _______ _______ _______ _____ _____    ______ ____
ROOT
ATOM      1  C   UNL     1      -1.284  -2.154  -0.011  0.00  0.00    +0.236 C 
ATOM      2  O   UNL     1      -1.640  -2.836  -0.949  0.00  0.00    -0.274 OA
ATOM      3  N   UNL     1      -0.739  -2.734   1.076  0.00  0.00    -0.296 N 
ATOM      4  C   UNL     1      -0.684  -4.199   1.214  0.00  0.00    +0.113 C 
ATOM      5  C   UNL     1       0.788  -4.616   1.264  0.00  0.00    +0.054 C 
ATOM      6  C   UNL     1       1.552  -3.726   2.200  0.00  0.00    -0.043 C 
ATOM      7  C   UNL     1       1.134  -2.531   2.599  0.00  0.00    -0.004 C 
ATOM      8  C   UNL     1      -0.170  -1.930   2.167  0.00  0.00    +0.135 C 
ENDROOT
BRANCH   6   9
ATOM      9  C   UNL     1       2.792  -4.189   2.686  0.00  0.00    -0.016 C 
ATOM     10  C   UNL     1       3.480  -5.327   2.283  0.00  0.00    +0.003 A 
ATOM     11  C   UNL     1       3.193  -6.328   1.326  0.00  0.00    +0.010 A 
ATOM     12  C   UNL     1       4.066  -7.348   1.139  0.00  0.00    +0.001 A 
ATOM     13  C   UNL     1       5.254  -7.441   1.872  0.00  0.00    +0.002 A 
ATOM     14  C   UNL     1       5.594  -6.519   2.804  0.00  0.00    +0.026 A 
ATOM     15  C   UNL     1       4.730  -5.420   3.058  0.00  0.00    +0.043 A 
ATOM     16  N   UNL     1       4.829  -4.410   3.895  0.00  0.00    -0.380 N 
ATOM     17  C   UNL     1       3.654  -3.546   3.750  0.00  0.00    +0.149 C 
ATOM     18  H   UNL     1       5.565  -4.259   4.509  0.00  0.00    +0.160 HD
ENDBRANCH   6   9
BRANCH   1  19
ATOM     19  C   UNL     1      -1.452  -0.657  -0.061  0.00  0.00    +0.162 C 
BRANCH  19  20
ATOM     20  N   UNL     1      -2.720  -0.330  -0.719  0.00  0.00    -0.301 N 
ATOM     21  C   UNL     1      -3.334   0.841  -0.455  0.00  0.00    +0.251 C 
ATOM     22  O   UNL     1      -2.837   1.623   0.328  0.00  0.00    -0.272 OA
ATOM     23  H   UNL     1      -3.117  -0.955  -1.345  0.00  0.00    +0.150 HD
BRANCH  21  24
ATOM     24  C   UNL     1      -4.638   1.177  -1.132  0.00  0.00    +0.324 C 
BRANCH  24  25
ATOM     25  O   UNL     1      -5.086   2.461  -0.691  0.00  0.00    -0.483 OA
BRANCH  25  26
ATOM     26  C   UNL     1      -6.256   2.917  -1.210  0.00  0.00    +0.121 A 
ATOM     27  C   UNL     1      -6.962   2.143  -2.119  0.00  0.00    +0.045 A 
ATOM     28  C   UNL     1      -8.152   2.609  -2.644  0.00  0.00    +0.004 A 
ATOM     29  C   UNL     1      -8.639   3.846  -2.265  0.00  0.00    +0.000 A 
ATOM     30  C   UNL     1      -7.937   4.620  -1.359  0.00  0.00    +0.004 A 
ATOM     31  C   UNL     1      -6.750   4.155  -0.826  0.00  0.00    +0.045 A 
ENDBRANCH  25  26
ENDBRANCH  24  25
ENDBRANCH  21  24
ENDBRANCH  19  20
BRANCH  19  33
ATOM     32  C   UNL     1      -0.406   1.486  -0.808  0.00  0.00    +0.009 C 
ATOM     33  C   UNL     1      -0.295  -0.040  -0.849  0.00  0.00    +0.012 C 
ATOM     34  C   UNL     1       1.034  -0.471  -0.225  0.00  0.00    +0.009 C 
ENDBRANCH  19  33
ENDBRANCH   1  19
TORSDOF 7
