REMARK  Name = ZINC09270243
REMARK  2 active torsions:
REMARK  status: ('A' for Active; 'I' for Inactive)
REMARK    1  A    between atoms: C_1  and  N_2
REMARK    2  A    between atoms: C_3  and  C_14
REMARK                            x       y       z     vdW  Elec       q    Type
REMARK                         _______ _______ _______ _____ _____    ______ ____
ROOT
ATOM      1  C   UNL     1      -6.410   4.176   0.282  0.00  0.00    +0.154 C 
ATOM      2  N   UNL     1      -5.949   5.567   0.294  0.00  0.00    -0.296 N 
ATOM      3  C   UNL     1      -4.608   5.843   0.187  0.00  0.00    +0.137 A 
ATOM      4  N   UNL     1      -4.128   7.062   0.186  0.00  0.00    -0.229 NA
ATOM      5  C   UNL     1      -4.929   8.138   0.296  0.00  0.00    +0.079 A 
ATOM      6  C   UNL     1      -4.411   9.438   0.294  0.00  0.00    +0.029 A 
ATOM      7  C   UNL     1      -5.256  10.505   0.408  0.00  0.00    +0.016 A 
ATOM      8  C   UNL     1      -6.628  10.322   0.527  0.00  0.00    +0.014 A 
ATOM      9  C   UNL     1      -7.168   9.052   0.532  0.00  0.00    +0.029 A 
ATOM     10  C   UNL     1      -6.326   7.950   0.417  0.00  0.00    +0.066 A 
ATOM     11  C   UNL     1      -6.846   6.573   0.416  0.00  0.00    +0.262 A 
ATOM     12  O   UNL     1      -8.038   6.348   0.517  0.00  0.00    -0.267 OA
ATOM     13  I   UNL     1      -7.887  11.987   0.701  0.00  0.00    -0.044 I 
ENDROOT
BRANCH   3  14
ATOM     14  C   UNL     1      -3.672   4.722   0.061  0.00  0.00    +0.060 C 
ATOM     15  C   UNL     1      -2.329   4.950   0.089  0.00  0.00    +0.049 C 
ATOM     16  C   UNL     1      -1.246   3.995  -0.230  0.00  0.00    +0.009 A 
ATOM     17  C   UNL     1      -1.239   2.663  -0.635  0.00  0.00    +0.025 A 
ATOM     18  C   UNL     1      -0.037   2.022  -0.858  0.00  0.00    +0.019 A 
ATOM     19  C   UNL     1       1.157   2.706  -0.689  0.00  0.00    +0.017 A 
ATOM     20  C   UNL     1       1.159   4.028  -0.292  0.00  0.00    +0.025 A 
ATOM     21  C   UNL     1      -0.041   4.689  -0.057  0.00  0.00    +0.042 A 
ATOM     22  N   UNL     1      -0.313   5.994   0.343  0.00  0.00    -0.281 N 
ATOM     23  C   UNL     1      -1.636   6.209   0.447  0.00  0.00    +0.249 C 
ATOM     24  O   UNL     1      -2.168   7.252   0.775  0.00  0.00    -0.270 OA
ATOM     25 BR   UNL     1      -0.019   0.211  -1.402  0.00  0.00    -0.050 Br
ATOM     26  H   UNL     1       0.365   6.663   0.524  0.00  0.00    +0.155 HD
ENDBRANCH   3  14
TORSDOF 1
