REMARK  Name = ZINC09549666
REMARK  3 active torsions:
REMARK  status: ('A' for Active; 'I' for Inactive)
REMARK    1  A    between atoms: C_6  and  C_7
REMARK    2  A    between atoms: C_13  and  C_15
REMARK    3  A    between atoms: C_16  and  C_17
REMARK                            x       y       z     vdW  Elec       q    Type
REMARK                         _______ _______ _______ _____ _____    ______ ____
ROOT
ATOM      1  C   UNL     1       0.712   6.722   2.933  0.00  0.00    +0.107 C 
ATOM      2  C   UNL     1      -0.261   7.180   4.040  0.00  0.00    +0.029 C 
ATOM      3  C   UNL     1       0.665   7.944   5.022  0.00  0.00    +0.021 C 
ATOM      4  C   UNL     1       1.969   7.113   4.931  0.00  0.00    +0.109 C 
ATOM      5  N   UNL     1       2.062   6.710   3.516  0.00  0.00    -0.291 N 
ATOM      6  C   UNL     1       3.196   6.387   2.864  0.00  0.00    +0.240 C 
ATOM      7  O   UNL     1       3.154   6.069   1.689  0.00  0.00    -0.271 OA
ENDROOT
BRANCH   1  13
ATOM      8  C   UNL     1       0.716   4.237   3.216  0.00  0.00    +0.009 A 
ATOM      9  C   UNL     1       0.380   2.962   2.795  0.00  0.00    +0.050 A 
ATOM     10  C   UNL     1      -0.331   2.792   1.619  0.00  0.00    +0.162 A 
ATOM     11  C   UNL     1      -0.704   3.897   0.867  0.00  0.00    +0.162 A 
ATOM     12  C   UNL     1      -0.367   5.171   1.291  0.00  0.00    +0.055 A 
ATOM     13  C   UNL     1       0.343   5.337   2.467  0.00  0.00    -0.023 A 
ATOM     14  O   UNL     1      -1.403   3.720  -0.291  0.00  0.00    -0.488 OA
ATOM     15  C   UNL     1      -0.690   3.098  -1.362  0.00  0.00    +0.232 C 
ATOM     16  C   UNL     1      -0.736   1.583  -1.234  0.00  0.00    +0.082 C 
ATOM     17  C   UNL     1      -0.013   1.086   0.008  0.00  0.00    +0.232 C 
ATOM     18  O   UNL     1      -0.670   1.541   1.193  0.00  0.00    -0.488 OA
ENDBRANCH   1  13
BRANCH   6  19
ATOM     19  C   UNL     1       4.436   6.416   3.545  0.00  0.00    +0.068 C 
ATOM     20  C   UNL     1       5.578   6.090   2.888  0.00  0.00    +0.020 C 
BRANCH  20  21
ATOM     21  C   UNL     1       6.818   6.119   3.569  0.00  0.00    +0.013 A 
ATOM     22  C   UNL     1       8.088   5.820   3.090  0.00  0.00    +0.016 A 
ATOM     23  C   UNL     1       9.131   5.936   3.973  0.00  0.00    +0.023 A 
ATOM     24  C   UNL     1       8.877   6.321   5.253  0.00  0.00    +0.055 A 
ATOM     25  S   UNL     1       7.158   6.543   5.268  0.00  0.00    -0.082 S 
ATOM     26 BR   UNL     1      10.104   6.556   6.674  0.00  0.00    -0.043 Br
ENDBRANCH  20  21
ENDBRANCH   6  19
TORSDOF 3
