REMARK  Name = ZINC13057288
REMARK  5 active torsions:
REMARK  status: ('A' for Active; 'I' for Inactive)
REMARK    1  A    between atoms: C_1  and  C_2
REMARK    2  A    between atoms: C_12  and  C_16
REMARK    3  A    between atoms: N_17  and  C_18
REMARK    4  A    between atoms: C_18  and  C_20
REMARK    5  A    between atoms: C_18  and  C_21
REMARK                            x       y       z     vdW  Elec       q    Type
REMARK                         _______ _______ _______ _____ _____    ______ ____
ROOT
ATOM      1  C   UNL     1       0.996   3.542  -0.019  0.00  0.00    +0.088 C 
ATOM      2  C   UNL     1       1.093   2.038  -0.012  0.00  0.00    +0.129 A 
ATOM      3  N   UNL     1      -0.016   1.319  -0.005  0.00  0.00    -0.217 NA
ATOM      4  C   UNL     1       0.002  -0.004   0.002  0.00  0.00    +0.131 A 
ATOM      5  C   UNL     1       1.254  -0.679   0.002  0.00  0.00    +0.051 A 
ATOM      6  C   UNL     1       1.519  -2.119   0.010  0.00  0.00    -0.025 A 
ATOM      7  C   UNL     1       2.812  -2.503   0.007  0.00  0.00    -0.004 A 
ATOM      8  S   UNL     1       3.743  -0.994  -0.004  0.00  0.00    -0.073 S 
ATOM      9  C   UNL     1       2.391   0.154  -0.006  0.00  0.00    +0.114 A 
ATOM     10  N   UNL     1       2.282   1.468  -0.013  0.00  0.00    -0.225 NA
ATOM     11  C   UNL     1       3.342  -3.905   0.014  0.00  0.00    +0.046 C 
ATOM     12  C   UNL     1       2.195  -4.859  -0.349  0.00  0.00    -0.009 C 
ATOM     13  C   UNL     1       0.968  -4.493   0.491  0.00  0.00    +0.008 C 
ATOM     14  C   UNL     1       0.398  -3.154   0.021  0.00  0.00    +0.037 C 
ATOM     15  C   UNL     1       2.612  -6.300  -0.049  0.00  0.00    +0.008 C 
ATOM     16  N   UNL     1      -1.181  -0.721   0.009  0.00  0.00    -0.322 N 
ATOM     17  H   UNL     1      -1.162  -1.688  -0.070  0.00  0.00    +0.148 HD
ENDROOT
BRANCH  16  18
ATOM     18  C   UNL     1      -2.461  -0.021   0.135  0.00  0.00    +0.100 C 
ATOM     19  C   UNL     1      -2.768   0.218   1.615  0.00  0.00    +0.033 C 
BRANCH  18  20
ATOM     20  C   UNL     1      -3.555  -0.859  -0.476  0.00  0.00    -0.009 A 
ATOM     21  C   UNL     1      -3.405  -2.230  -0.570  0.00  0.00    +0.007 A 
ATOM     22  C   UNL     1      -4.409  -2.999  -1.126  0.00  0.00    +0.000 A 
ATOM     23  C   UNL     1      -5.560  -2.397  -1.598  0.00  0.00    +0.001 A 
ATOM     24  C   UNL     1      -5.709  -1.026  -1.510  0.00  0.00    +0.020 A 
ATOM     25  C   UNL     1      -4.706  -0.256  -0.949  0.00  0.00    +0.046 A 
ATOM     26 CL   UNL     1      -4.892   1.467  -0.838  0.00  0.00    -0.083 Cl
ENDBRANCH  18  20
ENDBRANCH  16  18
TORSDOF 2
