REMARK  Name = ZINC39866255
REMARK  5 active torsions:
REMARK  status: ('A' for Active; 'I' for Inactive)
REMARK    1  A    between atoms: C_1  and  C_2
REMARK    2  A    between atoms: C_2  and  N_3
REMARK    3  A    between atoms: C_7  and  C_8
REMARK    4  A    between atoms: N_17  and  C_18
REMARK    5  A    between atoms: C_21  and  C_23
REMARK                            x       y       z     vdW  Elec       q    Type
REMARK                         _______ _______ _______ _____ _____    ______ ____
ROOT
ATOM      1  N   UNL     1      -1.113  -1.522   0.117  0.00  0.00    -0.246 N 
ATOM      2  C   UNL     1      -1.806  -1.418   1.239  0.00  0.00    +0.259 C 
ATOM      3  O   UNL     1      -1.265  -1.172   2.301  0.00  0.00    -0.269 OA
ATOM      4  C   UNL     1      -3.266  -1.614   1.143  0.00  0.00    +0.078 C 
ATOM      5  C   UNL     1      -4.208  -1.564   2.119  0.00  0.00    +0.028 C 
ATOM      6  S   UNL     1      -3.460  -1.933  -0.605  0.00  0.00    -0.049 S 
ATOM      7  C   UNL     1      -1.744  -1.796  -1.075  0.00  0.00    +0.171 C 
ATOM      8  N   UNL     1      -1.210  -1.927  -2.272  0.00  0.00    -0.198 NA
ENDROOT
BRANCH   5   9
ATOM      9  C   UNL     1      -5.593  -1.955   1.824  0.00  0.00    -0.024 A 
ATOM     10  C   UNL     1      -5.885  -2.698   0.674  0.00  0.00    +0.009 A 
ATOM     11  C   UNL     1      -7.186  -3.062   0.404  0.00  0.00    +0.016 A 
ATOM     12  C   UNL     1      -8.205  -2.694   1.268  0.00  0.00    +0.018 A 
ATOM     13  C   UNL     1      -7.925  -1.958   2.408  0.00  0.00    +0.016 A 
ATOM     14  C   UNL     1      -6.627  -1.592   2.694  0.00  0.00    +0.009 A 
ATOM     15 BR   UNL     1      -9.988  -3.198   0.889  0.00  0.00    -0.050 Br
ENDBRANCH   5   9
BRANCH   8  16
ATOM     16  C   UNL     1      -2.001  -2.200  -3.342  0.00  0.00    +0.217 A 
ATOM     17  N   UNL     1      -3.322  -2.368  -3.412  0.00  0.00    -0.121 NA
ATOM     18  N   UNL     1      -3.899  -2.620  -4.505  0.00  0.00    -0.145 NA
ATOM     19  C   UNL     1      -3.238  -2.733  -5.640  0.00  0.00    +0.101 A 
ATOM     20  S   UNL     1      -1.570  -2.431  -5.065  0.00  0.00    -0.031 S 
ATOM     21  C   UNL     1      -3.744  -3.026  -7.029  0.00  0.00    +0.075 C 
ENDBRANCH   8  16
BRANCH   1  23
ATOM     22  C   UNL     1       0.672   0.138  -0.079  0.00  0.00    +0.025 C 
ATOM     23  C   UNL     1       0.340  -1.339   0.144  0.00  0.00    +0.112 C 
ENDBRANCH   1  23
TORSDOF 3
