REMARK  Name = ZINC35442687
REMARK  13 active torsions:
REMARK  status: ('A' for Active; 'I' for Inactive)
REMARK    1  A    between atoms: C_1  and  C_2
REMARK    2  A    between atoms: C_4  and  C_29
REMARK    3  A    between atoms: C_6  and  C_26
REMARK    4  A    between atoms: C_9  and  C_11
REMARK    5  A    between atoms: C_11  and  C_12
REMARK    6  A    between atoms: C_15  and  C_17
REMARK    7  A    between atoms: C_20  and  N_23
REMARK    8  A    between atoms: N_23  and  C_24
REMARK    9  A    between atoms: N_23  and  C_25
REMARK   10  A    between atoms: C_26  and  C_27
REMARK   11  A    between atoms: C_26  and  C_28
REMARK   12  A    between atoms: C_29  and  N_30
REMARK   13  A    between atoms: C_33  and  C_36
REMARK                            x       y       z     vdW  Elec       q    Type
REMARK                         _______ _______ _______ _____ _____    ______ ____
ROOT
ATOM      1  C   UNL     1      -0.962   1.934   0.035  0.00  0.00    +0.039 C 
ATOM      2  C   UNL     1      -0.571   0.493   0.241  0.00  0.00    -0.073 C 
ATOM      3  C   UNL     1      -0.659  -0.310  -0.770  0.00  0.00    -0.026 C 
ATOM      4  C   UNL     1      -0.316  -1.770  -0.716  0.00  0.00    -0.002 C 
ATOM      5  C   UNL     1       0.529  -2.067   0.524  0.00  0.00    -0.003 C 
ATOM      6  C   UNL     1      -0.161  -1.443   1.744  0.00  0.00    +0.012 C 
ATOM      7  C   UNL     1      -0.097   0.081   1.604  0.00  0.00    +0.024 C 
ENDROOT
BRANCH   5   8
ATOM      8  C   UNL     1       0.649  -3.581   0.715  0.00  0.00    -0.014 C 
ATOM      9  C   UNL     1       1.339  -3.874   2.048  0.00  0.00    +0.007 C 
ATOM     10  C   UNL     1      -0.747  -4.207   0.714  0.00  0.00    +0.007 C 
ENDBRANCH   5   8
BRANCH   7  11
ATOM     11  C   UNL     1       1.344   0.554   1.805  0.00  0.00    +0.105 C 
BRANCH  11  12
ATOM     12  C   UNL     1       1.382   2.061   1.807  0.00  0.00    +0.218 A 
ATOM     13  N   UNL     1       1.262   2.832   2.851  0.00  0.00    -0.112 NA
ATOM     14  N   UNL     1       1.343   4.064   2.487  0.00  0.00    -0.107 NA
ATOM     15  C   UNL     1       1.520   4.121   1.188  0.00  0.00    +0.248 A 
ATOM     16  O   UNL     1       1.554   2.852   0.733  0.00  0.00    -0.420 OA
BRANCH  15  17
ATOM     17  C   UNL     1       1.662   5.346   0.375  0.00  0.00    +0.039 A 
ATOM     18  C   UNL     1       1.840   5.253  -1.007  0.00  0.00    +0.015 A 
ATOM     19  C   UNL     1       1.971   6.398  -1.762  0.00  0.00    +0.024 A 
ATOM     20  C   UNL     1       1.927   7.646  -1.149  0.00  0.00    +0.029 A 
ATOM     21  C   UNL     1       1.751   7.742   0.228  0.00  0.00    +0.024 A 
ATOM     22  C   UNL     1       1.612   6.601   0.987  0.00  0.00    +0.015 A 
BRANCH  20  23
ATOM     23  N   UNL     1       2.062   8.803  -1.915  0.00  0.00    -0.336 N 
ATOM     24  C   UNL     1       2.248   8.703  -3.365  0.00  0.00    +0.129 C 
ATOM     25  C   UNL     1       2.015  10.118  -1.271  0.00  0.00    +0.129 C 
ENDBRANCH  20  23
ENDBRANCH  15  17
ENDBRANCH  11  12
ENDBRANCH   7  11
BRANCH   4  26
ATOM     26  C   UNL     1       0.474  -2.152  -1.969  0.00  0.00    -0.071 C 
BRANCH  26  27
ATOM     27  N   UNL     1       0.220  -3.561  -2.297  0.00  0.00    +0.380 N 
ATOM     28  C   UNL     1      -1.196  -3.733  -2.645  0.00  0.00    -0.078 C 
ATOM     29  C   UNL     1      -1.484  -5.213  -2.909  0.00  0.00    -0.006 C 
ATOM     30  C   UNL     1      -0.609  -5.698  -4.069  0.00  0.00    +0.071 C 
ATOM     31  C   UNL     1       0.862  -5.445  -3.727  0.00  0.00    -0.006 C 
ATOM     32  C   UNL     1       1.063  -3.957  -3.432  0.00  0.00    -0.078 C 
ATOM     33  H   UNL     1       0.441  -4.137  -1.499  0.00  0.00    -0.082 HD
BRANCH  30  34
ATOM     34  C   UNL     1      -0.830  -7.173  -4.284  0.00  0.00    +0.213 C 
ATOM     35  O   UNL     1      -1.610  -7.778  -3.580  0.00  0.00    -0.276 OA
ATOM     36  N   UNL     1      -0.161  -7.820  -5.259  0.00  0.00    -0.329 N 
ATOM     37  H   UNL     1       0.463  -7.336  -5.822  0.00  0.00    +0.145 HD
ATOM     38  H   UNL     1      -0.304  -8.769  -5.398  0.00  0.00    +0.145 HD
ENDBRANCH  30  34
ENDBRANCH  26  27
ENDBRANCH   4  26
TORSDOF 8
