REMARK  Name = ZINC40859070
REMARK  8 active torsions:
REMARK  status: ('A' for Active; 'I' for Inactive)
REMARK    1  A    between atoms: C_1  and  C_2
REMARK    2  A    between atoms: C_2  and  C_4
REMARK    3  A    between atoms: C_8  and  C_10
REMARK    4  A    between atoms: C_10  and  C_11
REMARK    5  A    between atoms: C_10  and  C_12
REMARK    6  A    between atoms: C_10  and  N_13
REMARK    7  A    between atoms: N_16  and  N_17
REMARK    8  A    between atoms: C_18  and  C_19
REMARK                            x       y       z     vdW  Elec       q    Type
REMARK                         _______ _______ _______ _____ _____    ______ ____
ROOT
ATOM      1  N   UNL     1      -3.678  -2.050  -3.286  0.00  0.00    -0.289 N 
ATOM      2  C   UNL     1      -4.924  -2.378  -3.684  0.00  0.00    +0.320 C 
ATOM      3  O   UNL     1      -5.086  -3.029  -4.698  0.00  0.00    -0.251 OA
ATOM      4  N   UNL     1      -5.989  -1.985  -2.958  0.00  0.00    -0.191 N 
ATOM      5  H   UNL     1      -3.549  -1.531  -2.478  0.00  0.00    +0.151 HD
ATOM      6  H   UNL     1      -6.885  -2.221  -3.244  0.00  0.00    +0.179 HD
ENDROOT
BRANCH   1   7
ATOM      7  C   UNL     1      -2.521  -2.478  -4.076  0.00  0.00    +0.056 C 
ATOM      8  C   UNL     1      -2.623  -1.897  -5.487  0.00  0.00    +0.036 C 
ATOM      9  C   UNL     1      -2.493  -4.006  -4.154  0.00  0.00    +0.036 C 
BRANCH   7  14
ATOM     10  C   UNL     1      -0.037  -1.369  -1.446  0.00  0.00    -0.022 A 
ATOM     11  C   UNL     1       1.080  -1.078  -2.231  0.00  0.00    +0.008 A 
ATOM     12  C   UNL     1       1.019  -1.244  -3.599  0.00  0.00    +0.001 A 
ATOM     13  C   UNL     1      -0.146  -1.696  -4.193  0.00  0.00    +0.006 A 
ATOM     14  C   UNL     1      -1.256  -1.986  -3.420  0.00  0.00    -0.024 A 
ATOM     15  C   UNL     1      -1.206  -1.830  -2.050  0.00  0.00    +0.014 A 
BRANCH  10  17
ATOM     16  C   UNL     1       0.195   0.181   0.610  0.00  0.00    +0.044 C 
ATOM     17  C   UNL     1       0.022  -1.195   0.021  0.00  0.00    -0.050 C 
ATOM     18  C   UNL     1      -0.078  -2.249   0.818  0.00  0.00    +0.012 C 
ENDBRANCH  10  17
ENDBRANCH   7  14
ENDBRANCH   1   7
BRANCH   4  19
ATOM     19  N   UNL     1      -5.801  -1.234  -1.790  0.00  0.00    -0.186 NA
ATOM     20  C   UNL     1      -6.816  -0.947  -1.033  0.00  0.00    +0.141 C 
BRANCH  20  21
ATOM     21  C   UNL     1      -8.112  -1.615  -1.254  0.00  0.00    +0.030 A 
ATOM     22  C   UNL     1      -8.159  -2.876  -1.852  0.00  0.00    +0.012 A 
ATOM     23  C   UNL     1      -9.375  -3.494  -2.055  0.00  0.00    +0.001 A 
ATOM     24  C   UNL     1     -10.548  -2.869  -1.668  0.00  0.00    +0.003 A 
ATOM     25  C   UNL     1     -10.511  -1.620  -1.075  0.00  0.00    +0.039 A 
ATOM     26  C   UNL     1      -9.300  -0.990  -0.860  0.00  0.00    +0.132 A 
ATOM     27  F   UNL     1      -9.264   0.227  -0.275  0.00  0.00    -0.205 F 
ENDBRANCH  20  21
ENDBRANCH   4  19
TORSDOF 5
