REMARK  Name = ZINC40032077
REMARK  7 active torsions:
REMARK  status: ('A' for Active; 'I' for Inactive)
REMARK    1  A    between atoms: C_1  and  C_2
REMARK    2  A    between atoms: C_7  and  C_8
REMARK    3  A    between atoms: C_14  and  C_22
REMARK    4  A    between atoms: N_16  and  C_19
REMARK    5  A    between atoms: C_19  and  C_20
REMARK    6  A    between atoms: C_25  and  S_28
REMARK    7  A    between atoms: S_28  and  C_29
REMARK                            x       y       z     vdW  Elec       q    Type
REMARK                         _______ _______ _______ _____ _____    ______ ____
ROOT
ATOM      1  C   UNL     1      -0.018   1.503   0.010  0.00  0.00    +0.044 C 
ATOM      2  C   UNL     1       0.002  -0.004   0.002  0.00  0.00    -0.047 A 
ATOM      3  C   UNL     1       0.006  -0.685  -1.195  0.00  0.00    +0.019 A 
ATOM      4  C   UNL     1       0.024  -2.080  -1.194  0.00  0.00    +0.065 A 
ATOM      5  C   UNL     1       0.033  -2.793   0.016  0.00  0.00    +0.140 A 
ATOM      6  C   UNL     1       0.033  -2.080   1.214  0.00  0.00    +0.050 A 
ATOM      7  C   UNL     1       0.023  -0.703   1.200  0.00  0.00    -0.044 A 
ATOM      8  C   UNL     1       0.029   0.053   2.503  0.00  0.00    +0.044 C 
ATOM      9  O   UNL     1       0.037  -4.145   0.057  0.00  0.00    -0.450 OA
ATOM     10  C   UNL     1       0.273  -4.846  -1.070  0.00  0.00    +0.199 A 
ATOM     11  C   UNL     1       0.280  -4.269  -2.308  0.00  0.00    +0.072 A 
ATOM     12  C   UNL     1       0.036  -2.832  -2.474  0.00  0.00    +0.199 A 
ATOM     13  O   UNL     1      -0.140  -2.306  -3.559  0.00  0.00    -0.287 OA
ATOM     14  C   UNL     1       0.566  -5.340  -3.308  0.00  0.00    +0.145 C 
ATOM     15  N   UNL     1       0.729  -6.581  -2.533  0.00  0.00    -0.280 N 
ATOM     16  C   UNL     1       0.557  -6.283  -1.228  0.00  0.00    +0.283 C 
ATOM     17  O   UNL     1       0.627  -7.083  -0.317  0.00  0.00    -0.267 OA
ENDROOT
BRANCH  14  18
ATOM     18  C   UNL     1       1.834  -5.025  -4.060  0.00  0.00    -0.022 A 
ATOM     19  C   UNL     1       3.062  -5.272  -3.474  0.00  0.00    +0.007 A 
ATOM     20  C   UNL     1       4.226  -4.984  -4.159  0.00  0.00    +0.015 A 
ATOM     21  C   UNL     1       4.162  -4.446  -5.439  0.00  0.00    +0.008 A 
ATOM     22  C   UNL     1       2.926  -4.200  -6.024  0.00  0.00    +0.015 A 
ATOM     23  C   UNL     1       1.767  -4.496  -5.335  0.00  0.00    +0.007 A 
BRANCH  21  24
ATOM     24  S   UNL     1       5.645  -4.077  -6.317  0.00  0.00    -0.129 S 
ATOM     25  C   UNL     1       5.062  -3.412  -7.901  0.00  0.00    +0.090 C 
ENDBRANCH  21  24
ENDBRANCH  14  18
BRANCH  15  26
ATOM     26  C   UNL     1       1.025  -7.907  -3.081  0.00  0.00    +0.136 C 
BRANCH  26  27
ATOM     27  C   UNL     1       2.518  -8.101  -3.145  0.00  0.00    -0.016 C 
ATOM     28  C   UNL     1       3.069  -9.138  -2.563  0.00  0.00    +0.005 C 
ENDBRANCH  26  27
ENDBRANCH  15  26
TORSDOF 4
