REMARK  Name = ZINC07551611
REMARK  8 active torsions:
REMARK  status: ('A' for Active; 'I' for Inactive)
REMARK    1  A    between atoms: C_1  and  C_2
REMARK    2  A    between atoms: C_6  and  N_8
REMARK    3  A    between atoms: C_9  and  C_30
REMARK    4  A    between atoms: C_10  and  C_25
REMARK    5  A    between atoms: C_11  and  C_16
REMARK    6  A    between atoms: C_19  and  N_22
REMARK    7  A    between atoms: N_27  and  C_28
REMARK    8  A    between atoms: N_27  and  C_29
REMARK                            x       y       z     vdW  Elec       q    Type
REMARK                         _______ _______ _______ _____ _____    ______ ____
ROOT
ATOM      1  N   UNL     1      -0.129   5.345   0.008  0.00  0.00    -0.255 N 
ATOM      2  C   UNL     1       1.072   5.997   0.048  0.00  0.00    +0.025 C 
ATOM      3  C   UNL     1       1.132   7.344   0.113  0.00  0.00    +0.056 C 
ATOM      4  C   UNL     1      -0.176   8.107   0.152  0.00  0.00    +0.139 C 
ATOM      5  N   UNL     1      -1.415   7.312   0.110  0.00  0.00    -0.315 N 
ATOM      6  C   UNL     1      -1.313   5.970   0.041  0.00  0.00    +0.142 C 
ATOM      7  S   UNL     1      -2.745   5.032  -0.009  0.00  0.00    -0.018 S 
ATOM      8  C   UNL     1       2.350   5.199   0.013  0.00  0.00    +0.062 C 
ATOM      9  H   UNL     1      -2.283   7.744   0.132  0.00  0.00    +0.149 HD
ENDROOT
BRANCH   1  15
ATOM     10  C   UNL     1      -0.366   0.987   2.273  0.00  0.00    +0.044 C 
ATOM     11  C   UNL     1      -0.234   1.810   1.018  0.00  0.00    -0.049 A 
ATOM     12  C   UNL     1      -0.105   1.184  -0.208  0.00  0.00    +0.003 A 
ATOM     13  C   UNL     1       0.010   1.935  -1.363  0.00  0.00    +0.002 A 
ATOM     14  C   UNL     1       0.003   3.315  -1.295  0.00  0.00    +0.024 A 
ATOM     15  C   UNL     1      -0.121   3.947  -0.064  0.00  0.00    +0.040 A 
ATOM     16  C   UNL     1      -0.236   3.189   1.094  0.00  0.00    +0.027 A 
ENDBRANCH   1  15
BRANCH   4  17
ATOM     17  C   UNL     1      -0.196   8.931   1.413  0.00  0.00    -0.023 A 
ATOM     18  C   UNL     1      -0.531   8.343   2.618  0.00  0.00    +0.008 A 
ATOM     19  C   UNL     1      -0.544   9.097   3.776  0.00  0.00    +0.033 A 
ATOM     20  C   UNL     1      -0.233  10.443   3.728  0.00  0.00    +0.126 A 
ATOM     21  C   UNL     1       0.098  11.033   2.522  0.00  0.00    +0.033 A 
ATOM     22  C   UNL     1       0.116  10.277   1.365  0.00  0.00    +0.008 A 
BRANCH  20  23
ATOM     23  N   UNL     1      -0.253  11.253   4.967  0.00  0.00    +0.056 N 
ATOM     24  O   UNL     1       0.022  12.439   4.924  0.00  0.00    -0.126 OA
ATOM     25  O   UNL     1      -0.544  10.733   6.029  0.00  0.00    -0.126 OA
ENDBRANCH  20  23
ENDBRANCH   4  17
BRANCH   3  26
ATOM     26  C   UNL     1       2.376   8.021   0.148  0.00  0.00    +0.246 C 
ATOM     27  O   UNL     1       2.813   8.437   1.206  0.00  0.00    -0.270 OA
ATOM     28  N   UNL     1       3.076   8.203  -0.989  0.00  0.00    -0.304 N 
ATOM     29  C   UNL     1       4.414   8.798  -0.938  0.00  0.00    +0.132 C 
ATOM     30  C   UNL     1       2.500   7.806  -2.276  0.00  0.00    +0.132 C 
ENDBRANCH   3  26
TORSDOF 4
