REMARK  Name = ZINC22786127
REMARK  8 active torsions:
REMARK  status: ('A' for Active; 'I' for Inactive)
REMARK    1  A    between atoms: C_1  and  C_2
REMARK    2  A    between atoms: C_5  and  N_8
REMARK    3  A    between atoms: C_11  and  C_16
REMARK    4  A    between atoms: C_16  and  N_17
REMARK    5  A    between atoms: N_20  and  C_23
REMARK    6  A    between atoms: C_23  and  C_24
REMARK    7  A    between atoms: C_30  and  C_36
REMARK    8  A    between atoms: C_31  and  C_35
REMARK                            x       y       z     vdW  Elec       q    Type
REMARK                         _______ _______ _______ _____ _____    ______ ____
ROOT
ATOM      1  N   UNL     1       1.974  -8.717   2.198  0.00  0.00    -0.299 NA
ATOM      2  C   UNL     1       2.561  -8.300   0.916  0.00  0.00    +0.066 C 
ATOM      3  C   UNL     1       4.053  -8.638   0.908  0.00  0.00    -0.063 C 
ATOM      4  N   UNL     1       4.229 -10.084   1.099  0.00  0.00    +0.386 N 
ATOM      5  C   UNL     1       3.660 -10.481   2.393  0.00  0.00    -0.063 C 
ATOM      6  C   UNL     1       2.165 -10.158   2.415  0.00  0.00    +0.066 C 
ATOM      7  H   UNL     1       3.757 -10.580   0.358  0.00  0.00    -0.081 HD
ENDROOT
BRANCH   1   8
ATOM      8  C   UNL     1       0.552  -8.357   2.268  0.00  0.00    +0.160 C 
BRANCH   8  12
ATOM      9  N   UNL     1       0.057  -4.169  -0.021  0.00  0.00    -0.284 N 
ATOM     10  C   UNL     1       0.176  -4.865   1.167  0.00  0.00    +0.224 A 
ATOM     11  N   UNL     1       0.299  -6.190   1.153  0.00  0.00    -0.198 NA
ATOM     12  C   UNL     1       0.413  -6.856   2.288  0.00  0.00    +0.150 A 
ATOM     13  N   UNL     1       0.406  -6.211   3.441  0.00  0.00    -0.198 NA
ATOM     14  C   UNL     1       0.284  -4.886   3.463  0.00  0.00    +0.217 A 
ATOM     15  N   UNL     1       0.174  -4.211   2.323  0.00  0.00    -0.181 NA
ATOM     16  N   UNL     1       0.276  -4.212   4.667  0.00  0.00    -0.327 N 
ATOM     17  H   UNL     1      -0.022  -4.650  -0.859  0.00  0.00    +0.155 HD
ATOM     18  H   UNL     1       0.359  -4.705   5.499  0.00  0.00    +0.145 HD
ATOM     19  H   UNL     1       0.186  -3.246   4.683  0.00  0.00    +0.145 HD
BRANCH   9  24
ATOM     20  C   UNL     1       0.030   1.503   0.005  0.00  0.00    +0.044 C 
ATOM     21  C   UNL     1       0.037  -0.004  -0.002  0.00  0.00    -0.050 A 
ATOM     22  C   UNL     1       0.791  -0.694   0.929  0.00  0.00    +0.005 A 
ATOM     23  C   UNL     1       0.800  -2.075   0.926  0.00  0.00    +0.023 A 
ATOM     24  C   UNL     1       0.050  -2.771  -0.014  0.00  0.00    +0.034 A 
ATOM     25  C   UNL     1      -0.707  -2.074  -0.948  0.00  0.00    +0.023 A 
ATOM     26  C   UNL     1      -0.716  -0.693  -0.935  0.00  0.00    +0.005 A 
ENDBRANCH   9  24
ENDBRANCH   8  12
ENDBRANCH   1   8
BRANCH   4  27
ATOM     27  C   UNL     1       5.661 -10.410   1.072  0.00  0.00    -0.003 C 
BRANCH  27  28
ATOM     28  C   UNL     1       5.836 -11.905   1.145  0.00  0.00    +0.094 A 
ATOM     29  N   UNL     1       7.088 -12.431   1.139  0.00  0.00    -0.312 N 
ATOM     30  H   UNL     1       7.853 -11.836   1.089  0.00  0.00    +0.170 HD
ATOM     31  C   UNL     1       7.290 -13.760   1.203  0.00  0.00    +0.260 A 
ATOM     32  O   UNL     1       8.421 -14.216   1.198  0.00  0.00    -0.267 OA
ATOM     33  C   UNL     1       6.154 -14.631   1.278  0.00  0.00    +0.075 A 
ATOM     34  C   UNL     1       6.109 -16.079   1.355  0.00  0.00    -0.026 A 
ATOM     35  C   UNL     1       4.917 -16.695   1.417  0.00  0.00    -0.008 A 
ATOM     36  S   UNL     1       3.753 -15.345   1.377  0.00  0.00    -0.073 S 
ATOM     37  C   UNL     1       4.900 -13.995   1.277  0.00  0.00    +0.116 A 
ATOM     38  N   UNL     1       4.782 -12.672   1.217  0.00  0.00    -0.229 NA
ATOM     39  C   UNL     1       4.632 -18.172   1.502  0.00  0.00    +0.052 C 
ATOM     40  C   UNL     1       7.383 -16.883   1.363  0.00  0.00    +0.045 C 
ENDBRANCH  27  28
ENDBRANCH   4  27
TORSDOF 5
