REMARK  Name = ZINC00743625
REMARK  10 active torsions:
REMARK  status: ('A' for Active; 'I' for Inactive)
REMARK    1  A    between atoms: C_1  and  C_2
REMARK    2  A    between atoms: C_2  and  N_3
REMARK    3  A    between atoms: C_11  and  C_13
REMARK    4  A    between atoms: C_14  and  C_16
REMARK    5  A    between atoms: C_16  and  C_18
REMARK    6  A    between atoms: C_16  and  N_21
REMARK    7  A    between atoms: C_18  and  C_19
REMARK    8  A    between atoms: C_18  and  C_20
REMARK    9  A    between atoms: N_24  and  C_25
REMARK   10  A    between atoms: C_30  and  C_31
REMARK                            x       y       z     vdW  Elec       q    Type
REMARK                         _______ _______ _______ _____ _____    ______ ____
ROOT
ATOM      1  C   UNL     1       5.132  -2.617   6.042  0.00  0.00    +0.163 C 
ENDROOT
BRANCH   1  12
ATOM      2  N   UNL     1       3.843  -0.728  -0.217  0.00  0.00    -0.299 N 
ATOM      3  C   UNL     1       3.351  -1.915   0.189  0.00  0.00    +0.303 C 
ATOM      4  O   UNL     1       2.856  -2.676  -0.619  0.00  0.00    -0.253 OA
ATOM      5  N   UNL     1       3.408  -2.257   1.492  0.00  0.00    -0.280 N 
ATOM      6  C   UNL     1       3.891  -1.300   2.497  0.00  0.00    +0.128 C 
ATOM      7  C   UNL     1       5.045  -1.945   3.274  0.00  0.00    +0.127 C 
ATOM      8  N   UNL     1       4.625  -3.282   3.714  0.00  0.00    -0.297 N 
ATOM      9  C   UNL     1       4.143  -4.240   2.709  0.00  0.00    +0.130 C 
ATOM     10  C   UNL     1       2.983  -3.593   1.933  0.00  0.00    +0.092 C 
ATOM     11  C   UNL     1       1.758  -3.468   2.841  0.00  0.00    +0.030 C 
ATOM     12  C   UNL     1       4.682  -3.625   5.016  0.00  0.00    +0.236 C 
ATOM     13  O   UNL     1       4.371  -4.745   5.363  0.00  0.00    -0.274 OA
ATOM     14  H   UNL     1       4.168  -0.088   0.436  0.00  0.00    +0.150 HD
BRANCH   2  16
ATOM     15  C   UNL     1       4.485   0.993  -1.833  0.00  0.00    +0.024 C 
ATOM     16  C   UNL     1       3.887  -0.403  -1.645  0.00  0.00    +0.102 C 
ENDBRANCH   2  16
ENDBRANCH   1  12
BRANCH   1  17
ATOM     17  N   UNL     1       5.943  -3.286   7.062  0.00  0.00    -0.288 N 
ATOM     18  C   UNL     1       6.850  -2.584   7.769  0.00  0.00    +0.304 C 
ATOM     19  O   UNL     1       6.996  -1.395   7.561  0.00  0.00    -0.252 OA
ATOM     20  N   UNL     1       7.596  -3.200   8.708  0.00  0.00    -0.269 N 
ATOM     21  H   UNL     1       5.826  -4.235   7.228  0.00  0.00    +0.151 HD
ATOM     22  H   UNL     1       7.507  -4.156   8.848  0.00  0.00    +0.156 HD
BRANCH  20  23
ATOM     23  C   UNL     1       8.500  -2.461   9.480  0.00  0.00    +0.046 A 
ATOM     24  C   UNL     1       9.089  -1.318   8.956  0.00  0.00    +0.024 A 
ATOM     25  C   UNL     1       9.980  -0.590   9.721  0.00  0.00    +0.002 A 
ATOM     26  C   UNL     1      10.285  -1.000  11.006  0.00  0.00    +0.001 A 
ATOM     27  C   UNL     1       9.700  -2.138  11.530  0.00  0.00    +0.014 A 
ATOM     28  C   UNL     1       8.804  -2.866  10.772  0.00  0.00    +0.076 A 
BRANCH  28  29
ATOM     29  C   UNL     1       8.162  -4.103  11.346  0.00  0.00    +0.419 C 
ATOM     30  F   UNL     1       8.622  -4.304  12.652  0.00  0.00    -0.166 F 
ATOM     31  F   UNL     1       6.772  -3.943  11.361  0.00  0.00    -0.166 F 
ATOM     32  F   UNL     1       8.495  -5.210  10.559  0.00  0.00    -0.166 F 
ENDBRANCH  28  29
ENDBRANCH  20  23
ENDBRANCH   1  17
BRANCH   1  33
ATOM     33  C   UNL     1       3.908  -1.979   6.701  0.00  0.00    +0.012 C 
ATOM     34  C   UNL     1       4.362  -0.883   7.668  0.00  0.00    +0.009 C 
ATOM     35  C   UNL     1       3.009  -1.368   5.625  0.00  0.00    +0.009 C 
ENDBRANCH   1  33
TORSDOF 6
