REMARK  Name = ZINC39468455
REMARK  7 active torsions:
REMARK  status: ('A' for Active; 'I' for Inactive)
REMARK    1  A    between atoms: C_1  and  S_2
REMARK    2  A    between atoms: S_2  and  C_3
REMARK    3  A    between atoms: P_12  and  S_31
REMARK    4  A    between atoms: C_20  and  S_21
REMARK    5  A    between atoms: S_21  and  O_24
REMARK    6  A    between atoms: O_24  and  C_25
REMARK    7  A    between atoms: S_31  and  C_32
REMARK                            x       y       z     vdW  Elec       q    Type
REMARK                         _______ _______ _______ _____ _____    ______ ____
ROOT
ATOM      1  C   UNL     1       0.752  -0.221  -1.046  0.00  0.00    +0.032 C 
ATOM      2  C   UNL     1       1.139   0.893  -1.685  0.00  0.00    -0.006 C 
ATOM      3  C   UNL     1       1.879   0.757  -2.988  0.00  0.00    +0.017 C 
ATOM      4  C   UNL     1       2.714   1.998  -3.291  0.00  0.00    -0.003 C 
ATOM      5  C   UNL     1       3.476   1.791  -4.607  0.00  0.00    -0.020 C 
ATOM      6  C   UNL     1       4.313   3.053  -4.851  0.00  0.00    +0.157 C 
ATOM      7  O   UNL     1       4.981   2.944  -6.122  0.00  0.00    -0.312 OA
ATOM      8  P   UNL     1       5.815   1.580  -6.424  0.00  0.00    +0.314 P 
ATOM      9  O   UNL     1       7.144   1.636  -5.774  0.00  0.00    -0.262 OA
ATOM     10  N   UNL     1       4.910   0.363  -5.771  0.00  0.00    -0.283 NA
ATOM     11  N   UNL     1       4.332   0.607  -4.541  0.00  0.00    +0.398 N 
ATOM     12  C   UNL     1       3.554  -0.603  -4.223  0.00  0.00    -0.046 C 
ATOM     13  C   UNL     1       2.831  -0.442  -2.893  0.00  0.00    +0.006 C 
ATOM     14  C   UNL     1       2.041  -1.664  -2.517  0.00  0.00    +0.007 C 
ATOM     15  C   UNL     1       1.052  -1.542  -1.635  0.00  0.00    +0.137 C 
ATOM     16  H   UNL     1       4.800  -0.484  -6.230  0.00  0.00    +0.112 HD
ATOM     17  H   UNL     1       5.045   0.745  -3.840  0.00  0.00    -0.055 HD
ENDROOT
BRANCH  15  18
ATOM     18  S   UNL     1       0.101  -2.953  -1.178  0.00  0.00    +0.152 S 
ATOM     19  O   UNL     1      -1.259  -2.540  -1.170  0.00  0.00    -0.131 OA
ATOM     20  O   UNL     1       0.565  -4.033  -1.976  0.00  0.00    -0.131 OA
BRANCH  18  21
ATOM     21  O   UNL     1       0.461  -3.291   0.262  0.00  0.00    -0.342 OA
BRANCH  21  22
ATOM     22  C   UNL     1       1.679  -3.875   0.405  0.00  0.00    +0.157 A 
ATOM     23  C   UNL     1       1.797  -5.256   0.365  0.00  0.00    +0.048 A 
ATOM     24  C   UNL     1       3.037  -5.848   0.510  0.00  0.00    +0.004 A 
ATOM     25  C   UNL     1       4.161  -5.063   0.694  0.00  0.00    +0.000 A 
ATOM     26  C   UNL     1       4.046  -3.686   0.734  0.00  0.00    +0.004 A 
ATOM     27  C   UNL     1       2.809  -3.090   0.584  0.00  0.00    +0.048 A 
ENDBRANCH  21  22
ENDBRANCH  18  21
ENDBRANCH  15  18
BRANCH   1  29
ATOM     28  C   UNL     1      -0.233   1.674   0.793  0.00  0.00    +0.090 C 
ATOM     29  S   UNL     1      -0.103  -0.110   0.491  0.00  0.00    -0.127 S 
ENDBRANCH   1  29
BRANCH   8  30
ATOM     30  S   UNL     1       6.032   1.299  -8.514  0.00  0.00    -0.059 S 
ATOM     31  C   UNL     1       6.932   2.774  -9.064  0.00  0.00    +0.096 C 
ENDBRANCH   8  30
TORSDOF 5
