REMARK  Name = ZINC59169851
REMARK  13 active torsions:
REMARK  status: ('A' for Active; 'I' for Inactive)
REMARK    1  A    between atoms: C_1  and  C_2
REMARK    2  A    between atoms: C_2  and  O_3
REMARK    3  A    between atoms: O_3  and  C_4
REMARK    4  A    between atoms: C_9  and  C_10
REMARK    5  A    between atoms: C_10  and  N_11
REMARK    6  A    between atoms: N_11  and  C_12
REMARK    7  A    between atoms: N_11  and  C_22
REMARK    8  A    between atoms: C_14  and  C_20
REMARK    9  A    between atoms: C_14  and  C_21
REMARK   10  A    between atoms: C_16  and  C_18
REMARK   11  A    between atoms: C_16  and  C_19
REMARK   12  A    between atoms: C_22  and  N_24
REMARK   13  A    between atoms: N_24  and  C_25
REMARK                            x       y       z     vdW  Elec       q    Type
REMARK                         _______ _______ _______ _____ _____    ______ ____
ROOT
ATOM      1  N   UNL     1      -4.675  -0.442  -1.432  0.00  0.00    -0.305 N 
ENDROOT
BRANCH   1   2
ATOM      2  C   UNL     1      -5.363  -1.445  -2.255  0.00  0.00    +0.073 C 
ATOM      3  C   UNL     1      -6.241  -0.733  -3.286  0.00  0.00    +0.009 C 
ATOM      4  C   UNL     1      -6.955  -1.764  -4.159  0.00  0.00    -0.072 C 
ATOM      5  N   UNL     1      -6.026  -2.701  -4.771  0.00  0.00    +0.386 N 
ATOM      6  C   UNL     1      -5.004  -3.292  -3.921  0.00  0.00    -0.072 C 
ATOM      7  C   UNL     1      -4.325  -2.280  -3.005  0.00  0.00    +0.009 C 
ATOM      8  C   UNL     1      -3.912  -3.877  -4.847  0.00  0.00    -0.010 C 
ATOM      9  C   UNL     1      -5.559  -4.455  -3.094  0.00  0.00    -0.010 C 
ATOM     10  C   UNL     1      -8.044  -2.474  -3.355  0.00  0.00    -0.010 C 
ATOM     11  C   UNL     1      -7.658  -0.991  -5.299  0.00  0.00    -0.010 C 
ATOM     12  H   UNL     1      -6.567  -3.457  -5.198  0.00  0.00    -0.084 HD
ATOM     13  H   UNL     1      -5.562  -2.230  -5.551  0.00  0.00    -0.084 HD
ENDBRANCH   1   2
BRANCH   1  14
ATOM     14  C   UNL     1      -3.895   0.489  -2.017  0.00  0.00    +0.138 C 
ATOM     15  S   UNL     1      -3.230   1.758  -1.080  0.00  0.00    -0.018 S 
BRANCH  14  16
ATOM     16  N   UNL     1      -3.639   0.421  -3.338  0.00  0.00    -0.294 N 
ATOM     17  H   UNL     1      -4.078  -0.251  -3.883  0.00  0.00    +0.154 HD
BRANCH  16  18
ATOM     18  C   UNL     1      -2.740   1.321  -3.925  0.00  0.00    +0.068 A 
ATOM     19  C   UNL     1      -1.666   1.808  -3.192  0.00  0.00    +0.029 A 
ATOM     20  C   UNL     1      -0.780   2.695  -3.773  0.00  0.00    +0.040 A 
ATOM     21  C   UNL     1      -0.962   3.100  -5.084  0.00  0.00    +0.126 A 
ATOM     22  C   UNL     1      -2.032   2.617  -5.818  0.00  0.00    +0.078 A 
ATOM     23  C   UNL     1      -2.919   1.724  -5.243  0.00  0.00    +0.147 A 
ATOM     24  F   UNL     1      -3.960   1.249  -5.960  0.00  0.00    -0.203 F 
ATOM     25  F   UNL     1      -0.094   3.968  -5.649  0.00  0.00    -0.205 F 
ENDBRANCH  16  18
ENDBRANCH  14  16
ENDBRANCH   1  14
BRANCH   1  26
ATOM     26  C   UNL     1      -4.836  -0.454   0.024  0.00  0.00    +0.145 C 
BRANCH  26  32
ATOM     27  C   UNL     1      -2.630  -1.222   0.934  0.00  0.00    +0.125 A 
ATOM     28  C   UNL     1      -1.816  -2.201   1.487  0.00  0.00    +0.046 A 
ATOM     29  C   UNL     1      -2.319  -3.467   1.717  0.00  0.00    +0.004 A 
ATOM     30  C   UNL     1      -3.633  -3.759   1.397  0.00  0.00    +0.001 A 
ATOM     31  C   UNL     1      -4.445  -2.785   0.845  0.00  0.00    +0.009 A 
ATOM     32  C   UNL     1      -3.948  -1.516   0.619  0.00  0.00    +0.011 A 
BRANCH  27  33
ATOM     33  O   UNL     1      -2.138   0.024   0.708  0.00  0.00    -0.492 OA
BRANCH  33  35
ATOM     34  C   UNL     1      -0.400   1.703   0.732  0.00  0.00    +0.048 C 
ATOM     35  C   UNL     1      -0.771   0.255   1.057  0.00  0.00    +0.225 C 
ENDBRANCH  33  35
ENDBRANCH  27  33
ENDBRANCH  26  32
ENDBRANCH   1  26
TORSDOF 8
