REMARK  Name = ZINC39698066
REMARK  3 active torsions:
REMARK  status: ('A' for Active; 'I' for Inactive)
REMARK    1  A    between atoms: C_1  and  C_2
REMARK    2  A    between atoms: C_2  and  C_19
REMARK    3  A    between atoms: N_3  and  N_4
REMARK                            x       y       z     vdW  Elec       q    Type
REMARK                         _______ _______ _______ _____ _____    ______ ____
ROOT
ATOM      1  N   UNL     1       0.024   0.033   2.343  0.00  0.00    -0.205 N 
ATOM      2  C   UNL     1       0.044  -0.663   3.533  0.00  0.00    +0.227 C 
ATOM      3  N   UNL     1       0.067  -1.974   3.482  0.00  0.00    -0.220 NA
ATOM      4  C   UNL     1       0.009  -2.704   4.747  0.00  0.00    +0.253 C 
ATOM      5  C   UNL     1       0.634  -1.794   5.795  0.00  0.00    +0.115 C 
ATOM      6  C   UNL     1       1.533  -2.569   6.463  0.00  0.00    +0.025 A 
ATOM      7  C   UNL     1       2.338  -2.325   7.603  0.00  0.00    +0.012 A 
ATOM      8  C   UNL     1       3.159  -3.327   8.016  0.00  0.00    +0.001 A 
ATOM      9  C   UNL     1       3.256  -4.573   7.388  0.00  0.00    +0.002 A 
ATOM     10  C   UNL     1       2.527  -4.919   6.293  0.00  0.00    +0.026 A 
ATOM     11  C   UNL     1       1.602  -3.896   5.778  0.00  0.00    +0.046 A 
ATOM     12  N   UNL     1       0.776  -3.941   4.777  0.00  0.00    -0.358 N 
ATOM     13  N   UNL     1       0.363  -0.485   5.827  0.00  0.00    -0.171 NA
ATOM     14  N   UNL     1       0.046   0.046   4.687  0.00  0.00    -0.247 N 
ATOM     15  H   UNL     1       0.011   1.003   2.348  0.00  0.00    +0.177 HD
ATOM     16  H   UNL     1      -0.203   0.984   4.662  0.00  0.00    +0.192 HD
ATOM     17  H   UNL     1       0.685  -4.677   4.152  0.00  0.00    +0.162 HD
ENDROOT
BRANCH   1  20
ATOM     18  C   UNL     1      -0.018   1.503   0.010  0.00  0.00    +0.068 C 
ATOM     19  C   UNL     1       0.002  -0.004   0.002  0.00  0.00    +0.070 C 
ATOM     20  N   UNL     1       0.022  -0.661   1.125  0.00  0.00    -0.184 NA
BRANCH  19  21
ATOM     21  C   UNL     1      -0.000  -0.730  -1.271  0.00  0.00    +0.036 A 
ATOM     22  C   UNL     1       0.011  -2.096  -1.497  0.00  0.00    +0.018 A 
ATOM     23  C   UNL     1       0.005  -2.543  -2.798  0.00  0.00    +0.023 A 
ATOM     24  C   UNL     1      -0.010  -1.638  -3.812  0.00  0.00    +0.055 A 
ATOM     25  S   UNL     1      -0.025  -0.084  -2.935  0.00  0.00    -0.080 S 
ATOM     26 BR   UNL     1      -0.020  -1.948  -5.678  0.00  0.00    -0.043 Br
ENDBRANCH  19  21
ENDBRANCH   1  20
TORSDOF 2
