REMARK  Name = ZINC36156166
REMARK  14 active torsions:
REMARK  status: ('A' for Active; 'I' for Inactive)
REMARK    1  A    between atoms: C_1  and  O_2
REMARK    2  A    between atoms: O_2  and  C_3
REMARK    3  A    between atoms: C_3  and  C_4
REMARK    4  A    between atoms: C_4  and  N_5
REMARK    5  A    between atoms: N_5  and  C_6
REMARK    6  A    between atoms: N_5  and  C_15
REMARK    7  A    between atoms: C_6  and  C_7
REMARK    8  A    between atoms: C_11  and  O_13
REMARK    9  A    between atoms: O_13  and  C_14
REMARK   10  A    between atoms: C_15  and  C_16
REMARK   11  A    between atoms: C_19  and  C_21
REMARK   12  A    between atoms: C_21  and  C_22
REMARK   13  A    between atoms: C_21  and  C_27
REMARK   14  A    between atoms: C_21  and  O_32
REMARK                            x       y       z     vdW  Elec       q    Type
REMARK                         _______ _______ _______ _____ _____    ______ ____
ROOT
ATOM      1  C   UNL     1       0.745  -0.726   5.229  0.00  0.00    +0.089 A 
ATOM      2  C   UNL     1       0.332  -0.300   6.436  0.00  0.00    +0.043 A 
ATOM      3  C   UNL     1       0.136  -1.451   7.232  0.00  0.00    +0.048 A 
ATOM      4  C   UNL     1       0.441  -2.513   6.465  0.00  0.00    +0.147 A 
ATOM      5  O   UNL     1       0.804  -2.068   5.250  0.00  0.00    -0.463 OA
ENDROOT
BRANCH   1   6
ATOM      6  C   UNL     1       1.079   0.152   4.051  0.00  0.00    -0.003 C 
BRANCH   6   7
ATOM      7  N   UNL     1       2.469   0.616   4.165  0.00  0.00    +0.389 N 
ATOM      8  H   UNL     1       2.600   1.069   5.057  0.00  0.00    -0.081 HD
BRANCH   7   9
ATOM      9  C   UNL     1       2.756   1.570   3.085  0.00  0.00    -0.049 C 
BRANCH   9  10
ATOM     10  C   UNL     1       1.934   2.843   3.297  0.00  0.00    +0.141 C 
BRANCH  10  12
ATOM     11  C   UNL     1       1.581   4.638   4.846  0.00  0.00    +0.193 C 
ATOM     12  O   UNL     1       2.354   3.486   4.502  0.00  0.00    -0.385 OA
ENDBRANCH  10  12
ENDBRANCH   9  10
ENDBRANCH   7   9
BRANCH   7  13
ATOM     13  C   UNL     1       3.379  -0.532   4.059  0.00  0.00    -0.042 C 
BRANCH  13  14
ATOM     14  C   UNL     1       4.795  -0.074   4.298  0.00  0.00    -0.060 A 
ATOM     15  C   UNL     1       5.572   0.352   3.236  0.00  0.00    +0.002 A 
ATOM     16  C   UNL     1       6.870   0.773   3.453  0.00  0.00    +0.004 A 
ATOM     17  C   UNL     1       7.396   0.768   4.730  0.00  0.00    +0.045 A 
ATOM     18  C   UNL     1       6.619   0.341   5.797  0.00  0.00    +0.120 A 
ATOM     19  C   UNL     1       5.313  -0.075   5.578  0.00  0.00    +0.047 A 
BRANCH  18  20
ATOM     20  O   UNL     1       7.133   0.336   7.055  0.00  0.00    -0.495 OA
ATOM     21  C   UNL     1       8.482   0.782   7.206  0.00  0.00    +0.277 C 
ENDBRANCH  18  20
ENDBRANCH  13  14
ENDBRANCH   7  13
ENDBRANCH   6   7
ENDBRANCH   1   6
BRANCH   4  22
ATOM     22  C   UNL     1       0.381  -3.956   6.892  0.00  0.00    +0.186 C 
BRANCH  22  23
ATOM     23  C   UNL     1      -0.687  -4.670   6.104  0.00  0.00    +0.034 A 
ATOM     24  C   UNL     1      -1.461  -5.720   6.471  0.00  0.00    +0.015 A 
ATOM     25  C   UNL     1      -2.387  -6.217   5.573  0.00  0.00    +0.008 A 
ATOM     26  C   UNL     1      -2.495  -5.638   4.352  0.00  0.00    +0.045 A 
ATOM     27  S   UNL     1      -1.266  -4.346   4.447  0.00  0.00    -0.098 S 
ENDBRANCH  22  23
BRANCH  22  28
ATOM     28  C   UNL     1       1.714  -4.611   6.639  0.00  0.00    +0.034 A 
ATOM     29  C   UNL     1       2.568  -5.181   7.525  0.00  0.00    +0.015 A 
ATOM     30  C   UNL     1       3.749  -5.728   7.061  0.00  0.00    +0.008 A 
ATOM     31  C   UNL     1       4.020  -5.678   5.734  0.00  0.00    +0.045 A 
ATOM     32  S   UNL     1       2.576  -4.846   5.093  0.00  0.00    -0.098 S 
ENDBRANCH  22  28
BRANCH  22  33
ATOM     33  O   UNL     1       0.072  -4.028   8.286  0.00  0.00    -0.371 OA
ATOM     34  H   UNL     1      -0.774  -3.625   8.522  0.00  0.00    +0.212 HD
ENDBRANCH  22  33
ENDBRANCH   4  22
TORSDOF 12
