REMARK  Name = ZINC35982234
REMARK  7 active torsions:
REMARK  status: ('A' for Active; 'I' for Inactive)
REMARK    1  A    between atoms: C_1  and  C_2
REMARK    2  A    between atoms: C_5  and  O_36
REMARK    3  A    between atoms: C_18  and  C_35
REMARK    4  A    between atoms: C_23  and  C_24
REMARK    5  A    between atoms: C_27  and  O_30
REMARK    6  A    between atoms: O_30  and  C_31
REMARK    7  A    between atoms: C_32  and  O_34
REMARK                            x       y       z     vdW  Elec       q    Type
REMARK                         _______ _______ _______ _____ _____    ______ ____
ROOT
ATOM      1  C   UNL     1       0.007   1.709  -0.096  0.00  0.00    +0.012 C 
ATOM      2  C   UNL     1      -0.000   0.186  -0.039  0.00  0.00    -0.026 C 
ATOM      3  C   UNL     1      -1.448  -0.318  -0.011  0.00  0.00    +0.010 C 
ATOM      4  C   UNL     1      -2.158   0.155   1.256  0.00  0.00    +0.032 C 
ATOM      5  C   UNL     1      -1.414  -0.326   2.501  0.00  0.00    +0.115 C 
ATOM      6  C   UNL     1       0.030   0.182   2.474  0.00  0.00    +0.035 C 
ATOM      7  C   UNL     1       0.716  -0.333   1.211  0.00  0.00    -0.002 C 
ATOM      8  C   UNL     1       2.197   0.025   1.211  0.00  0.00    +0.004 C 
ATOM      9  C   UNL     1       2.881  -0.551  -0.039  0.00  0.00    +0.004 C 
ATOM     10  C   UNL     1       2.180   0.034  -1.257  0.00  0.00    -0.003 C 
ATOM     11  C   UNL     1       0.714  -0.406  -1.253  0.00  0.00    -0.001 C 
ATOM     12  C   UNL     1       0.069  -0.046  -2.583  0.00  0.00    +0.005 C 
ATOM     13  C   UNL     1       0.651  -0.921  -3.708  0.00  0.00    +0.010 C 
ATOM     14  C   UNL     1       2.059  -1.352  -3.381  0.00  0.00    +0.001 C 
ATOM     15  C   UNL     1       2.811  -0.272  -2.578  0.00  0.00    +0.005 C 
ATOM     16  C   UNL     1       4.248  -0.793  -2.596  0.00  0.00    +0.037 C 
ATOM     17  C   UNL     1       4.383  -1.491  -3.948  0.00  0.00    -0.040 C 
ATOM     18  C   UNL     1       5.483  -2.031  -4.450  0.00  0.00    +0.009 C 
ATOM     19  C   UNL     1       3.003  -1.442  -4.608  0.00  0.00    +0.147 C 
ATOM     20  C   UNL     1       2.082  -2.723  -2.699  0.00  0.00    +0.014 C 
ENDROOT
BRANCH  18  21
ATOM     21  C   UNL     1       6.704  -2.124  -3.623  0.00  0.00    -0.025 A 
ATOM     22  C   UNL     1       6.604  -2.374  -2.253  0.00  0.00    +0.011 A 
ATOM     23  C   UNL     1       7.746  -2.460  -1.485  0.00  0.00    +0.046 A 
ATOM     24  C   UNL     1       8.994  -2.298  -2.073  0.00  0.00    +0.120 A 
ATOM     25  C   UNL     1       9.097  -2.050  -3.435  0.00  0.00    +0.046 A 
ATOM     26  C   UNL     1       7.960  -1.968  -4.211  0.00  0.00    +0.011 A 
BRANCH  24  27
ATOM     27  O   UNL     1      10.117  -2.384  -1.313  0.00  0.00    -0.495 OA
ATOM     28  C   UNL     1      11.368  -2.208  -1.981  0.00  0.00    +0.277 C 
ENDBRANCH  24  27
ENDBRANCH  18  21
BRANCH  19  29
ATOM     29  O   UNL     1       2.872  -0.284  -5.427  0.00  0.00    -0.387 OA
ATOM     30  H   UNL     1       3.440  -0.288  -6.209  0.00  0.00    +0.210 HD
ENDBRANCH  19  29
BRANCH   5  31
ATOM     31  O   UNL     1      -2.068   0.172   3.670  0.00  0.00    -0.392 OA
ATOM     32  H   UNL     1      -2.987  -0.115   3.759  0.00  0.00    +0.210 HD
ENDBRANCH   5  31
TORSDOF 4
