REMARK  Name = ZINC55104194
REMARK  5 active torsions:
REMARK  status: ('A' for Active; 'I' for Inactive)
REMARK    1  A    between atoms: C_1  and  C_2
REMARK    2  A    between atoms: C_8  and  C_17
REMARK    3  A    between atoms: N_10  and  C_11
REMARK    4  A    between atoms: C_20  and  N_22
REMARK    5  A    between atoms: N_22  and  C_23
REMARK                            x       y       z     vdW  Elec       q    Type
REMARK                         _______ _______ _______ _____ _____    ______ ____
ROOT
ATOM      1  C   UNL     1      -0.018   1.503   0.010  0.00  0.00    +0.041 C 
ATOM      2  C   UNL     1       0.002  -0.004   0.002  0.00  0.00    -0.047 C 
ATOM      3  C   UNL     1       0.005  -0.653  -1.148  0.00  0.00    +0.003 C 
ATOM      4  C   UNL     1       0.038  -2.161  -1.105  0.00  0.00    +0.152 C 
ATOM      5  C   UNL     1       1.062  -2.531  -0.037  0.00  0.00    +0.041 C 
ATOM      6  H   UNL     1       2.064  -4.264  -2.464  0.00  0.00    +0.170 HD
ATOM      7  C   UNL     1       1.893  -3.426  -0.577  0.00  0.00    +0.028 C 
ATOM      8  N   UNL     1       1.618  -3.617  -1.896  0.00  0.00    -0.267 N 
ATOM      9  N   UNL     1       0.580  -2.749  -2.332  0.00  0.00    -0.242 N 
ATOM     10  C   UNL     1       2.991  -4.132   0.175  0.00  0.00    +0.062 C 
ATOM     11  C   UNL     1       1.064  -1.868   1.206  0.00  0.00    +0.187 C 
ATOM     12  O   UNL     1       1.827  -2.149   2.109  0.00  0.00    -0.290 OA
ATOM     13  C   UNL     1       0.025  -0.762   1.311  0.00  0.00    +0.168 C 
ENDROOT
BRANCH   9  14
ATOM     14  C   UNL     1       0.164  -2.498  -3.642  0.00  0.00    +0.049 A 
ATOM     15  C   UNL     1      -0.868  -1.600  -3.885  0.00  0.00    +0.025 A 
ATOM     16  C   UNL     1      -1.276  -1.353  -5.181  0.00  0.00    +0.002 A 
ATOM     17  C   UNL     1      -0.659  -2.000  -6.236  0.00  0.00    +0.000 A 
ATOM     18  C   UNL     1       0.368  -2.894  -5.998  0.00  0.00    +0.002 A 
ATOM     19  C   UNL     1       0.785  -3.141  -4.705  0.00  0.00    +0.025 A 
ENDBRANCH   9  14
BRANCH  13  20
ATOM     20  N   UNL     1      -1.293  -1.349   1.565  0.00  0.00    -0.331 N 
ATOM     21  H   UNL     1      -1.889  -1.543   0.825  0.00  0.00    +0.147 HD
BRANCH  20  22
ATOM     22  C   UNL     1      -1.691  -1.631   2.874  0.00  0.00    +0.028 A 
ATOM     23  C   UNL     1      -0.842  -1.349   3.936  0.00  0.00    +0.023 A 
ATOM     24  C   UNL     1      -1.239  -1.629   5.229  0.00  0.00    +0.002 A 
ATOM     25  C   UNL     1      -2.481  -2.189   5.467  0.00  0.00    +0.000 A 
ATOM     26  C   UNL     1      -3.329  -2.471   4.412  0.00  0.00    +0.002 A 
ATOM     27  C   UNL     1      -2.940  -2.189   3.117  0.00  0.00    +0.023 A 
ENDBRANCH  20  22
ENDBRANCH  13  20
TORSDOF 3
