REMARK  Name = ZINC35969965
REMARK  11 active torsions:
REMARK  status: ('A' for Active; 'I' for Inactive)
REMARK    1  A    between atoms: C_1  and  C_2
REMARK    2  A    between atoms: C_5  and  C_8
REMARK    3  A    between atoms: C_10  and  C_32
REMARK    4  A    between atoms: C_11  and  C_31
REMARK    5  A    between atoms: C_15  and  C_18
REMARK    6  A    between atoms: C_19  and  N_21
REMARK    7  A    between atoms: C_25  and  C_28
REMARK    8  A    between atoms: C_32  and  O_34
REMARK    9  A    between atoms: O_34  and  C_35
REMARK   10  A    between atoms: C_35  and  C_36
REMARK   11  A    between atoms: C_35  and  C_37
REMARK                            x       y       z     vdW  Elec       q    Type
REMARK                         _______ _______ _______ _____ _____    ______ ____
ROOT
ATOM      1  C   UNL     1       0.915  -3.853  -0.248  0.00  0.00    +0.150 C 
ATOM      2  C   UNL     1      -0.583  -4.041  -0.162  0.00  0.00    +0.082 C 
ATOM      3  C   UNL     1      -1.092  -4.655   0.967  0.00  0.00    +0.053 C 
ATOM      4  N   UNL     1      -0.282  -5.059   1.932  0.00  0.00    -0.230 NA
ATOM      5  C   UNL     1       1.028  -4.926   1.919  0.00  0.00    +0.166 C 
ATOM      6  N   UNL     1       1.725  -4.347   0.897  0.00  0.00    -0.267 N 
ATOM      7  C   UNL     1       3.098  -4.281   1.033  0.00  0.00    +0.048 C 
ATOM      8  C   UNL     1       3.640  -4.791   2.161  0.00  0.00    +0.072 C 
ATOM      9  S   UNL     1       2.201  -5.369   3.035  0.00  0.00    -0.060 S 
ATOM     10  C   UNL     1      -2.578  -4.865   1.099  0.00  0.00    +0.066 C 
ENDROOT
BRANCH   1  15
ATOM     11  C   UNL     1       1.963   1.796  -0.868  0.00  0.00    +0.044 C 
ATOM     12  C   UNL     1       1.690   0.322  -0.707  0.00  0.00    -0.050 A 
ATOM     13  C   UNL     1       1.720  -0.511  -1.809  0.00  0.00    +0.004 A 
ATOM     14  C   UNL     1       1.470  -1.863  -1.661  0.00  0.00    +0.006 A 
ATOM     15  C   UNL     1       1.189  -2.380  -0.410  0.00  0.00    -0.022 A 
ATOM     16  C   UNL     1       1.159  -1.547   0.692  0.00  0.00    +0.006 A 
ATOM     17  C   UNL     1       1.414  -0.196   0.545  0.00  0.00    +0.004 A 
ENDBRANCH   1  15
BRANCH   7  18
ATOM     18  C   UNL     1       3.938  -3.678  -0.011  0.00  0.00    +0.091 C 
ATOM     19  C   UNL     1       5.255  -3.495   0.207  0.00  0.00    +0.241 C 
ATOM     20  O   UNL     1       5.827  -3.970   1.339  0.00  0.00    -0.271 OA
BRANCH  19  21
ATOM     21  N   UNL     1       6.023  -2.820  -0.726  0.00  0.00    -0.297 N 
ATOM     22  C   UNL     1       5.440  -1.744  -1.539  0.00  0.00    +0.108 C 
ATOM     23  C   UNL     1       6.306  -0.489  -1.390  0.00  0.00    +0.020 C 
ATOM     24  C   UNL     1       7.755  -0.829  -1.744  0.00  0.00    +0.016 C 
ATOM     25  C   UNL     1       8.281  -1.895  -0.781  0.00  0.00    +0.092 C 
ATOM     26  C   UNL     1       7.439  -3.162  -0.918  0.00  0.00    +0.120 C 
BRANCH  25  27
ATOM     27  C   UNL     1       9.719  -2.206  -1.109  0.00  0.00    +0.215 C 
ATOM     28  O   UNL     1      10.269  -1.630  -2.024  0.00  0.00    -0.276 OA
ATOM     29  N   UNL     1      10.392  -3.122  -0.386  0.00  0.00    -0.329 N 
ATOM     30  H   UNL     1       9.952  -3.582   0.345  0.00  0.00    +0.145 HD
ATOM     31  H   UNL     1      11.318  -3.322  -0.598  0.00  0.00    +0.145 HD
ENDBRANCH  25  27
ENDBRANCH  19  21
ENDBRANCH   7  18
BRANCH   2  32
ATOM     32  C   UNL     1      -1.427  -3.608  -1.192  0.00  0.00    +0.339 C 
ATOM     33  O   UNL     1      -2.634  -3.748  -1.091  0.00  0.00    -0.245 OA
BRANCH  32  34
ATOM     34  O   UNL     1      -0.904  -3.033  -2.298  0.00  0.00    -0.459 OA
BRANCH  34  35
ATOM     35  C   UNL     1      -1.823  -2.615  -3.308  0.00  0.00    +0.171 C 
ATOM     36  C   UNL     1      -2.250  -1.170  -3.042  0.00  0.00    +0.052 C 
ATOM     37  C   UNL     1      -1.150  -2.703  -4.679  0.00  0.00    +0.052 C 
ENDBRANCH  34  35
ENDBRANCH  32  34
ENDBRANCH   2  32
TORSDOF 7
