REMARK  Name = ZINC63697149
REMARK  6 active torsions:
REMARK  status: ('A' for Active; 'I' for Inactive)
REMARK    1  A    between atoms: C_1  and  C_2
REMARK    2  A    between atoms: C_6  and  C_8
REMARK    3  A    between atoms: C_8  and  N_9
REMARK    4  A    between atoms: C_13  and  C_16
REMARK    5  A    between atoms: N_18  and  N_19
REMARK    6  A    between atoms: N_19  and  C_20
REMARK                            x       y       z     vdW  Elec       q    Type
REMARK                         _______ _______ _______ _____ _____    ______ ____
ROOT
ATOM      1  N   UNL     1       1.438  -3.078   2.910  0.00  0.00    -0.310 N 
ATOM      2  C   UNL     1       2.086  -4.189   2.486  0.00  0.00    +0.089 A 
ATOM      3  C   UNL     1       3.375  -4.429   2.837  0.00  0.00    +0.019 A 
ATOM      4  C   UNL     1       4.059  -3.526   3.649  0.00  0.00    +0.020 A 
ATOM      5  C   UNL     1       3.399  -2.380   4.090  0.00  0.00    +0.103 A 
ATOM      6  C   UNL     1       2.054  -2.171   3.692  0.00  0.00    +0.264 A 
ATOM      7  O   UNL     1       1.455  -1.174   4.060  0.00  0.00    -0.267 OA
ENDROOT
BRANCH   5   8
ATOM      8  C   UNL     1       4.087  -1.403   4.948  0.00  0.00    +0.265 C 
ATOM      9  O   UNL     1       5.204  -1.641   5.366  0.00  0.00    -0.268 OA
ATOM     10  N   UNL     1       3.479  -0.245   5.271  0.00  0.00    -0.232 N 
ATOM     11  H   UNL     1       2.561  -0.086   5.000  0.00  0.00    +0.173 HD
BRANCH  10  12
ATOM     12  N   UNL     1       4.173   0.732   5.998  0.00  0.00    -0.264 N 
ATOM     13  H   UNL     1       5.091   0.573   6.269  0.00  0.00    +0.170 HD
BRANCH  12  14
ATOM     14  C   UNL     1       3.543   1.932   6.332  0.00  0.00    +0.046 A 
ATOM     15  C   UNL     1       2.226   2.158   5.950  0.00  0.00    +0.024 A 
ATOM     16  C   UNL     1       1.606   3.346   6.282  0.00  0.00    +0.003 A 
ATOM     17  C   UNL     1       2.293   4.312   6.994  0.00  0.00    +0.020 A 
ATOM     18  C   UNL     1       3.605   4.091   7.377  0.00  0.00    +0.043 A 
ATOM     19  C   UNL     1       4.229   2.901   7.053  0.00  0.00    +0.044 A 
ATOM     20 CL   UNL     1       4.464   5.306   8.270  0.00  0.00    -0.083 Cl
ENDBRANCH  12  14
ENDBRANCH  10  12
ENDBRANCH   5   8
BRANCH   1  21
ATOM     21  C   UNL     1       0.046  -2.857   2.508  0.00  0.00    +0.160 C 
BRANCH  21  27
ATOM     22  C   UNL     1      -0.078   1.508   0.064  0.00  0.00    +0.044 C 
ATOM     23  C   UNL     1      -0.046   0.002   0.044  0.00  0.00    -0.050 A 
ATOM     24  C   UNL     1      -0.046  -0.674  -1.163  0.00  0.00    +0.003 A 
ATOM     25  C   UNL     1      -0.017  -2.056  -1.181  0.00  0.00    +0.001 A 
ATOM     26  C   UNL     1       0.013  -2.762   0.007  0.00  0.00    +0.005 A 
ATOM     27  C   UNL     1       0.014  -2.087   1.213  0.00  0.00    -0.027 A 
ATOM     28  C   UNL     1      -0.011  -0.705   1.231  0.00  0.00    +0.008 A 
ENDBRANCH  21  27
ENDBRANCH   1  21
TORSDOF 5
