REMARK  Name = ZINC38681934
REMARK  16 active torsions:
REMARK  status: ('A' for Active; 'I' for Inactive)
REMARK    1  A    between atoms: C_1  and  C_2
REMARK    2  A    between atoms: C_2  and  C_3
REMARK    3  A    between atoms: C_3  and  C_4
REMARK    4  A    between atoms: C_4  and  C_5
REMARK    5  A    between atoms: C_5  and  C_6
REMARK    6  A    between atoms: C_6  and  O_7
REMARK    7  A    between atoms: O_7  and  C_8
REMARK    8  A    between atoms: C_11  and  C_16
REMARK    9  A    between atoms: C_13  and  O_14
REMARK   10  A    between atoms: O_14  and  C_15
REMARK   11  A    between atoms: C_21  and  O_30
REMARK   12  A    between atoms: C_25  and  N_29
REMARK   13  A    between atoms: C_26  and  C_27
REMARK   14  A    between atoms: O_30  and  C_31
REMARK   15  A    between atoms: C_31  and  C_33
REMARK   16  A    between atoms: C_37  and  C_39
REMARK                            x       y       z     vdW  Elec       q    Type
REMARK                         _______ _______ _______ _____ _____    ______ ____
ROOT
ATOM      1  C   UNL     1      -4.857 -10.172   0.031  0.00  0.00    +0.098 C 
ATOM      2  C   UNL     1      -4.202 -10.767   1.249  0.00  0.00    +0.008 A 
ATOM      3  C   UNL     1      -4.783 -10.585   2.492  0.00  0.00    +0.012 A 
ATOM      4  C   UNL     1      -4.196 -11.123   3.620  0.00  0.00    +0.047 A 
ATOM      5  C   UNL     1      -3.019 -11.850   3.510  0.00  0.00    +0.135 A 
ATOM      6  C   UNL     1      -2.434 -12.033   2.267  0.00  0.00    +0.093 A 
ATOM      7  C   UNL     1      -3.026 -11.491   1.133  0.00  0.00    +0.138 A 
ATOM      8  O   UNL     1      -2.441 -11.680  -0.075  0.00  0.00    -0.441 OA
ATOM      9  C   UNL     1      -3.159 -11.517  -1.199  0.00  0.00    +0.199 C 
ATOM     10  C   UNL     1      -4.312 -10.813  -1.214  0.00  0.00    +0.098 C 
ENDROOT
BRANCH   1  14
ATOM     11  C   UNL     1      -4.077  -5.969  -0.084  0.00  0.00    +0.162 A 
ATOM     12  C   UNL     1      -3.027  -6.872  -0.113  0.00  0.00    +0.050 A 
ATOM     13  C   UNL     1      -3.282  -8.230  -0.076  0.00  0.00    +0.008 A 
ATOM     14  C   UNL     1      -4.584  -8.690  -0.009  0.00  0.00    -0.031 A 
ATOM     15  C   UNL     1      -5.636  -7.794   0.019  0.00  0.00    +0.054 A 
ATOM     16  C   UNL     1      -5.387  -6.431  -0.012  0.00  0.00    +0.162 A 
BRANCH  16  17
ATOM     17  O   UNL     1      -6.421  -5.548   0.022  0.00  0.00    -0.491 OA
ATOM     18  C   UNL     1      -7.739  -6.095   0.097  0.00  0.00    +0.277 C 
ENDBRANCH  16  17
BRANCH  11  19
ATOM     19  O   UNL     1      -3.827  -4.632  -0.121  0.00  0.00    -0.488 OA
BRANCH  19  20
ATOM     20  C   UNL     1      -2.458  -4.230  -0.195  0.00  0.00    +0.229 C 
BRANCH  20  21
ATOM     21  C   UNL     1      -2.376  -2.703  -0.227  0.00  0.00    +0.041 C 
BRANCH  21  22
ATOM     22  C   UNL     1      -0.910  -2.272  -0.307  0.00  0.00    +0.003 C 
BRANCH  22  23
ATOM     23  C   UNL     1      -0.828  -0.744  -0.339  0.00  0.00    -0.000 C 
BRANCH  23  25
ATOM     24  C   UNL     1       0.719   1.214  -0.450  0.00  0.00    +0.004 C 
ATOM     25  C   UNL     1       0.638  -0.314  -0.418  0.00  0.00    -0.003 C 
ENDBRANCH  23  25
ENDBRANCH  22  23
ENDBRANCH  21  22
ENDBRANCH  20  21
ENDBRANCH  19  20
ENDBRANCH  11  19
ENDBRANCH   1  14
BRANCH   9  26
ATOM     26  N   UNL     1      -2.707 -12.082  -2.366  0.00  0.00    -0.328 N 
ATOM     27  H   UNL     1      -1.881 -12.590  -2.370  0.00  0.00    +0.145 HD
ATOM     28  H   UNL     1      -3.214 -11.974  -3.185  0.00  0.00    +0.145 HD
ENDBRANCH   9  26
BRANCH  10  29
ATOM     29  C   UNL     1      -5.029 -10.676  -2.446  0.00  0.00    +0.101 C 
ATOM     30  N   UNL     1      -5.598 -10.568  -3.423  0.00  0.00    -0.191 NA
ENDBRANCH  10  29
BRANCH   5  31
ATOM     31  O   UNL     1      -2.439 -12.380   4.619  0.00  0.00    -0.422 OA
BRANCH  31  32
ATOM     32  C   UNL     1      -3.068 -13.401   5.234  0.00  0.00    +0.344 C 
ATOM     33  O   UNL     1      -4.063 -13.889   4.737  0.00  0.00    -0.245 OA
BRANCH  32  34
ATOM     34  C   UNL     1      -2.546 -13.926   6.512  0.00  0.00    +0.060 A 
ATOM     35  C   UNL     1      -1.406 -13.363   7.089  0.00  0.00    +0.015 A 
ATOM     36  C   UNL     1      -0.924 -13.859   8.283  0.00  0.00    +0.001 A 
ATOM     37  C   UNL     1      -1.569 -14.911   8.909  0.00  0.00    +0.003 A 
ATOM     38  C   UNL     1      -2.699 -15.473   8.343  0.00  0.00    -0.050 A 
ATOM     39  C   UNL     1      -3.195 -14.984   7.152  0.00  0.00    +0.018 A 
ATOM     40  C   UNL     1      -3.394 -16.619   9.032  0.00  0.00    +0.044 C 
ENDBRANCH  32  34
ENDBRANCH  31  32
ENDBRANCH   5  31
TORSDOF 13
