REMARK  Name = ZINC12782486
REMARK  7 active torsions:
REMARK  status: ('A' for Active; 'I' for Inactive)
REMARK    1  A    between atoms: C_1  and  C_2
REMARK    2  A    between atoms: C_2  and  C_4
REMARK    3  A    between atoms: C_2  and  O_12
REMARK    4  A    between atoms: O_12  and  C_13
REMARK    5  A    between atoms: C_13  and  C_15
REMARK    6  A    between atoms: C_15  and  C_16
REMARK    7  A    between atoms: C_23  and  C_28
REMARK                            x       y       z     vdW  Elec       q    Type
REMARK                         _______ _______ _______ _____ _____    ______ ____
ROOT
ATOM      1  C   UNL     1       2.198   5.614  -0.858  0.00  0.00    +0.148 C 
ATOM      2  C   UNL     1       0.870   6.080  -0.319  0.00  0.00    +0.231 C 
ATOM      3  O   UNL     1       0.693   7.271  -0.171  0.00  0.00    -0.274 OA
ATOM      4  N   UNL     1      -0.116   5.250   0.003  0.00  0.00    -0.284 N 
ATOM      5  C   UNL     1      -0.060   3.859   0.013  0.00  0.00    +0.047 A 
ATOM      6  C   UNL     1      -1.247   3.133   0.026  0.00  0.00    +0.036 A 
ATOM      7  C   UNL     1      -1.219   1.752   0.017  0.00  0.00    +0.057 A 
ATOM      8  C   UNL     1      -0.013   1.076   0.008  0.00  0.00    +0.013 A 
ATOM      9  C   UNL     1       1.175   1.785   0.000  0.00  0.00    +0.017 A 
ATOM     10  C   UNL     1       1.151   3.170   0.004  0.00  0.00    +0.030 A 
ATOM     11  S   UNL     1       2.664   4.082   0.004  0.00  0.00    -0.110 S 
ATOM     12  H   UNL     1      -0.961   5.654   0.256  0.00  0.00    +0.155 HD
ENDROOT
BRANCH   7  13
ATOM     13  C   UNL     1      -2.511   0.977   0.023  0.00  0.00    +0.417 C 
ATOM     14  F   UNL     1      -2.233  -0.394   0.018  0.00  0.00    -0.166 F 
ATOM     15  F   UNL     1      -3.243   1.300   1.171  0.00  0.00    -0.166 F 
ATOM     16  F   UNL     1      -3.257   1.306  -1.113  0.00  0.00    -0.166 F 
ENDBRANCH   7  13
BRANCH   1  17
ATOM     17  C   UNL     1       2.077   5.344  -2.359  0.00  0.00    +0.144 C 
BRANCH  17  18
ATOM     18  C   UNL     1       3.428   4.972  -2.913  0.00  0.00    +0.309 C 
ATOM     19  O   UNL     1       4.389   4.928  -2.182  0.00  0.00    -0.251 OA
BRANCH  18  20
ATOM     20  O   UNL     1       3.564   4.690  -4.218  0.00  0.00    -0.452 OA
BRANCH  20  22
ATOM     21  C   UNL     1       5.633   5.607  -5.118  0.00  0.00    +0.062 C 
ATOM     22  C   UNL     1       4.895   4.340  -4.682  0.00  0.00    +0.259 C 
BRANCH  22  23
ATOM     23  C   UNL     1       4.787   3.394  -5.851  0.00  0.00    +0.256 C 
ATOM     24  O   UNL     1       3.699   3.121  -6.311  0.00  0.00    -0.272 OA
ATOM     25  N   UNL     1       5.900   2.853  -6.385  0.00  0.00    -0.298 N 
ATOM     26  C   UNL     1       7.225   3.180  -5.842  0.00  0.00    +0.108 C 
ATOM     27  C   UNL     1       7.951   1.869  -5.504  0.00  0.00    +0.019 C 
ATOM     28  C   UNL     1       7.984   0.975  -6.746  0.00  0.00    +0.003 C 
ATOM     29  C   UNL     1       6.553   0.637  -7.171  0.00  0.00    +0.019 C 
ATOM     30  C   UNL     1       5.811   1.930  -7.524  0.00  0.00    +0.108 C 
ENDBRANCH  22  23
ENDBRANCH  20  22
ENDBRANCH  18  20
ENDBRANCH  17  18
ENDBRANCH   1  17
TORSDOF 6
