REMARK  Name = ZINC19609091
REMARK  9 active torsions:
REMARK  status: ('A' for Active; 'I' for Inactive)
REMARK    1  A    between atoms: C_1  and  N_2
REMARK    2  A    between atoms: C_5  and  N_8
REMARK    3  A    between atoms: C_11  and  C_14
REMARK    4  A    between atoms: C_14  and  N_15
REMARK    5  A    between atoms: N_15  and  C_16
REMARK    6  A    between atoms: N_15  and  C_23
REMARK    7  A    between atoms: C_16  and  C_17
REMARK    8  A    between atoms: C_23  and  C_24
REMARK    9  A    between atoms: C_29  and  O_30
REMARK                            x       y       z     vdW  Elec       q    Type
REMARK                         _______ _______ _______ _____ _____    ______ ____
ROOT
ATOM      1  N   UNL     1      -3.067   0.802   1.385  0.00  0.00    +0.385 N 
ATOM      2  H   UNL     1      -3.041   1.802   1.842  0.00  0.00    -0.081 HD
ENDROOT
BRANCH   1   3
ATOM      3  C   UNL     1      -4.451   0.313   1.448  0.00  0.00    -0.075 C 
BRANCH   3   7
ATOM      4  N   UNL     1      -7.705   3.067   1.145  0.00  0.00    +0.382 N 
ATOM      5  C   UNL     1      -7.762   1.887   0.273  0.00  0.00    -0.078 C 
ATOM      6  C   UNL     1      -6.817   0.810   0.809  0.00  0.00    -0.017 C 
ATOM      7  C   UNL     1      -5.391   1.365   0.856  0.00  0.00    -0.031 C 
ATOM      8  C   UNL     1      -5.368   2.622   1.730  0.00  0.00    -0.017 C 
ATOM      9  C   UNL     1      -6.356   3.647   1.168  0.00  0.00    -0.078 C 
ATOM     10  H   UNL     1      -7.948   2.741   2.167  0.00  0.00    -0.081 HD
BRANCH   4  15
ATOM     11  C   UNL     1     -10.166   7.901  -0.465  0.00  0.00    +0.104 C 
ATOM     12  N   UNL     1      -9.315   6.778  -0.050  0.00  0.00    -0.305 NA
ATOM     13  C   UNL     1      -9.695   6.294   1.283  0.00  0.00    +0.082 C 
ATOM     14  C   UNL     1      -8.700   5.226   1.743  0.00  0.00    +0.000 C 
ATOM     15  C   UNL     1      -8.701   4.069   0.740  0.00  0.00    -0.066 C 
ATOM     16  C   UNL     1      -8.350   4.607  -0.650  0.00  0.00    +0.000 C 
ATOM     17  C   UNL     1      -9.355   5.693  -1.040  0.00  0.00    +0.082 C 
ENDBRANCH   4  15
ENDBRANCH   3   7
ENDBRANCH   1   3
BRANCH   1  18
ATOM     18  C   UNL     1      -2.616   0.928  -0.007  0.00  0.00    -0.042 C 
BRANCH  18  19
ATOM     19  C   UNL     1      -2.826  -0.380  -0.724  0.00  0.00    -0.061 A 
ATOM     20  C   UNL     1      -4.017  -0.644  -1.384  0.00  0.00    +0.021 A 
ATOM     21  C   UNL     1      -4.171  -1.854  -2.036  0.00  0.00    +0.111 A 
ATOM     22  N   UNL     1      -3.205  -2.752  -2.029  0.00  0.00    -0.263 NA
ATOM     23  C   UNL     1      -2.062  -2.536  -1.408  0.00  0.00    +0.111 A 
ATOM     24  C   UNL     1      -1.836  -1.350  -0.736  0.00  0.00    +0.021 A 
ENDBRANCH  18  19
ENDBRANCH   1  18
BRANCH   1  25
ATOM     25  C   UNL     1      -2.167  -0.069   2.153  0.00  0.00    -0.039 C 
BRANCH  25  26
ATOM     26  C   UNL     1      -0.910   0.689   2.499  0.00  0.00    -0.022 A 
ATOM     27  C   UNL     1       0.269   0.411   1.835  0.00  0.00    +0.005 A 
ATOM     28  C   UNL     1       1.421   1.109   2.149  0.00  0.00    +0.000 A 
ATOM     29  C   UNL     1       1.398   2.079   3.134  0.00  0.00    +0.004 A 
ATOM     30  C   UNL     1       0.222   2.357   3.804  0.00  0.00    +0.045 A 
ATOM     31  C   UNL     1      -0.936   1.661   3.488  0.00  0.00    +0.118 A 
BRANCH  31  32
ATOM     32  O   UNL     1      -2.094   1.932   4.146  0.00  0.00    -0.507 OA
ATOM     33  H   UNL     1      -2.113   2.704   4.930  0.00  0.00    +0.292 HD
ENDBRANCH  31  32
ENDBRANCH  25  26
ENDBRANCH   1  25
TORSDOF 8
