REMARK  Name = ZINC26572656
REMARK  6 active torsions:
REMARK  status: ('A' for Active; 'I' for Inactive)
REMARK    1  A    between atoms: C_1  and  C_2
REMARK    2  A    between atoms: C_2  and  C_3
REMARK    3  A    between atoms: C_2  and  C_4
REMARK    4  A    between atoms: C_10  and  C_12
REMARK    5  A    between atoms: C_12  and  N_13
REMARK    6  A    between atoms: C_14  and  C_16
REMARK                            x       y       z     vdW  Elec       q    Type
REMARK                         _______ _______ _______ _____ _____    ______ ____
ROOT
ATOM      1  N   UNL     1       2.767   7.730   0.017  0.00  0.00    -0.302 N 
ATOM      2  C   UNL     1       3.140   6.435   0.006  0.00  0.00    +0.253 C 
ATOM      3  O   UNL     1       4.322   6.143  -0.006  0.00  0.00    -0.270 OA
ATOM      4  H   UNL     1       1.699   7.994   0.028  0.00  0.00    +0.150 HD
ENDROOT
BRANCH   2   5
ATOM      5  C   UNL     1       2.122   5.377   0.010  0.00  0.00    +0.093 A 
ATOM      6  C   UNL     1       2.301   4.028   0.001  0.00  0.00    +0.068 A 
ATOM      7  C   UNL     1       1.184   3.173   0.007  0.00  0.00    +0.008 A 
ATOM      8  C   UNL     1       1.164   1.754   0.000  0.00  0.00    +0.010 A 
ATOM      9  C   UNL     1      -0.013   1.076   0.008  0.00  0.00    +0.001 A 
ATOM     10  C   UNL     1      -1.235   1.737   0.017  0.00  0.00    +0.001 A 
ATOM     11  C   UNL     1      -1.261   3.117   0.031  0.00  0.00    +0.016 A 
ATOM     12  C   UNL     1      -0.075   3.819   0.023  0.00  0.00    +0.021 A 
ATOM     13  S   UNL     1       0.346   5.544   0.028  0.00  0.00    -0.082 S 
ATOM     14 CL   UNL     1       3.905   3.364  -0.018  0.00  0.00    -0.082 Cl
ENDBRANCH   2   5
BRANCH   1  15
ATOM     15  C   UNL     1       3.782   8.786   0.013  0.00  0.00    +0.200 C 
BRANCH  15  22
ATOM     16  C   UNL     1       2.381  14.995   0.060  0.00  0.00    +0.106 A 
ATOM     17  N   UNL     1       1.527  13.992   0.063  0.00  0.00    -0.144 NA
ATOM     18  N   UNL     1       1.937  12.798   0.053  0.00  0.00    -0.126 NA
ATOM     19  C   UNL     1       3.225  12.502   0.039  0.00  0.00    +0.188 A 
ATOM     20  S   UNL     1       3.926  14.093   0.048  0.00  0.00    -0.035 S 
ATOM     21  N   UNL     1       3.848  11.258   0.026  0.00  0.00    -0.262 N 
ATOM     22  C   UNL     1       3.107  10.133   0.027  0.00  0.00    +0.236 C 
ATOM     23  O   UNL     1       1.896  10.204   0.038  0.00  0.00    -0.274 OA
ATOM     24  H   UNL     1       4.946  11.194   0.016  0.00  0.00    +0.157 HD
BRANCH  16  26
ATOM     25  C   UNL     1       1.321  16.870  -1.170  0.00  0.00    +0.014 C 
ATOM     26  C   UNL     1       2.129  16.481   0.070  0.00  0.00    +0.040 C 
ATOM     27  C   UNL     1       1.344  16.857   1.329  0.00  0.00    +0.014 C 
ENDBRANCH  16  26
ENDBRANCH  15  22
ENDBRANCH   1  15
TORSDOF 4
