REMARK  Name = ZINC10450660
REMARK  11 active torsions:
REMARK  status: ('A' for Active; 'I' for Inactive)
REMARK    1  A    between atoms: C_3  and  C_10
REMARK    2  A    between atoms: C_5  and  N_7
REMARK    3  A    between atoms: C_11  and  C_12
REMARK    4  A    between atoms: N_14  and  C_15
REMARK    5  A    between atoms: C_15  and  N_17
REMARK    6  A    between atoms: N_17  and  N_18
REMARK    7  A    between atoms: C_19  and  C_21
REMARK    8  A    between atoms: C_21  and  C_22
REMARK    9  A    between atoms: C_22  and  C_23
REMARK   10  A    between atoms: C_23  and  O_24
REMARK   11  A    between atoms: O_24  and  C_25
REMARK                            x       y       z     vdW  Elec       q    Type
REMARK                         _______ _______ _______ _____ _____    ______ ____
ROOT
ATOM      1  N   UNL     1       6.030   7.631  -0.017  0.00  0.00    -0.246 N 
ATOM      2  H   UNL     1       6.864   8.125  -0.023  0.00  0.00    +0.172 HD
ENDROOT
BRANCH   1   3
ATOM      3  N   UNL     1       4.809   8.318  -0.002  0.00  0.00    -0.235 N 
ATOM      4  C   UNL     1       4.795   9.666   0.005  0.00  0.00    +0.229 C 
ATOM      5  O   UNL     1       5.839  10.284  -0.002  0.00  0.00    -0.274 OA
ATOM      6  H   UNL     1       3.974   7.824   0.004  0.00  0.00    +0.173 HD
BRANCH   4   7
ATOM      7  C   UNL     1       3.482  10.406   0.022  0.00  0.00    +0.100 C 
BRANCH   7   8
ATOM      8  C   UNL     1       3.746  11.913   0.027  0.00  0.00    +0.050 C 
BRANCH   8   9
ATOM      9  C   UNL     1       2.413  12.664   0.043  0.00  0.00    +0.229 C 
BRANCH   9  10
ATOM     10  O   UNL     1       2.659  14.071   0.048  0.00  0.00    -0.490 OA
BRANCH  10  11
ATOM     11  C   UNL     1       1.572  14.888   0.063  0.00  0.00    +0.139 A 
ATOM     12  C   UNL     1       0.296  14.345   0.078  0.00  0.00    +0.048 A 
ATOM     13  C   UNL     1      -0.807  15.177   0.093  0.00  0.00    +0.023 A 
ATOM     14  C   UNL     1      -0.640  16.550   0.093  0.00  0.00    +0.043 A 
ATOM     15  C   UNL     1       0.632  17.095   0.077  0.00  0.00    +0.043 A 
ATOM     16  C   UNL     1       1.739  16.266   0.068  0.00  0.00    +0.084 A 
ATOM     17 CL   UNL     1       3.335  16.949   0.056  0.00  0.00    -0.080 Cl
ATOM     18 CL   UNL     1      -2.028  17.592   0.111  0.00  0.00    -0.083 Cl
ENDBRANCH  10  11
ENDBRANCH   9  10
ENDBRANCH   8   9
ENDBRANCH   7   8
ENDBRANCH   4   7
ENDBRANCH   1   3
BRANCH   1  19
ATOM     19  C   UNL     1       6.044   6.283  -0.024  0.00  0.00    +0.153 C 
ATOM     20  S   UNL     1       7.535   5.443  -0.043  0.00  0.00    -0.017 S 
BRANCH  19  23
ATOM     21  C   UNL     1       4.898   4.249  -0.023  0.00  0.00    +0.242 C 
ATOM     22  O   UNL     1       5.958   3.652  -0.037  0.00  0.00    -0.270 OA
ATOM     23  N   UNL     1       4.884   5.597  -0.016  0.00  0.00    -0.263 N 
ATOM     24  H   UNL     1       4.039   6.073  -0.006  0.00  0.00    +0.157 HD
BRANCH  21  26
ATOM     25  C   UNL     1       3.653   2.156  -0.022  0.00  0.00    +0.013 C 
ATOM     26  C   UNL     1       3.639   3.504  -0.015  0.00  0.00    +0.068 C 
BRANCH  25  29
ATOM     27  C   UNL     1      -0.017   1.380   0.010  0.00  0.00    +0.003 A 
ATOM     28  C   UNL     1       1.166   2.089   0.002  0.00  0.00    +0.008 A 
ATOM     29  C   UNL     1       2.386   1.406  -0.013  0.00  0.00    -0.023 A 
ATOM     30  C   UNL     1       2.397   0.008  -0.021  0.00  0.00    +0.040 A 
ATOM     31  C   UNL     1       1.206  -0.687  -0.013  0.00  0.00    +0.127 A 
ATOM     32  C   UNL     1       0.002  -0.004   0.002  0.00  0.00    +0.033 A 
BRANCH  31  33
ATOM     33  N   UNL     1       1.215  -2.167  -0.022  0.00  0.00    +0.056 N 
ATOM     34  O   UNL     1       2.265  -2.765  -0.035  0.00  0.00    -0.126 OA
ATOM     35  O   UNL     1       0.172  -2.778  -0.015  0.00  0.00    -0.126 OA
ENDBRANCH  31  33
ENDBRANCH  25  29
ENDBRANCH  21  26
ENDBRANCH  19  23
ENDBRANCH   1  19
TORSDOF 11
