REMARK  Name = ZINC36589133
REMARK  17 active torsions:
REMARK  status: ('A' for Active; 'I' for Inactive)
REMARK    1  A    between atoms: C_1  and  C_2
REMARK    2  A    between atoms: C_2  and  C_3
REMARK    3  A    between atoms: C_3  and  C_4
REMARK    4  A    between atoms: C_4  and  N_5
REMARK    5  A    between atoms: C_6  and  C_8
REMARK    6  A    between atoms: C_8  and  C_10
REMARK    7  A    between atoms: C_8  and  N_19
REMARK    8  A    between atoms: C_11  and  O_18
REMARK    9  A    between atoms: C_13  and  O_17
REMARK   10  A    between atoms: C_15  and  O_16
REMARK   11  A    between atoms: N_19  and  C_26
REMARK   12  A    between atoms: C_20  and  C_22
REMARK   13  A    between atoms: C_23  and  C_24
REMARK   14  A    between atoms: C_23  and  C_25
REMARK   15  A    between atoms: C_26  and  C_27
REMARK   16  A    between atoms: C_26  and  C_28
REMARK   17  A    between atoms: C_26  and  C_29
REMARK                            x       y       z     vdW  Elec       q    Type
REMARK                         _______ _______ _______ _____ _____    ______ ____
ROOT
ATOM      1  C   UNL     1       1.662  -4.928   3.771  0.00  0.00    +0.200 C 
ENDROOT
BRANCH   1   2
ATOM      2  C   UNL     1       2.673  -4.051   3.078  0.00  0.00    +0.065 A 
ATOM      3  C   UNL     1       3.408  -4.548   2.013  0.00  0.00    +0.129 A 
ATOM      4  C   UNL     1       4.338  -3.741   1.375  0.00  0.00    +0.091 A 
ATOM      5  C   UNL     1       4.533  -2.436   1.803  0.00  0.00    +0.124 A 
ATOM      6  C   UNL     1       3.797  -1.938   2.868  0.00  0.00    +0.091 A 
ATOM      7  C   UNL     1       2.864  -2.744   3.502  0.00  0.00    +0.129 A 
BRANCH   7   8
ATOM      8  O   UNL     1       2.139  -2.255   4.543  0.00  0.00    -0.506 OA
ATOM      9  H   UNL     1       2.553  -2.388   5.407  0.00  0.00    +0.292 HD
ENDBRANCH   7   8
BRANCH   5  10
ATOM     10  O   UNL     1       5.445  -1.645   1.179  0.00  0.00    -0.507 OA
ATOM     11  H   UNL     1       5.085  -1.139   0.437  0.00  0.00    +0.292 HD
ENDBRANCH   5  10
BRANCH   3  12
ATOM     12  O   UNL     1       3.217  -5.827   1.593  0.00  0.00    -0.506 OA
ATOM     13  H   UNL     1       2.546  -5.918   0.903  0.00  0.00    +0.292 HD
ENDBRANCH   3  12
ENDBRANCH   1   2
BRANCH   1  15
ATOM     14  N   UNL     1      -0.615  -5.787   3.324  0.00  0.00    -0.313 N 
ATOM     15  C   UNL     1       0.471  -5.131   2.869  0.00  0.00    +0.238 C 
ATOM     16  O   UNL     1       0.491  -4.705   1.734  0.00  0.00    -0.273 OA
ATOM     17  H   UNL     1      -0.630  -6.128   4.232  0.00  0.00    +0.149 HD
BRANCH  14  18
ATOM     18  C   UNL     1      -1.772  -5.984   2.448  0.00  0.00    +0.104 C 
BRANCH  18  19
ATOM     19  C   UNL     1      -2.859  -6.750   3.204  0.00  0.00    +0.018 C 
BRANCH  19  21
ATOM     20  C   UNL     1      -5.155  -7.723   3.044  0.00  0.00    +0.004 C 
ATOM     21  C   UNL     1      -4.068  -6.957   2.289  0.00  0.00    -0.002 C 
ENDBRANCH  19  21
ENDBRANCH  18  19
ENDBRANCH  14  18
ENDBRANCH   1  15
BRANCH   1  22
ATOM     22  N   UNL     1       2.270  -6.225   4.077  0.00  0.00    -0.277 N 
ATOM     23  C   UNL     1       3.285  -6.302   4.959  0.00  0.00    +0.241 C 
ATOM     24  O   UNL     1       3.855  -7.361   5.139  0.00  0.00    -0.271 OA
BRANCH  23  25
ATOM     25  C   UNL     1       3.704  -5.105   5.705  0.00  0.00    +0.066 C 
ATOM     26  C   UNL     1       4.819  -5.130   6.429  0.00  0.00    -0.071 C 
ATOM     27  C   UNL     1       5.833  -6.223   6.215  0.00  0.00    +0.039 C 
ATOM     28  C   UNL     1       5.069  -4.063   7.464  0.00  0.00    +0.039 C 
ENDBRANCH  23  25
BRANCH  22  29
ATOM     29  C   UNL     1       1.773  -7.439   3.423  0.00  0.00    +0.030 C 
ATOM     30  C   UNL     1       1.383  -7.118   1.979  0.00  0.00    +0.031 C 
ATOM     31  C   UNL     1       2.870  -8.506   3.430  0.00  0.00    +0.031 C 
ATOM     32  C   UNL     1       0.549  -7.961   4.179  0.00  0.00    +0.031 C 
ENDBRANCH  22  29
ENDBRANCH   1  22
TORSDOF 11
