REMARK  Name = ZINC10848095
REMARK  7 active torsions:
REMARK  status: ('A' for Active; 'I' for Inactive)
REMARK    1  A    between atoms: C_4  and  N_17
REMARK    2  A    between atoms: C_6  and  S_7
REMARK    3  A    between atoms: S_7  and  N_10
REMARK    4  A    between atoms: C_18  and  C_20
REMARK    5  A    between atoms: C_20  and  O_21
REMARK    6  A    between atoms: O_21  and  C_22
REMARK    7  A    between atoms: C_22  and  C_24
REMARK                            x       y       z     vdW  Elec       q    Type
REMARK                         _______ _______ _______ _____ _____    ______ ____
ROOT
ATOM      1  C   UNL     1      -3.335   4.465  -1.442  0.00  0.00    +0.030 A 
ATOM      2  C   UNL     1      -4.472   3.927  -2.016  0.00  0.00    +0.024 A 
ATOM      3  C   UNL     1      -5.395   3.261  -1.232  0.00  0.00    +0.062 A 
ATOM      4  C   UNL     1      -5.176   3.128   0.134  0.00  0.00    +0.054 A 
ATOM      5  C   UNL     1      -4.031   3.664   0.706  0.00  0.00    +0.053 A 
ATOM      6  C   UNL     1      -3.112   4.329  -0.084  0.00  0.00    +0.107 A 
ATOM      7 CL   UNL     1      -6.826   2.593  -1.953  0.00  0.00    -0.082 Cl
ENDROOT
BRANCH   4   8
ATOM      8  N   UNL     1      -6.109   2.454   0.931  0.00  0.00    -0.281 N 
ATOM      9  C   UNL     1      -6.193   2.728   2.248  0.00  0.00    +0.255 C 
ATOM     10  O   UNL     1      -5.533   3.628   2.723  0.00  0.00    -0.272 OA
ATOM     11  H   UNL     1      -6.694   1.789   0.536  0.00  0.00    +0.155 HD
BRANCH   9  12
ATOM     12  C   UNL     1      -7.107   1.917   3.130  0.00  0.00    +0.328 C 
BRANCH  12  13
ATOM     13  O   UNL     1      -7.020   2.404   4.495  0.00  0.00    -0.455 OA
BRANCH  13  14
ATOM     14  C   UNL     1      -7.778   1.784   5.412  0.00  0.00    +0.311 C 
ATOM     15  O   UNL     1      -8.491   0.864   5.086  0.00  0.00    -0.251 OA
BRANCH  14  16
ATOM     16  C   UNL     1      -7.740   2.234   6.850  0.00  0.00    +0.102 C 
ATOM     17  C   UNL     1      -8.699   1.375   7.685  0.00  0.00    +0.019 C 
ATOM     18  C   UNL     1      -8.513   1.735   9.159  0.00  0.00    +0.028 C 
ATOM     19  C   UNL     1      -8.555   3.224   9.341  0.00  0.00    -0.031 C 
ATOM     20  C   UNL     1      -8.409   4.076   8.378  0.00  0.00    -0.030 C 
ATOM     21  C   UNL     1      -8.187   3.695   6.944  0.00  0.00    +0.041 C 
ENDBRANCH  14  16
ENDBRANCH  13  14
ENDBRANCH  12  13
ENDBRANCH   9  12
ENDBRANCH   4   8
BRANCH   6  22
ATOM     22  S   UNL     1      -1.658   5.010   0.642  0.00  0.00    +0.061 S 
ATOM     23  O   UNL     1      -1.953   5.227   2.015  0.00  0.00    -0.153 OA
ATOM     24  O   UNL     1      -1.226   6.055  -0.219  0.00  0.00    -0.153 OA
BRANCH  22  25
ATOM     25  N   UNL     1      -0.489   3.838   0.588  0.00  0.00    -0.177 NA
ATOM     26  C   UNL     1      -0.328   2.868   1.723  0.00  0.00    +0.109 C 
ATOM     27  C   UNL     1      -0.772   1.559   1.252  0.00  0.00    +0.017 C 
ATOM     28  C   UNL     1      -0.020   1.040   0.030  0.00  0.00    +0.001 C 
ATOM     29  C   UNL     1      -0.775   1.560  -1.158  0.00  0.00    +0.001 C 
ATOM     30  C   UNL     1      -0.114   2.846  -1.711  0.00  0.00    +0.017 C 
ATOM     31  C   UNL     1       0.386   3.733  -0.544  0.00  0.00    +0.109 C 
ENDBRANCH  22  25
ENDBRANCH   6  22
TORSDOF 7
