REMARK  Name = ZINC27517420
REMARK  11 active torsions:
REMARK  status: ('A' for Active; 'I' for Inactive)
REMARK    1  A    between atoms: C_1  and  C_2
REMARK    2  A    between atoms: C_2  and  C_3
REMARK    3  A    between atoms: C_3  and  C_5
REMARK    4  A    between atoms: C_3  and  N_6
REMARK    5  A    between atoms: C_7  and  C_9
REMARK    6  A    between atoms: C_9  and  C_10
REMARK    7  A    between atoms: C_10  and  C_12
REMARK    8  A    between atoms: C_10  and  C_20
REMARK    9  A    between atoms: C_15  and  O_18
REMARK   10  A    between atoms: O_18  and  C_19
REMARK   11  A    between atoms: C_25  and  O_26
REMARK                            x       y       z     vdW  Elec       q    Type
REMARK                         _______ _______ _______ _____ _____    ______ ____
ROOT
ATOM      1  C   UNL     1       3.611   1.930  -0.022  0.00  0.00    +0.061 C 
ENDROOT
BRANCH   1   2
ATOM      2  C   UNL     1       3.419   2.103  -1.507  0.00  0.00    +0.003 A 
ATOM      3  C   UNL     1       3.230   0.997  -2.313  0.00  0.00    +0.023 A 
ATOM      4  C   UNL     1       3.054   1.156  -3.676  0.00  0.00    +0.018 A 
ATOM      5  C   UNL     1       3.068   2.421  -4.234  0.00  0.00    +0.019 A 
ATOM      6  C   UNL     1       3.256   3.530  -3.432  0.00  0.00    +0.047 A 
ATOM      7  C   UNL     1       3.428   3.373  -2.064  0.00  0.00    +0.121 A 
ATOM      8 BR   UNL     1       2.795  -0.360  -4.777  0.00  0.00    -0.050 Br
BRANCH   7   9
ATOM      9  O   UNL     1       3.609   4.463  -1.272  0.00  0.00    -0.506 OA
ATOM     10  H   UNL     1       3.615   5.470  -1.715  0.00  0.00    +0.292 HD
ENDBRANCH   7   9
ENDBRANCH   1   2
BRANCH   1  11
ATOM     11  C   UNL     1       4.913   1.217   0.236  0.00  0.00    -0.039 A 
ATOM     12  C   UNL     1       5.056  -0.111  -0.121  0.00  0.00    +0.008 A 
ATOM     13  C   UNL     1       6.250  -0.766   0.110  0.00  0.00    +0.046 A 
ATOM     14  C   UNL     1       7.304  -0.092   0.711  0.00  0.00    +0.120 A 
ATOM     15  C   UNL     1       7.157   1.238   1.074  0.00  0.00    +0.046 A 
ATOM     16  C   UNL     1       5.962   1.890   0.836  0.00  0.00    +0.008 A 
BRANCH  14  17
ATOM     17  O   UNL     1       8.478  -0.736   0.945  0.00  0.00    -0.495 OA
ATOM     18  C   UNL     1       8.558  -2.105   0.545  0.00  0.00    +0.277 C 
ENDBRANCH  14  17
ENDBRANCH   1  11
BRANCH   1  19
ATOM     19  C   UNL     1       2.456   1.105   0.549  0.00  0.00    +0.108 C 
BRANCH  19  21
ATOM     20  N   UNL     1       0.010   1.339   0.836  0.00  0.00    -0.313 N 
ATOM     21  C   UNL     1       1.168   1.873   0.400  0.00  0.00    +0.214 C 
ATOM     22  O   UNL     1       1.174   2.973  -0.112  0.00  0.00    -0.276 OA
ATOM     23  H   UNL     1       0.006   0.344   1.304  0.00  0.00    +0.149 HD
BRANCH  20  24
ATOM     24  C   UNL     1      -1.242   2.084   0.686  0.00  0.00    +0.070 C 
ATOM     25  C   UNL     1      -1.413   3.038   1.870  0.00  0.00    +0.028 C 
BRANCH  24  27
ATOM     26  C   UNL     1      -2.312   0.232  -0.606  0.00  0.00    +0.005 C 
ATOM     27  C   UNL     1      -2.417   1.104   0.647  0.00  0.00    +0.018 C 
ENDBRANCH  24  27
ENDBRANCH  20  24
ENDBRANCH  19  21
ENDBRANCH   1  19
TORSDOF 8
