REMARK  Name = ZINC35375698
REMARK  5 active torsions:
REMARK  status: ('A' for Active; 'I' for Inactive)
REMARK    1  A    between atoms: C_1  and  C_2
REMARK    2  A    between atoms: C_6  and  N_8
REMARK    3  A    between atoms: C_13  and  C_31
REMARK    4  A    between atoms: C_23  and  C_30
REMARK    5  A    between atoms: C_31  and  C_32
REMARK                            x       y       z     vdW  Elec       q    Type
REMARK                         _______ _______ _______ _____ _____    ______ ____
ROOT
ATOM      1  N   UNL     1       0.050  -2.798   2.395  0.00  0.00    -0.210 N 
ATOM      2  C   UNL     1       0.141  -2.196   3.587  0.00  0.00    +0.232 C 
ATOM      3  O   UNL     1       0.217  -0.999   3.762  0.00  0.00    -0.274 OA
ATOM      4  C   UNL     1       0.132  -3.240   4.680  0.00  0.00    +0.108 C 
ATOM      5  C   UNL     1       1.521  -3.281   5.351  0.00  0.00    +0.072 C 
ATOM      6  N   UNL     1       1.853  -4.728   5.452  0.00  0.00    -0.295 NA
ATOM      7  C   UNL     1       1.348  -5.303   4.192  0.00  0.00    +0.136 C 
ATOM      8  C   UNL     1       0.013  -4.577   3.896  0.00  0.00    +0.123 C 
ATOM      9  C   UNL     1      -0.030  -4.133   2.452  0.00  0.00    +0.233 C 
ATOM     10  O   UNL     1      -0.121  -4.871   1.494  0.00  0.00    -0.274 OA
ATOM     11  C   UNL     1       2.337  -5.134   3.074  0.00  0.00    +0.004 A 
ATOM     12  C   UNL     1       2.926  -4.037   2.486  0.00  0.00    +0.011 A 
ATOM     13  C   UNL     1       3.825  -4.206   1.447  0.00  0.00    -0.050 A 
ATOM     14  C   UNL     1       4.129  -5.479   1.001  0.00  0.00    +0.005 A 
ATOM     15  C   UNL     1       3.541  -6.581   1.587  0.00  0.00    +0.024 A 
ATOM     16  C   UNL     1       2.636  -6.420   2.633  0.00  0.00    +0.039 A 
ATOM     17  N   UNL     1       1.923  -7.363   3.375  0.00  0.00    -0.283 N 
ATOM     18  C   UNL     1       1.143  -6.789   4.311  0.00  0.00    +0.243 C 
ATOM     19  O   UNL     1       0.416  -7.359   5.098  0.00  0.00    -0.273 OA
ATOM     20  C   UNL     1       4.469  -3.006   0.803  0.00  0.00    +0.044 C 
ATOM     21  H   UNL     1       2.849  -4.865   5.539  0.00  0.00    +0.124 HD
ATOM     22  H   UNL     1       1.981  -8.321   3.233  0.00  0.00    +0.155 HD
ENDROOT
BRANCH   1  28
ATOM     23  C   UNL     1      -2.343  -1.413  -1.672  0.00  0.00    +0.044 C 
ATOM     24  C   UNL     1      -1.111  -1.400  -0.804  0.00  0.00    -0.049 A 
ATOM     25  C   UNL     1       0.006  -0.689  -1.200  0.00  0.00    +0.003 A 
ATOM     26  C   UNL     1       1.138  -0.675  -0.406  0.00  0.00    +0.002 A 
ATOM     27  C   UNL     1       1.156  -1.374   0.786  0.00  0.00    +0.024 A 
ATOM     28  C   UNL     1       0.035  -2.089   1.186  0.00  0.00    +0.044 A 
ATOM     29  C   UNL     1      -1.102  -2.095   0.390  0.00  0.00    +0.027 A 
ENDBRANCH   1  28
BRANCH   5  30
ATOM     30  C   UNL     1       1.459  -2.649   6.743  0.00  0.00    +0.056 C 
BRANCH  30  31
ATOM     31  C   UNL     1       2.846  -2.588   7.330  0.00  0.00    -0.021 A 
ATOM     32  C   UNL     1       3.406  -3.491   8.150  0.00  0.00    +0.087 A 
ATOM     33  N   UNL     1       4.676  -3.100   8.477  0.00  0.00    -0.360 N 
ATOM     34  H   UNL     1       5.278  -3.592   9.057  0.00  0.00    +0.165 HD
ATOM     35  C   UNL     1       4.971  -1.905   7.859  0.00  0.00    +0.047 A 
ATOM     36  C   UNL     1       3.840  -1.535   7.109  0.00  0.00    +0.003 A 
ATOM     37  C   UNL     1       3.854  -0.354   6.365  0.00  0.00    +0.010 A 
ATOM     38  C   UNL     1       4.969   0.435   6.366  0.00  0.00    +0.001 A 
ATOM     39  C   UNL     1       6.089   0.073   7.101  0.00  0.00    +0.002 A 
ATOM     40  C   UNL     1       6.093  -1.084   7.850  0.00  0.00    +0.026 A 
ENDBRANCH  30  31
ENDBRANCH   5  30
TORSDOF 3
