REMARK  Name = ZINC57433542
REMARK  7 active torsions:
REMARK  status: ('A' for Active; 'I' for Inactive)
REMARK    1  A    between atoms: C_1  and  C_2
REMARK    2  A    between atoms: C_5  and  O_30
REMARK    3  A    between atoms: C_6  and  N_8
REMARK    4  A    between atoms: C_9  and  C_11
REMARK    5  A    between atoms: C_17  and  C_19
REMARK    6  A    between atoms: C_20  and  C_21
REMARK    7  A    between atoms: C_24  and  C_27
REMARK                            x       y       z     vdW  Elec       q    Type
REMARK                         _______ _______ _______ _____ _____    ______ ____
ROOT
ATOM      1  C   UNL     1       0.279  -2.894   4.860  0.00  0.00    +0.162 C 
ATOM      2  C   UNL     1      -1.109  -3.390   5.318  0.00  0.00    +0.033 C 
ATOM      3  C   UNL     1      -1.053  -3.207   6.858  0.00  0.00    +0.021 C 
ATOM      4  C   UNL     1      -0.211  -1.913   6.987  0.00  0.00    +0.109 C 
ATOM      5  N   UNL     1       0.799  -2.010   5.913  0.00  0.00    -0.286 N 
ATOM      6  C   UNL     1       1.998  -1.393   5.900  0.00  0.00    +0.240 C 
ATOM      7  O   UNL     1       2.751  -1.548   4.957  0.00  0.00    -0.271 OA
ENDROOT
BRANCH   1   9
ATOM      8  N   UNL     1       0.050  -2.795   2.399  0.00  0.00    -0.281 N 
ATOM      9  C   UNL     1       0.149  -2.130   3.568  0.00  0.00    +0.238 C 
ATOM     10  O   UNL     1       0.134  -0.917   3.579  0.00  0.00    -0.273 OA
ATOM     11  H   UNL     1      -0.002  -3.763   2.395  0.00  0.00    +0.155 HD
BRANCH   8  17
ATOM     12  C   UNL     1      -1.307   1.189  -0.143  0.00  0.00    +0.044 C 
ATOM     13  C   UNL     1      -0.627  -0.153  -0.071  0.00  0.00    -0.048 A 
ATOM     14  C   UNL     1      -0.029  -0.685  -1.199  0.00  0.00    +0.007 A 
ATOM     15  C   UNL     1       0.596  -1.917  -1.139  0.00  0.00    +0.047 A 
ATOM     16  C   UNL     1       0.625  -2.622   0.054  0.00  0.00    +0.138 A 
ATOM     17  C   UNL     1       0.024  -2.086   1.191  0.00  0.00    +0.076 A 
ATOM     18  C   UNL     1      -0.597  -0.847   1.124  0.00  0.00    +0.030 A 
BRANCH  16  19
ATOM     19  O   UNL     1       1.239  -3.834   0.115  0.00  0.00    -0.505 OA
ATOM     20  H   UNL     1       2.177  -3.788   0.347  0.00  0.00    +0.292 HD
ENDBRANCH  16  19
ENDBRANCH   8  17
ENDBRANCH   1   9
BRANCH   6  21
ATOM     21  C   UNL     1       2.393  -0.535   7.021  0.00  0.00    +0.068 C 
ATOM     22  C   UNL     1       3.591   0.082   7.007  0.00  0.00    +0.013 C 
BRANCH  22  23
ATOM     23  C   UNL     1       3.988   0.944   8.133  0.00  0.00    -0.025 A 
ATOM     24  C   UNL     1       3.125   1.118   9.220  0.00  0.00    +0.008 A 
ATOM     25  C   UNL     1       3.497   1.924  10.272  0.00  0.00    +0.013 A 
ATOM     26  C   UNL     1       4.737   2.567  10.255  0.00  0.00    +0.037 A 
ATOM     27  C   UNL     1       5.600   2.394   9.170  0.00  0.00    +0.013 A 
ATOM     28  C   UNL     1       5.232   1.585   8.120  0.00  0.00    +0.008 A 
BRANCH  26  29
ATOM     29  C   UNL     1       5.135   3.433  11.385  0.00  0.00    +0.242 C 
ATOM     30  O   UNL     1       4.384   3.585  12.329  0.00  0.00    -0.270 OA
ATOM     31  N   UNL     1       6.331   4.055  11.369  0.00  0.00    -0.325 N 
ATOM     32  H   UNL     1       6.930   3.934  10.616  0.00  0.00    +0.145 HD
ATOM     33  H   UNL     1       6.593   4.623  12.110  0.00  0.00    +0.145 HD
ENDBRANCH  26  29
ENDBRANCH  22  23
ENDBRANCH   6  21
TORSDOF 6
