REMARK  Name = ZINC01077670
REMARK  8 active torsions:
REMARK  status: ('A' for Active; 'I' for Inactive)
REMARK    1  A    between atoms: C_1  and  C_2
REMARK    2  A    between atoms: C_5  and  C_8
REMARK    3  A    between atoms: C_13  and  C_23
REMARK    4  A    between atoms: C_26  and  O_31
REMARK    5  A    between atoms: C_27  and  O_29
REMARK    6  A    between atoms: O_29  and  C_30
REMARK    7  A    between atoms: O_31  and  C_32
REMARK    8  A    between atoms: C_32  and  C_34
REMARK                            x       y       z     vdW  Elec       q    Type
REMARK                         _______ _______ _______ _____ _____    ______ ____
ROOT
ATOM      1  C   UNL     1       2.792   4.578   4.218  0.00  0.00    +0.032 C 
ATOM      2  C   UNL     1       4.105   4.199   3.534  0.00  0.00    +0.059 C 
ATOM      3  C   UNL     1       3.837   3.751   2.108  0.00  0.00    +0.017 C 
ATOM      4  C   UNL     1       2.821   4.280   1.404  0.00  0.00    +0.036 C 
ATOM      5  C   UNL     1       2.455   3.936  -0.019  0.00  0.00    +0.136 C 
ATOM      6  N   UNL     1       3.445   3.149  -0.723  0.00  0.00    -0.331 N 
ATOM      7  C   UNL     1       3.753   1.853  -0.314  0.00  0.00    +0.049 A 
ATOM      8  C   UNL     1       3.485   0.757  -1.118  0.00  0.00    +0.025 A 
ATOM      9  C   UNL     1       3.765  -0.515  -0.650  0.00  0.00    +0.002 A 
ATOM     10  C   UNL     1       4.305  -0.694   0.611  0.00  0.00    +0.002 A 
ATOM     11  C   UNL     1       4.592   0.401   1.409  0.00  0.00    +0.025 A 
ATOM     12  C   UNL     1       4.332   1.674   0.933  0.00  0.00    +0.052 A 
ATOM     13  N   UNL     1       4.701   2.818   1.632  0.00  0.00    -0.316 N 
ATOM     14  C   UNL     1       1.978   5.252   1.994  0.00  0.00    +0.163 C 
ATOM     15  O   UNL     1       1.078   5.728   1.331  0.00  0.00    -0.292 OA
ATOM     16  C   UNL     1       2.157   5.715   3.409  0.00  0.00    +0.088 C 
ATOM     17  H   UNL     1       3.901   3.530  -1.489  0.00  0.00    +0.147 HD
ATOM     18  H   UNL     1       5.647   2.960   1.791  0.00  0.00    +0.152 HD
ENDROOT
BRANCH   1  23
ATOM     19  C   UNL     1       3.837   6.359   9.615  0.00  0.00    +0.044 C 
ATOM     20  C   UNL     1       3.565   5.895   8.207  0.00  0.00    -0.050 A 
ATOM     21  C   UNL     1       2.750   4.800   7.986  0.00  0.00    +0.003 A 
ATOM     22  C   UNL     1       2.500   4.374   6.695  0.00  0.00    +0.004 A 
ATOM     23  C   UNL     1       3.065   5.043   5.625  0.00  0.00    -0.043 A 
ATOM     24  C   UNL     1       3.884   6.134   5.846  0.00  0.00    +0.004 A 
ATOM     25  C   UNL     1       4.131   6.563   7.137  0.00  0.00    +0.003 A 
ENDBRANCH   1  23
BRANCH   5  26
ATOM     26  C   UNL     1       1.158   3.169  -0.005  0.00  0.00    -0.019 A 
ATOM     27  C   UNL     1       1.100   1.922   0.590  0.00  0.00    +0.009 A 
ATOM     28  C   UNL     1      -0.087   1.214   0.604  0.00  0.00    +0.050 A 
ATOM     29  C   UNL     1      -1.222   1.752   0.017  0.00  0.00    +0.173 A 
ATOM     30  C   UNL     1      -1.165   3.009  -0.577  0.00  0.00    +0.163 A 
ATOM     31  C   UNL     1       0.029   3.713  -0.589  0.00  0.00    +0.055 A 
BRANCH  30  32
ATOM     32  O   UNL     1      -2.276   3.542  -1.151  0.00  0.00    -0.491 OA
ATOM     33  C   UNL     1      -2.142   4.834  -1.747  0.00  0.00    +0.277 C 
ENDBRANCH  30  32
BRANCH  29  34
ATOM     34  O   UNL     1      -2.389   1.054   0.025  0.00  0.00    -0.422 OA
BRANCH  34  35
ATOM     35  C   UNL     1      -2.662   0.310  -1.059  0.00  0.00    +0.309 C 
ATOM     36  O   UNL     1      -1.845   0.208  -1.943  0.00  0.00    -0.251 OA
ATOM     37  C   UNL     1      -3.988  -0.398  -1.172  0.00  0.00    +0.136 C 
ENDBRANCH  34  35
ENDBRANCH  29  34
ENDBRANCH   5  26
TORSDOF 5
