REMARK  Name = ZINC15043353
REMARK  9 active torsions:
REMARK  status: ('A' for Active; 'I' for Inactive)
REMARK    1  A    between atoms: C_1  and  C_2
REMARK    2  A    between atoms: C_2  and  C_4
REMARK    3  A    between atoms: C_2  and  N_62
REMARK    4  A    between atoms: N_6  and  C_7
REMARK    5  A    between atoms: C_7  and  C_8
REMARK    6  A    between atoms: C_8  and  C_9
REMARK    7  A    between atoms: C_17  and  C_20
REMARK    8  A    between atoms: N_22  and  C_23
REMARK    9  A    between atoms: C_28  and  O_29
REMARK                            x       y       z     vdW  Elec       q    Type
REMARK                         _______ _______ _______ _____ _____    ______ ____
ROOT
ATOM      1  C   UNL     1      -3.894  -1.895  -0.912  0.00  0.00    -0.077 C 
ATOM      2  C   UNL     1      -2.546  -1.606  -0.247  0.00  0.00    -0.006 C 
ATOM      3  C   UNL     1      -1.659  -0.828  -1.223  0.00  0.00    +0.072 C 
ATOM      4  C   UNL     1      -2.374   0.462  -1.633  0.00  0.00    -0.006 C 
ATOM      5  C   UNL     1      -3.727   0.113  -2.257  0.00  0.00    -0.077 C 
ATOM      6  N   UNL     1      -4.542  -0.613  -1.260  0.00  0.00    +0.387 N 
ATOM      7  H   UNL     1      -4.622  -0.039  -0.413  0.00  0.00    -0.081 HD
ENDROOT
BRANCH   3   8
ATOM      8  C   UNL     1      -0.352  -0.488  -0.553  0.00  0.00    +0.220 C 
ATOM      9  O   UNL     1      -0.149  -0.834   0.592  0.00  0.00    -0.275 OA
ATOM     10  N   UNL     1       0.591   0.200  -1.226  0.00  0.00    -0.282 N 
ATOM     11  H   UNL     1       0.399   0.548  -2.111  0.00  0.00    +0.155 HD
BRANCH  10  12
ATOM     12  C   UNL     1       1.848   0.417  -0.646  0.00  0.00    +0.075 A 
ATOM     13  C   UNL     1       2.276  -0.382   0.404  0.00  0.00    +0.027 A 
ATOM     14  C   UNL     1       3.517  -0.166   0.975  0.00  0.00    +0.002 A 
ATOM     15  C   UNL     1       4.333   0.845   0.501  0.00  0.00    +0.004 A 
ATOM     16  C   UNL     1       3.913   1.645  -0.545  0.00  0.00    +0.047 A 
ATOM     17  C   UNL     1       2.673   1.432  -1.126  0.00  0.00    +0.138 A 
BRANCH  17  18
ATOM     18  O   UNL     1       2.261   2.214  -2.159  0.00  0.00    -0.505 OA
ATOM     19  H   UNL     1       1.779   3.006  -1.884  0.00  0.00    +0.292 HD
ENDBRANCH  17  18
ENDBRANCH  10  12
ENDBRANCH   3   8
BRANCH   6  21
ATOM     20  C   UNL     1      -6.457   0.445  -2.364  0.00  0.00    -0.004 C 
ATOM     21  C   UNL     1      -5.895  -0.862  -1.800  0.00  0.00    +0.016 C 
BRANCH  21  22
ATOM     22  C   UNL     1      -5.848  -1.901  -2.890  0.00  0.00    +0.199 C 
ATOM     23  O   UNL     1      -4.853  -2.018  -3.573  0.00  0.00    -0.278 OA
ATOM     24  N   UNL     1      -6.912  -2.700  -3.106  0.00  0.00    -0.316 N 
ATOM     25  H   UNL     1      -7.708  -2.606  -2.560  0.00  0.00    +0.149 HD
BRANCH  24  26
ATOM     26  C   UNL     1      -6.866  -3.710  -4.166  0.00  0.00    +0.108 C 
BRANCH  26  27
ATOM     27  C   UNL     1      -8.190  -4.475  -4.200  0.00  0.00    +0.049 C 
BRANCH  27  28
ATOM     28  C   UNL     1      -8.143  -5.514  -5.290  0.00  0.00    -0.072 C 
ATOM     29  C   UNL     1      -7.798  -6.718  -4.966  0.00  0.00    -0.028 C 
ATOM     30  C   UNL     1      -7.696  -7.855  -5.941  0.00  0.00    +0.027 C 
ATOM     31  C   UNL     1      -8.445  -7.512  -7.230  0.00  0.00    +0.004 C 
ATOM     32  C   UNL     1      -7.998  -6.120  -7.696  0.00  0.00    +0.005 C 
ATOM     33  C   UNL     1      -8.505  -5.089  -6.683  0.00  0.00    +0.030 C 
ENDBRANCH  27  28
ENDBRANCH  26  27
ENDBRANCH  24  26
ENDBRANCH  21  22
ENDBRANCH   6  21
TORSDOF 8
