REMARK  Name = ZINC21029738
REMARK  11 active torsions:
REMARK  status: ('A' for Active; 'I' for Inactive)
REMARK    1  A    between atoms: C_1  and  C_2
REMARK    2  A    between atoms: C_2  and  C_4
REMARK    3  A    between atoms: C_2  and  N_19
REMARK    4  A    between atoms: C_4  and  N_5
REMARK    5  A    between atoms: C_8  and  N_10
REMARK    6  A    between atoms: N_10  and  C_11
REMARK    7  A    between atoms: N_19  and  C_20
REMARK    8  A    between atoms: C_22  and  C_28
REMARK    9  A    between atoms: C_22  and  C_29
REMARK   10  A    between atoms: C_24  and  C_26
REMARK   11  A    between atoms: C_24  and  C_27
REMARK                            x       y       z     vdW  Elec       q    Type
REMARK                         _______ _______ _______ _____ _____    ______ ____
ROOT
ATOM      1  C   UNL     1      -1.534   0.798   0.337  0.00  0.00    +0.026 C 
ATOM      2  C   UNL     1      -1.279  -0.706   0.229  0.00  0.00    +0.072 C 
ENDROOT
BRANCH   2   3
ATOM      3  N   UNL     1      -0.718  -1.200   1.494  0.00  0.00    -0.309 NA
ATOM      4  H   UNL     1      -0.125  -2.001   1.339  0.00  0.00    +0.123 HD
BRANCH   3   5
ATOM      5  C   UNL     1      -1.786  -1.514   2.458  0.00  0.00    +0.051 C 
ATOM      6  C   UNL     1      -2.263  -2.949   2.230  0.00  0.00    +0.006 C 
ATOM      7  C   UNL     1      -3.365  -3.295   3.231  0.00  0.00    -0.072 C 
ATOM      8  N   UNL     1      -2.950  -3.056   4.606  0.00  0.00    +0.386 N 
ATOM      9  C   UNL     1      -2.291  -1.795   4.904  0.00  0.00    -0.072 C 
ATOM     10  C   UNL     1      -1.230  -1.413   3.878  0.00  0.00    +0.006 C 
ATOM     11  C   UNL     1      -1.575  -1.955   6.266  0.00  0.00    -0.010 C 
ATOM     12  C   UNL     1      -3.299  -0.653   5.061  0.00  0.00    -0.010 C 
ATOM     13  C   UNL     1      -3.658  -4.806   3.087  0.00  0.00    -0.010 C 
ATOM     14  C   UNL     1      -4.651  -2.548   2.880  0.00  0.00    -0.010 C 
ATOM     15  H   UNL     1      -3.772  -3.141   5.209  0.00  0.00    -0.084 HD
ATOM     16  H   UNL     1      -2.329  -3.818   4.890  0.00  0.00    -0.084 HD
ENDBRANCH   3   5
ENDBRANCH   2   3
BRANCH   2  17
ATOM     17  C   UNL     1      -0.290  -0.976  -0.906  0.00  0.00    +0.162 C 
BRANCH  17  18
ATOM     18  N   UNL     1       0.046  -2.402  -0.933  0.00  0.00    -0.258 NA
ATOM     19  C   UNL     1      -0.296  -3.132  -1.954  0.00  0.00    +0.193 C 
ATOM     20  N   UNL     1      -0.948  -3.008  -3.187  0.00  0.00    -0.198 NA
ATOM     21  C   UNL     1      -1.048  -4.148  -3.924  0.00  0.00    +0.188 C 
ATOM     22  S   UNL     1      -0.175  -4.812  -2.524  0.00  0.00    -0.013 S 
BRANCH  21  23
ATOM     23  N   UNL     1      -1.553  -4.565  -5.121  0.00  0.00    -0.188 NA
BRANCH  23  24
ATOM     24  C   UNL     1      -1.592  -5.929  -5.426  0.00  0.00    +0.076 A 
ATOM     25  C   UNL     1      -1.546  -6.872  -4.408  0.00  0.00    +0.046 A 
ATOM     26  C   UNL     1      -1.585  -8.219  -4.713  0.00  0.00    +0.043 A 
ATOM     27  C   UNL     1      -1.669  -8.629  -6.032  0.00  0.00    +0.021 A 
ATOM     28  C   UNL     1      -1.715  -7.693  -7.049  0.00  0.00    +0.023 A 
ATOM     29  C   UNL     1      -1.683  -6.344  -6.750  0.00  0.00    +0.064 A 
ATOM     30 CL   UNL     1      -1.748  -5.169  -8.026  0.00  0.00    -0.082 Cl
ATOM     31 CL   UNL     1      -1.528  -9.399  -3.440  0.00  0.00    -0.083 Cl
ENDBRANCH  23  24
ENDBRANCH  21  23
ENDBRANCH  17  18
ENDBRANCH   2  17
TORSDOF 6
