REMARK  Name = ZINC09076266
REMARK  7 active torsions:
REMARK  status: ('A' for Active; 'I' for Inactive)
REMARK    1  A    between atoms: C_1  and  C_2
REMARK    2  A    between atoms: C_5  and  C_8
REMARK    3  A    between atoms: C_11  and  C_34
REMARK    4  A    between atoms: N_14  and  N_15
REMARK    5  A    between atoms: C_21  and  C_32
REMARK    6  A    between atoms: C_24  and  C_26
REMARK    7  A    between atoms: C_37  and  C_40
REMARK                            x       y       z     vdW  Elec       q    Type
REMARK                         _______ _______ _______ _____ _____    ______ ____
ROOT
ATOM      1  C   UNL     1       7.965   6.384   1.016  0.00  0.00    +0.029 C 
ATOM      2  C   UNL     1       9.252   5.941   0.314  0.00  0.00    +0.044 C 
ATOM      3  C   UNL     1       9.273   4.440   0.204  0.00  0.00    -0.038 C 
ATOM      4  C   UNL     1       8.135   3.732   0.104  0.00  0.00    +0.029 C 
ATOM      5  C   UNL     1       6.869   4.362   0.103  0.00  0.00    +0.060 C 
ATOM      6  N   UNL     1       5.788   3.643  -0.002  0.00  0.00    -0.185 NA
ATOM      7  C   UNL     1       6.763   5.862   0.217  0.00  0.00    +0.065 C 
ENDROOT
BRANCH   6   8
ATOM      8  N   UNL     1       5.874   2.245  -0.005  0.00  0.00    -0.205 N 
ATOM      9  C   UNL     1       4.721   1.480  -0.012  0.00  0.00    +0.236 A 
ATOM     10  N   UNL     1       3.554   2.097  -0.016  0.00  0.00    -0.213 NA
ATOM     11  C   UNL     1       2.414   1.394  -0.022  0.00  0.00    +0.077 A 
ATOM     12  C   UNL     1       1.157   2.016  -0.026  0.00  0.00    +0.029 A 
ATOM     13  C   UNL     1       0.028   1.253  -0.033  0.00  0.00    +0.005 A 
ATOM     14  C   UNL     1       0.102  -0.138  -0.036  0.00  0.00    -0.050 A 
ATOM     15  C   UNL     1       1.307  -0.776  -0.032  0.00  0.00    +0.015 A 
ATOM     16  C   UNL     1       2.486  -0.022  -0.025  0.00  0.00    +0.027 A 
ATOM     17  C   UNL     1       3.767  -0.630  -0.021  0.00  0.00    +0.084 A 
ATOM     18  N   UNL     1       4.835   0.156  -0.015  0.00  0.00    -0.213 NA
ATOM     19  C   UNL     1      -1.168  -0.949  -0.043  0.00  0.00    +0.044 C 
ATOM     20  H   UNL     1       6.742   1.813  -0.003  0.00  0.00    +0.177 HD
BRANCH  17  21
ATOM     21  C   UNL     1       3.908  -2.103  -0.023  0.00  0.00    +0.001 A 
ATOM     22  C   UNL     1       4.835  -2.720   0.818  0.00  0.00    +0.010 A 
ATOM     23  C   UNL     1       4.959  -4.094   0.815  0.00  0.00    +0.001 A 
ATOM     24  C   UNL     1       4.173  -4.860  -0.027  0.00  0.00    +0.000 A 
ATOM     25  C   UNL     1       3.256  -4.255  -0.868  0.00  0.00    +0.001 A 
ATOM     26  C   UNL     1       3.119  -2.882  -0.870  0.00  0.00    +0.010 A 
ENDBRANCH  17  21
ENDBRANCH   6   8
BRANCH   1  31
ATOM     27  C   UNL     1       7.779  12.155   1.247  0.00  0.00    +0.044 C 
ATOM     28  C   UNL     1       7.828  10.650   1.187  0.00  0.00    -0.050 A 
ATOM     29  C   UNL     1       7.813   9.911   2.355  0.00  0.00    +0.003 A 
ATOM     30  C   UNL     1       7.858   8.530   2.299  0.00  0.00    +0.004 A 
ATOM     31  C   UNL     1       7.917   7.889   1.076  0.00  0.00    -0.044 A 
ATOM     32  C   UNL     1       7.936   8.629  -0.092  0.00  0.00    +0.004 A 
ATOM     33  C   UNL     1       7.888  10.009  -0.036  0.00  0.00    +0.003 A 
ENDBRANCH   1  31
BRANCH   3  34
ATOM     34  C   UNL     1      10.565   3.734   0.205  0.00  0.00    -0.022 A 
ATOM     35  C   UNL     1      11.383   3.768   1.339  0.00  0.00    +0.008 A 
ATOM     36  C   UNL     1      12.589   3.099   1.335  0.00  0.00    +0.004 A 
ATOM     37  C   UNL     1      12.996   2.405   0.209  0.00  0.00    -0.050 A 
ATOM     38  C   UNL     1      12.195   2.372  -0.919  0.00  0.00    +0.004 A 
ATOM     39  C   UNL     1      10.983   3.031  -0.929  0.00  0.00    +0.008 A 
ATOM     40  C   UNL     1      14.318   1.683   0.211  0.00  0.00    +0.044 C 
ENDBRANCH   3  34
TORSDOF 4
