REMARK  Name = ZINC01200620
REMARK  3 active torsions:
REMARK  status: ('A' for Active; 'I' for Inactive)
REMARK    1  A    between atoms: C_1  and  C_2
REMARK    2  A    between atoms: C_14  and  C_16
REMARK    3  A    between atoms: C_24  and  C_27
REMARK                            x       y       z     vdW  Elec       q    Type
REMARK                         _______ _______ _______ _____ _____    ______ ____
ROOT
ATOM      1  C   UNL     1      -3.749   1.198   5.077  0.00  0.00    +0.110 C 
ATOM      2  C   UNL     1      -3.521   2.136   3.920  0.00  0.00    +0.218 C 
ATOM      3  O   UNL     1      -4.468   2.584   3.307  0.00  0.00    -0.276 OA
ATOM      4  N   UNL     1      -2.267   2.476   3.564  0.00  0.00    -0.258 N 
ATOM      5  C   UNL     1      -1.186   1.953   4.276  0.00  0.00    +0.058 A 
ATOM      6  C   UNL     1      -0.976   2.270   5.608  0.00  0.00    +0.025 A 
ATOM      7  C   UNL     1       0.135   1.764   6.261  0.00  0.00    +0.002 A 
ATOM      8  C   UNL     1       1.030   0.950   5.590  0.00  0.00    +0.002 A 
ATOM      9  C   UNL     1       0.814   0.619   4.264  0.00  0.00    +0.025 A 
ATOM     10  C   UNL     1      -0.308   1.108   3.616  0.00  0.00    +0.053 A 
ATOM     11  N   UNL     1      -0.640   0.728   2.322  0.00  0.00    -0.316 N 
ATOM     12  C   UNL     1      -0.720   1.574   1.262  0.00  0.00    +0.017 C 
ATOM     13  C   UNL     1      -1.348   2.760   1.271  0.00  0.00    +0.038 C 
ATOM     14  C   UNL     1      -2.062   3.377   2.450  0.00  0.00    +0.153 C 
ATOM     15  C   UNL     1      -1.378   3.560   0.103  0.00  0.00    +0.163 C 
ATOM     16  O   UNL     1      -1.935   4.639   0.146  0.00  0.00    -0.292 OA
ATOM     17  C   UNL     1      -0.747   3.123  -1.185  0.00  0.00    +0.088 C 
ATOM     18  C   UNL     1      -0.748   1.590  -1.233  0.00  0.00    +0.032 C 
ATOM     19  C   UNL     1      -0.013   1.086   0.008  0.00  0.00    +0.059 C 
ATOM     20  H   UNL     1      -0.832  -0.209   2.163  0.00  0.00    +0.152 HD
ENDROOT
BRANCH  18  21
ATOM     21  C   UNL     1      -0.037   1.117  -2.475  0.00  0.00    -0.044 A 
ATOM     22  C   UNL     1       1.275   1.487  -2.703  0.00  0.00    +0.004 A 
ATOM     23  C   UNL     1       1.929   1.050  -3.840  0.00  0.00    +0.000 A 
ATOM     24  C   UNL     1       1.267   0.251  -4.753  0.00  0.00    +0.000 A 
ATOM     25  C   UNL     1      -0.047  -0.114  -4.528  0.00  0.00    +0.000 A 
ATOM     26  C   UNL     1      -0.699   0.319  -3.389  0.00  0.00    +0.004 A 
ENDBRANCH  18  21
BRANCH  14  27
ATOM     27  C   UNL     1      -1.259   4.558   2.931  0.00  0.00    +0.015 A 
ATOM     28  C   UNL     1      -1.450   5.877   2.687  0.00  0.00    +0.013 A 
ATOM     29  C   UNL     1      -0.579   6.795   3.243  0.00  0.00    +0.008 A 
ATOM     30  C   UNL     1       0.447   6.348   4.007  0.00  0.00    +0.045 A 
ATOM     31  S   UNL     1       0.197   4.581   3.964  0.00  0.00    -0.099 S 
ENDBRANCH  14  27
TORSDOF 2
