REMARK  Name = ZINC65924668
REMARK  3 active torsions:
REMARK  status: ('A' for Active; 'I' for Inactive)
REMARK    1  A    between atoms: C_4  and  N_21
REMARK    2  A    between atoms: C_5  and  N_20
REMARK    3  A    between atoms: C_6  and  C_7
REMARK                            x       y       z     vdW  Elec       q    Type
REMARK                         _______ _______ _______ _____ _____    ______ ____
ROOT
ATOM      1  C   UNL     1       0.283   1.188   0.900  0.00  0.00    +0.053 A 
ATOM      2  C   UNL     1       1.550   1.734   0.876  0.00  0.00    +0.126 A 
ATOM      3  C   UNL     1       2.515   1.227   0.018  0.00  0.00    +0.073 A 
ATOM      4  C   UNL     1       2.219   0.171  -0.820  0.00  0.00    +0.150 A 
ATOM      5  C   UNL     1       0.949  -0.391  -0.810  0.00  0.00    +0.068 A 
ATOM      6  C   UNL     1      -0.030   0.119   0.057  0.00  0.00    +0.062 A 
ATOM      7  F   UNL     1       1.852   2.768   1.691  0.00  0.00    -0.205 F 
ENDROOT
BRANCH   6   8
ATOM      8  C   UNL     1      -1.382  -0.470   0.078  0.00  0.00    +0.249 C 
ATOM      9  O   UNL     1      -1.519  -1.673   0.195  0.00  0.00    -0.270 OA
ATOM     10  N   UNL     1      -2.465   0.324  -0.033  0.00  0.00    -0.294 N 
ATOM     11  C   UNL     1      -2.268   1.744  -0.086  0.00  0.00    +0.112 C 
ATOM     12  C   UNL     1      -3.266   2.443  -0.958  0.00  0.00    +0.007 C 
ATOM     13  C   UNL     1      -3.471   1.748  -2.294  0.00  0.00    +0.008 C 
ATOM     14  C   UNL     1      -4.531   0.665  -2.277  0.00  0.00    -0.009 C 
ATOM     15  C   UNL     1      -5.827   1.174  -1.640  0.00  0.00    +0.007 C 
ATOM     16  C   UNL     1      -5.490   1.609  -0.212  0.00  0.00    -0.009 C 
ATOM     17  C   UNL     1      -4.557   2.818  -0.286  0.00  0.00    +0.008 C 
ATOM     18  C   UNL     1      -4.869   0.483   0.582  0.00  0.00    +0.026 C 
ATOM     19  C   UNL     1      -3.775  -0.299  -0.099  0.00  0.00    +0.077 C 
ATOM     20  C   UNL     1      -4.096  -0.603  -1.557  0.00  0.00    +0.026 C 
ENDBRANCH   6   8
BRANCH   5  21
ATOM     21  N   UNL     1       0.648  -1.454  -1.654  0.00  0.00    -0.356 N 
ATOM     22  H   UNL     1       1.345  -2.075  -1.918  0.00  0.00    +0.142 HD
ATOM     23  H   UNL     1      -0.258  -1.574  -1.979  0.00  0.00    +0.142 HD
ENDBRANCH   5  21
BRANCH   4  24
ATOM     24  N   UNL     1       3.255  -0.363  -1.732  0.00  0.00    +0.058 N 
ATOM     25  O   UNL     1       4.337   0.173  -1.796  0.00  0.00    -0.126 OA
ATOM     26  O   UNL     1       3.020  -1.334  -2.412  0.00  0.00    -0.126 OA
ENDBRANCH   4  24
TORSDOF 3
