REMARK  Name = ZINC38702243
REMARK  11 active torsions:
REMARK  status: ('A' for Active; 'I' for Inactive)
REMARK    1  A    between atoms: C_1  and  C_2
REMARK    2  A    between atoms: C_2  and  C_3
REMARK    3  A    between atoms: C_3  and  C_4
REMARK    4  A    between atoms: C_4  and  O_5
REMARK    5  A    between atoms: O_5  and  C_6
REMARK    6  A    between atoms: C_9  and  C_12
REMARK    7  A    between atoms: C_15  and  C_31
REMARK    8  A    between atoms: N_22  and  C_23
REMARK    9  A    between atoms: C_33  and  C_39
REMARK   10  A    between atoms: C_34  and  C_38
REMARK   11  A    between atoms: C_36  and  O_37
REMARK                            x       y       z     vdW  Elec       q    Type
REMARK                         _______ _______ _______ _____ _____    ______ ____
ROOT
ATOM      1  C   UNL     1       2.006  -7.885   3.048  0.00  0.00    +0.142 C 
ATOM      2  C   UNL     1       3.288  -8.470   2.523  0.00  0.00    +0.035 A 
ATOM      3  C   UNL     1       4.133  -8.667   1.425  0.00  0.00    +0.102 A 
ATOM      4  N   UNL     1       5.175  -9.355   1.848  0.00  0.00    -0.173 NA
ATOM      5  N   UNL     1       5.072  -9.613   3.103  0.00  0.00    -0.272 N 
ATOM      6  H   UNL     1       5.723 -10.107   3.625  0.00  0.00    +0.189 HD
ATOM      7  C   UNL     1       3.911  -9.086   3.592  0.00  0.00    +0.126 A 
ATOM      8  C   UNL     1       3.071  -8.916   4.783  0.00  0.00    +0.266 C 
ATOM      9  O   UNL     1       3.340  -9.344   5.889  0.00  0.00    -0.268 OA
ATOM     10  N   UNL     1       1.960  -8.219   4.478  0.00  0.00    -0.280 N 
ENDROOT
BRANCH   3  11
ATOM     11  C   UNL     1       3.898  -8.188   0.040  0.00  0.00    +0.044 A 
ATOM     12  C   UNL     1       2.644  -8.336  -0.548  0.00  0.00    +0.017 A 
ATOM     13  C   UNL     1       2.431  -7.889  -1.836  0.00  0.00    -0.047 A 
ATOM     14  C   UNL     1       3.459  -7.296  -2.547  0.00  0.00    -0.044 A 
ATOM     15  C   UNL     1       4.707  -7.145  -1.973  0.00  0.00    +0.049 A 
ATOM     16  C   UNL     1       4.933  -7.583  -0.678  0.00  0.00    +0.126 A 
ATOM     17  C   UNL     1       3.217  -6.811  -3.953  0.00  0.00    +0.044 C 
ATOM     18  C   UNL     1       1.074  -8.050  -2.471  0.00  0.00    +0.044 C 
BRANCH  16  19
ATOM     19  O   UNL     1       6.158  -7.430  -0.110  0.00  0.00    -0.506 OA
ATOM     20  H   UNL     1       6.782  -8.137  -0.324  0.00  0.00    +0.292 HD
ENDBRANCH  16  19
ENDBRANCH   3  11
BRANCH  10  21
ATOM     21  C   UNL     1       0.889  -7.856   5.410  0.00  0.00    +0.100 C 
ATOM     22  C   UNL     1       1.467  -7.020   6.564  0.00  0.00    +0.047 C 
ATOM     23  C   UNL     1       0.428  -6.904   7.704  0.00  0.00    +0.168 C 
ATOM     24  S   UNL     1      -0.552  -8.449   7.515  0.00  0.00    -0.029 S 
ATOM     25  O   UNL     1      -1.895  -8.109   7.200  0.00  0.00    -0.174 OA
ATOM     26  O   UNL     1      -0.288  -9.303   8.620  0.00  0.00    -0.174 OA
ATOM     27  C   UNL     1       0.259  -9.143   6.014  0.00  0.00    +0.188 C 
ENDBRANCH  10  21
BRANCH   1  31
ATOM     28  C   UNL     1       2.002  -3.644   2.528  0.00  0.00    +0.121 A 
ATOM     29  C   UNL     1       1.171  -4.439   1.753  0.00  0.00    +0.046 A 
ATOM     30  C   UNL     1       1.175  -5.810   1.923  0.00  0.00    +0.009 A 
ATOM     31  C   UNL     1       2.005  -6.390   2.865  0.00  0.00    -0.022 A 
ATOM     32  C   UNL     1       2.833  -5.599   3.639  0.00  0.00    +0.009 A 
ATOM     33  C   UNL     1       2.838  -4.228   3.469  0.00  0.00    +0.046 A 
BRANCH  28  34
ATOM     34  O   UNL     1       2.001  -2.295   2.363  0.00  0.00    -0.492 OA
BRANCH  34  35
ATOM     35  C   UNL     1       1.115  -1.763   1.376  0.00  0.00    +0.229 C 
BRANCH  35  36
ATOM     36  C   UNL     1       1.253  -0.240   1.335  0.00  0.00    +0.041 C 
BRANCH  36  38
ATOM     37  C   UNL     1       0.442   1.853   0.236  0.00  0.00    +0.004 C 
ATOM     38  C   UNL     1       0.304   0.330   0.278  0.00  0.00    -0.000 C 
ENDBRANCH  36  38
ENDBRANCH  35  36
ENDBRANCH  34  35
ENDBRANCH  28  34
ENDBRANCH   1  31
TORSDOF 8
