REMARK  Name = ZINC09982176
REMARK  6 active torsions:
REMARK  status: ('A' for Active; 'I' for Inactive)
REMARK    1  A    between atoms: C_1  and  C_2
REMARK    2  A    between atoms: N_11  and  C_15
REMARK    3  A    between atoms: C_15  and  C_16
REMARK    4  A    between atoms: N_18  and  C_19
REMARK    5  A    between atoms: C_19  and  C_20
REMARK    6  A    between atoms: N_22  and  C_23
REMARK                            x       y       z     vdW  Elec       q    Type
REMARK                         _______ _______ _______ _____ _____    ______ ____
ROOT
ATOM      1  C   UNL     1       1.119   0.515   5.535  0.00  0.00    +0.231 C 
ATOM      2  O   UNL     1       1.527  -0.603   5.306  0.00  0.00    -0.274 OA
ATOM      3  N   UNL     1       1.007   0.945   6.808  0.00  0.00    -0.305 N 
ATOM      4  H   UNL     1       0.680   1.840   6.990  0.00  0.00    +0.149 HD
ENDROOT
BRANCH   1   5
ATOM      5  C   UNL     1       0.735   1.425   4.396  0.00  0.00    +0.213 C 
BRANCH   5  15
ATOM      6  C   UNL     1      -0.093   1.505   0.018  0.00  0.00    +0.010 C 
ATOM      7  C   UNL     1      -0.076  -0.025   0.013  0.00  0.00    +0.018 C 
ATOM      8  C   UNL     1       0.629  -0.524  -1.250  0.00  0.00    +0.006 C 
ATOM      9  C   UNL     1       0.663  -2.054  -1.244  0.00  0.00    +0.000 C 
ATOM     10  C   UNL     1       1.431  -2.544  -0.015  0.00  0.00    +0.003 C 
ATOM     11  C   UNL     1       0.728  -2.053   1.253  0.00  0.00    +0.035 C 
ATOM     12  C   UNL     1       0.669  -0.529   1.245  0.00  0.00    +0.115 C 
ATOM     13  C   UNL     1       0.009  -0.020   2.506  0.00  0.00    +0.247 C 
ATOM     14  O   UNL     1      -1.122  -0.239   2.883  0.00  0.00    -0.273 OA
ATOM     15  N   UNL     1       0.945   0.730   3.124  0.00  0.00    -0.215 N 
ATOM     16  C   UNL     1       2.090   0.760   2.430  0.00  0.00    +0.310 C 
ATOM     17  O   UNL     1       3.079   1.370   2.785  0.00  0.00    -0.252 OA
ATOM     18  N   UNL     1       2.022   0.039   1.295  0.00  0.00    -0.285 N 
ATOM     19  H   UNL     1       2.727  -0.082   0.640  0.00  0.00    +0.151 HD
ENDBRANCH   5  15
ENDBRANCH   1   5
BRANCH   3  20
ATOM     20  C   UNL     1       1.380   0.061   7.915  0.00  0.00    +0.200 C 
BRANCH  20  21
ATOM     21  C   UNL     1       1.164   0.776   9.223  0.00  0.00    +0.234 C 
ATOM     22  O   UNL     1       0.740   1.912   9.231  0.00  0.00    -0.274 OA
ATOM     23  N   UNL     1       1.441   0.152  10.386  0.00  0.00    -0.282 N 
ATOM     24  H   UNL     1       1.718  -0.777  10.383  0.00  0.00    +0.155 HD
BRANCH  23  25
ATOM     25  C   UNL     1       1.329   0.847  11.598  0.00  0.00    +0.072 A 
ATOM     26  C   UNL     1       0.341   1.808  11.759  0.00  0.00    +0.029 A 
ATOM     27  C   UNL     1       0.231   2.493  12.954  0.00  0.00    +0.043 A 
ATOM     28  C   UNL     1       1.106   2.223  13.992  0.00  0.00    +0.161 A 
ATOM     29  C   UNL     1       2.095   1.264  13.835  0.00  0.00    +0.195 A 
ATOM     30  C   UNL     1       2.205   0.571  12.641  0.00  0.00    +0.182 A 
ATOM     31  F   UNL     1       3.164  -0.367  12.489  0.00  0.00    -0.200 F 
ATOM     32  F   UNL     1       2.949   1.002  14.849  0.00  0.00    -0.199 F 
ATOM     33  F   UNL     1       0.996   2.895  15.159  0.00  0.00    -0.202 F 
ENDBRANCH  23  25
ENDBRANCH  20  21
ENDBRANCH   3  20
TORSDOF 5
