REMARK  Name = ZINC14459703
REMARK  7 active torsions:
REMARK  status: ('A' for Active; 'I' for Inactive)
REMARK    1  A    between atoms: C_1  and  C_2
REMARK    2  A    between atoms: N_5  and  S_8
REMARK    3  A    between atoms: S_8  and  C_11
REMARK    4  A    between atoms: C_24  and  C_27
REMARK    5  A    between atoms: C_31  and  O_34
REMARK    6  A    between atoms: C_32  and  O_33
REMARK    7  A    between atoms: O_34  and  C_35
REMARK                            x       y       z     vdW  Elec       q    Type
REMARK                         _______ _______ _______ _____ _____    ______ ____
ROOT
ATOM      1  C   UNL     1      -5.756   7.919   0.682  0.00  0.00    +0.106 A 
ATOM      2  C   UNL     1      -4.889   8.210  -0.355  0.00  0.00    +0.030 A 
ATOM      3  C   UNL     1      -3.833   7.362  -0.623  0.00  0.00    +0.025 A 
ATOM      4  C   UNL     1      -3.644   6.222   0.149  0.00  0.00    +0.031 A 
ATOM      5  C   UNL     1      -4.509   5.928   1.192  0.00  0.00    -0.018 A 
ATOM      6  C   UNL     1      -5.569   6.787   1.449  0.00  0.00    +0.034 A 
ATOM      7  C   UNL     1      -4.340   4.718   2.055  0.00  0.00    +0.049 C 
ATOM      8  C   UNL     1      -5.354   3.652   1.716  0.00  0.00    -0.023 C 
ATOM      9  C   UNL     1      -4.817   2.462   1.829  0.00  0.00    -0.030 C 
ATOM     10  C   UNL     1      -3.369   2.573   2.267  0.00  0.00    +0.033 C 
ATOM     11  C   UNL     1      -2.979   4.023   1.856  0.00  0.00    +0.029 C 
ATOM     12  C   UNL     1      -2.620   3.995   0.368  0.00  0.00    +0.109 C 
ATOM     13  N   UNL     1      -2.570   5.372  -0.135  0.00  0.00    -0.336 N 
ATOM     14  H   UNL     1      -1.812   5.685  -0.652  0.00  0.00    +0.147 HD
ENDROOT
BRANCH  12  15
ATOM     15  C   UNL     1      -1.275   3.341   0.185  0.00  0.00    +0.018 A 
ATOM     16  C   UNL     1      -1.192   2.060  -0.328  0.00  0.00    +0.009 A 
ATOM     17  C   UNL     1       0.041   1.458  -0.496  0.00  0.00    +0.004 A 
ATOM     18  C   UNL     1       1.197   2.135  -0.152  0.00  0.00    +0.049 A 
ATOM     19  C   UNL     1       1.121   3.418   0.363  0.00  0.00    +0.162 A 
ATOM     20  C   UNL     1      -0.121   4.022   0.538  0.00  0.00    +0.163 A 
BRANCH  20  21
ATOM     21  O   UNL     1      -0.201   5.280   1.048  0.00  0.00    -0.503 OA
ATOM     22  H   UNL     1      -0.120   5.980   0.385  0.00  0.00    +0.292 HD
ENDBRANCH  20  21
BRANCH  19  23
ATOM     23  O   UNL     1       2.257   4.085   0.702  0.00  0.00    -0.491 OA
ATOM     24  C   UNL     1       3.495   3.401   0.500  0.00  0.00    +0.277 C 
ENDBRANCH  19  23
ENDBRANCH  12  15
BRANCH   1  25
ATOM     25  S   UNL     1      -7.107   8.997   1.025  0.00  0.00    +0.061 S 
ATOM     26  O   UNL     1      -7.453   8.793   2.388  0.00  0.00    -0.153 OA
ATOM     27  O   UNL     1      -6.748  10.273   0.513  0.00  0.00    -0.153 OA
BRANCH  25  32
ATOM     28  C   UNL     1      -9.975   5.681  -2.671  0.00  0.00    +0.007 C 
ATOM     29  C   UNL     1      -9.829   6.849  -1.693  0.00  0.00    -0.012 C 
ATOM     30  C   UNL     1      -9.446   6.314  -0.312  0.00  0.00    +0.020 C 
ATOM     31  C   UNL     1      -9.334   7.483   0.672  0.00  0.00    +0.110 C 
ATOM     32  N   UNL     1      -8.394   8.472   0.126  0.00  0.00    -0.177 NA
ATOM     33  C   UNL     1      -8.622   8.989  -1.230  0.00  0.00    +0.110 C 
ATOM     34  C   UNL     1      -8.739   7.800  -2.194  0.00  0.00    +0.020 C 
ENDBRANCH  25  32
ENDBRANCH   1  25
TORSDOF 5
