REMARK  Name = ZINC01045243
REMARK  6 active torsions:
REMARK  status: ('A' for Active; 'I' for Inactive)
REMARK    1  A    between atoms: C_4  and  S_8
REMARK    2  A    between atoms: C_5  and  N_7
REMARK    3  A    between atoms: S_8  and  C_9
REMARK    4  A    between atoms: N_14  and  C_17
REMARK    5  A    between atoms: C_19  and  C_27
REMARK    6  A    between atoms: C_21  and  C_23
REMARK                            x       y       z     vdW  Elec       q    Type
REMARK                         _______ _______ _______ _____ _____    ______ ____
ROOT
ATOM      1  C   UNL     1       5.149   0.371  -0.122  0.00  0.00    +0.147 C 
ATOM      2  C   UNL     1       6.648   0.070   0.082  0.00  0.00    +0.120 C 
ATOM      3  C   UNL     1       7.293   0.614  -1.174  0.00  0.00    +0.228 C 
ATOM      4  O   UNL     1       8.479   0.582  -1.425  0.00  0.00    -0.275 OA
ATOM      5  N   UNL     1       6.348   1.135  -1.965  0.00  0.00    -0.209 N 
ATOM      6  C   UNL     1       5.102   1.055  -1.471  0.00  0.00    +0.240 C 
ATOM      7  O   UNL     1       4.099   1.463  -2.017  0.00  0.00    -0.274 OA
ENDROOT
BRANCH   5   8
ATOM      8  C   UNL     1       6.634   1.719  -3.207  0.00  0.00    +0.045 A 
ATOM      9  C   UNL     1       6.461   3.084  -3.390  0.00  0.00    +0.036 A 
ATOM     10  C   UNL     1       6.744   3.656  -4.615  0.00  0.00    +0.057 A 
ATOM     11  C   UNL     1       7.199   2.871  -5.658  0.00  0.00    +0.024 A 
ATOM     12  C   UNL     1       7.373   1.511  -5.479  0.00  0.00    +0.057 A 
ATOM     13  C   UNL     1       7.097   0.934  -4.254  0.00  0.00    +0.036 A 
BRANCH  12  14
ATOM     14  C   UNL     1       7.870   0.659  -6.618  0.00  0.00    +0.417 C 
ATOM     15  F   UNL     1       8.083   1.462  -7.743  0.00  0.00    -0.166 F 
ATOM     16  F   UNL     1       9.071   0.043  -6.250  0.00  0.00    -0.166 F 
ATOM     17  F   UNL     1       6.917  -0.320  -6.918  0.00  0.00    -0.166 F 
ENDBRANCH  12  14
BRANCH  10  18
ATOM     18  C   UNL     1       6.555   5.138  -4.815  0.00  0.00    +0.417 C 
ATOM     19  F   UNL     1       7.741   5.807  -4.491  0.00  0.00    -0.166 F 
ATOM     20  F   UNL     1       6.228   5.390  -6.152  0.00  0.00    -0.166 F 
ATOM     21  F   UNL     1       5.522   5.593  -3.988  0.00  0.00    -0.166 F 
ENDBRANCH  10  18
ENDBRANCH   5   8
BRANCH   1  22
ATOM     22  S   UNL     1       4.188  -1.167  -0.152  0.00  0.00    -0.110 S 
BRANCH  22  26
ATOM     23  C   UNL     1      -0.106   0.234  -0.549  0.00  0.00    +0.002 A 
ATOM     24  C   UNL     1       0.922   1.157  -0.494  0.00  0.00    +0.001 A 
ATOM     25  C   UNL     1       2.232   0.733  -0.372  0.00  0.00    +0.016 A 
ATOM     26  C   UNL     1       2.519  -0.623  -0.306  0.00  0.00    +0.029 A 
ATOM     27  C   UNL     1       1.482  -1.554  -0.361  0.00  0.00    +0.038 A 
ATOM     28  C   UNL     1       0.171  -1.120  -0.484  0.00  0.00    +0.024 A 
BRANCH  27  29
ATOM     29  N   UNL     1       1.764  -2.924  -0.295  0.00  0.00    -0.357 N 
ATOM     30  H   UNL     1       2.681  -3.227  -0.211  0.00  0.00    +0.142 HD
ATOM     31  H   UNL     1       1.042  -3.571  -0.334  0.00  0.00    +0.142 HD
ENDBRANCH  27  29
ENDBRANCH  22  26
ENDBRANCH   1  22
TORSDOF 6
