REMARK  Name = ZINC04225415
REMARK  10 active torsions:
REMARK  status: ('A' for Active; 'I' for Inactive)
REMARK    1  A    between atoms: C_1  and  C_2
REMARK    2  A    between atoms: C_5  and  C_28
REMARK    3  A    between atoms: C_6  and  N_8
REMARK    4  A    between atoms: N_8  and  C_9
REMARK    5  A    between atoms: C_9  and  N_11
REMARK    6  A    between atoms: N_11  and  C_12
REMARK    7  A    between atoms: C_12  and  C_13
REMARK    8  A    between atoms: C_13  and  C_14
REMARK    9  A    between atoms: C_19  and  C_27
REMARK   10  A    between atoms: C_20  and  C_26
REMARK                            x       y       z     vdW  Elec       q    Type
REMARK                         _______ _______ _______ _____ _____    ______ ____
ROOT
ATOM      1  C   UNL     1       3.491   3.235   1.371  0.00  0.00    +0.108 C 
ENDROOT
BRANCH   1   2
ATOM      2  N   UNL     1       4.522   4.275   1.402  0.00  0.00    -0.326 N 
ATOM      3  H   UNL     1       4.715   4.791   0.603  0.00  0.00    +0.148 HD
BRANCH   2   4
ATOM      4  C   UNL     1       5.204   4.515   2.540  0.00  0.00    +0.135 C 
ATOM      5  S   UNL     1       4.864   3.605   3.950  0.00  0.00    -0.019 S 
BRANCH   4   6
ATOM      6  N   UNL     1       6.152   5.472   2.568  0.00  0.00    -0.297 N 
ATOM      7  H   UNL     1       6.401   5.933   1.752  0.00  0.00    +0.154 HD
BRANCH   6  13
ATOM      8  C   UNL     1       5.830   6.441   7.377  0.00  0.00    +0.044 C 
ATOM      9  C   UNL     1       6.647   6.276   6.122  0.00  0.00    -0.049 A 
ATOM     10  C   UNL     1       8.018   6.451   6.162  0.00  0.00    +0.004 A 
ATOM     11  C   UNL     1       8.771   6.301   5.012  0.00  0.00    +0.005 A 
ATOM     12  C   UNL     1       8.156   5.976   3.819  0.00  0.00    -0.029 A 
ATOM     13  C   UNL     1       6.779   5.800   3.775  0.00  0.00    +0.036 A 
ATOM     14  C   UNL     1       6.025   5.957   4.931  0.00  0.00    +0.027 A 
ATOM     15  C   UNL     1       8.977   5.813   2.566  0.00  0.00    +0.045 C 
ENDBRANCH   6  13
ENDBRANCH   4   6
ENDBRANCH   2   4
ENDBRANCH   1   2
BRANCH   1  16
ATOM     16  C   UNL     1       2.877   3.167  -0.028  0.00  0.00    +0.059 C 
BRANCH  16  17
ATOM     17  C   UNL     1       1.816   2.097  -0.060  0.00  0.00    +0.019 A 
ATOM     18  C   UNL     1       0.516   2.429   0.142  0.00  0.00    +0.019 A 
ATOM     19  C   UNL     1      -0.490   1.366   0.105  0.00  0.00    -0.001 A 
ATOM     20  C   UNL     1      -1.846   1.645   0.306  0.00  0.00    +0.010 A 
ATOM     21  C   UNL     1      -2.760   0.631   0.264  0.00  0.00    +0.004 A 
ATOM     22  C   UNL     1      -2.355  -0.675   0.025  0.00  0.00    -0.046 A 
ATOM     23  C   UNL     1      -1.025  -0.974  -0.176  0.00  0.00    -0.024 A 
ATOM     24  C   UNL     1      -0.077   0.043  -0.144  0.00  0.00    +0.052 A 
ATOM     25  N   UNL     1       1.261  -0.228  -0.337  0.00  0.00    -0.322 N 
ATOM     26  H   UNL     1       1.554  -1.169  -0.506  0.00  0.00    +0.169 HD
ATOM     27  C   UNL     1       2.178   0.755  -0.300  0.00  0.00    +0.252 A 
ATOM     28  O   UNL     1       3.352   0.479  -0.479  0.00  0.00    -0.268 OA
ATOM     29  C   UNL     1      -0.600  -2.396  -0.434  0.00  0.00    +0.046 C 
ATOM     30  C   UNL     1      -3.382  -1.778  -0.017  0.00  0.00    +0.044 C 
ENDBRANCH  16  17
ENDBRANCH   1  16
TORSDOF 6
