REMARK  Name = ZINC22066008
REMARK  7 active torsions:
REMARK  status: ('A' for Active; 'I' for Inactive)
REMARK    1  A    between atoms: C_1  and  C_2
REMARK    2  A    between atoms: C_2  and  C_4
REMARK    3  A    between atoms: C_2  and  O_29
REMARK    4  A    between atoms: C_4  and  O_28
REMARK    5  A    between atoms: C_9  and  C_27
REMARK    6  A    between atoms: C_20  and  O_26
REMARK    7  A    between atoms: C_24  and  C_25
REMARK                            x       y       z     vdW  Elec       q    Type
REMARK                         _______ _______ _______ _____ _____    ______ ____
ROOT
ATOM      1  C   UNL     1      -1.461   4.070  -1.985  0.00  0.00    +0.097 C 
ATOM      2  C   UNL     1      -1.623   5.312  -1.073  0.00  0.00    +0.038 C 
ATOM      3  C   UNL     1      -1.274   4.849   0.367  0.00  0.00    +0.007 C 
ATOM      4  C   UNL     1      -0.597   3.487   0.147  0.00  0.00    +0.001 C 
ATOM      5  C   UNL     1      -1.442   2.886  -0.995  0.00  0.00    +0.002 C 
ATOM      6  C   UNL     1      -0.812   1.628  -1.536  0.00  0.00    +0.010 C 
ATOM      7  C   UNL     1      -0.096   0.852  -0.422  0.00  0.00    +0.005 C 
ATOM      8  C   UNL     1      -0.726   1.125   0.939  0.00  0.00    +0.002 C 
ATOM      9  C   UNL     1      -0.497   2.583   1.339  0.00  0.00    -0.003 C 
ATOM     10  C   UNL     1      -1.390   2.982   2.502  0.00  0.00    +0.008 C 
ATOM     11  C   UNL     1      -1.446   1.854   3.535  0.00  0.00    +0.031 C 
ATOM     12  C   UNL     1      -0.260   0.936   3.342  0.00  0.00    -0.065 C 
ATOM     13  C   UNL     1       0.606   0.768   4.291  0.00  0.00    +0.004 C 
ATOM     14  C   UNL     1       1.809  -0.109   4.226  0.00  0.00    +0.137 C 
ATOM     15  C   UNL     1       2.005  -0.788   2.883  0.00  0.00    +0.036 C 
ATOM     16  C   UNL     1       1.371  -0.000   1.741  0.00  0.00    +0.014 C 
ATOM     17  C   UNL     1      -0.113   0.222   2.017  0.00  0.00    -0.008 C 
ATOM     18  C   UNL     1      -0.864  -1.110   2.056  0.00  0.00    +0.016 C 
ATOM     19  C   UNL     1      -2.892   2.630  -0.574  0.00  0.00    +0.014 C 
ENDROOT
BRANCH   1  21
ATOM     20  C   UNL     1      -2.654   5.118  -3.909  0.00  0.00    +0.040 C 
ATOM     21  C   UNL     1      -2.648   3.939  -2.934  0.00  0.00    +0.144 C 
BRANCH  21  22
ATOM     22  O   UNL     1      -2.539   2.716  -3.666  0.00  0.00    -0.389 OA
ATOM     23  H   UNL     1      -2.519   1.755  -3.131  0.00  0.00    +0.210 HD
ENDBRANCH  21  22
ENDBRANCH   1  21
BRANCH  14  24
ATOM     24  O   UNL     1       1.692  -1.117   5.235  0.00  0.00    -0.388 OA
ATOM     25  H   UNL     1       2.485  -1.871   5.353  0.00  0.00    +0.210 HD
ENDBRANCH  14  24
BRANCH   1  26
ATOM     26  O   UNL     1      -0.233   4.135  -2.704  0.00  0.00    -0.385 OA
ATOM     27  H   UNL     1       0.718   4.231  -2.160  0.00  0.00    +0.210 HD
ENDBRANCH   1  26
TORSDOF 4
