REMARK  Name = ZINC04268227
REMARK  6 active torsions:
REMARK  status: ('A' for Active; 'I' for Inactive)
REMARK    1  A    between atoms: C_1  and  C_2
REMARK    2  A    between atoms: C_15  and  C_31
REMARK    3  A    between atoms: C_15  and  C_32
REMARK    4  A    between atoms: C_25  and  C_27
REMARK    5  A    between atoms: C_25  and  C_28
REMARK    6  A    between atoms: C_32  and  O_33
REMARK                            x       y       z     vdW  Elec       q    Type
REMARK                         _______ _______ _______ _____ _____    ______ ____
ROOT
ATOM      1  C   UNL     1       5.147  -2.971  -4.082  0.00  0.00    +0.016 C 
ATOM      2  C   UNL     1       5.677  -1.619  -3.623  0.00  0.00    +0.059 C 
ATOM      3  C   UNL     1       5.936  -1.581  -2.113  0.00  0.00    +0.031 C 
ATOM      4  C   UNL     1       4.990  -2.414  -1.280  0.00  0.00    +0.038 C 
ATOM      5  C   UNL     1       3.544  -2.044  -1.407  0.00  0.00    +0.123 C 
ATOM      6  C   UNL     1       3.166  -0.714  -2.038  0.00  0.00    +0.045 C 
ATOM      7  C   UNL     1       2.279  -0.033  -0.993  0.00  0.00    +0.004 C 
ATOM      8  C   UNL     1       0.828  -0.536  -1.171  0.00  0.00    +0.010 C 
ATOM      9  C   UNL     1       0.002  -0.004   0.002  0.00  0.00    +0.001 C 
ATOM     10  C   UNL     1      -0.019   1.518   0.010  0.00  0.00    +0.009 C 
ATOM     11  C   UNL     1       1.387   2.132   0.000  0.00  0.00    -0.005 C 
ATOM     12  C   UNL     1       2.255   1.459  -1.033  0.00  0.00    +0.008 C 
ATOM     13  C   UNL     1       3.614   2.076  -1.285  0.00  0.00    +0.037 C 
ATOM     14  C   UNL     1       4.041   1.578  -2.689  0.00  0.00    +0.138 C 
ATOM     15  C   UNL     1       4.318   0.090  -2.578  0.00  0.00    +0.087 C 
ATOM     16  C   UNL     1       5.619  -0.088  -1.758  0.00  0.00    +0.142 C 
ATOM     17  O   UNL     1       6.664   0.643  -2.410  0.00  0.00    -0.345 OA
ATOM     18  C   UNL     1       6.459   2.017  -2.675  0.00  0.00    +0.165 C 
ATOM     19  O   UNL     1       5.158   2.325  -3.116  0.00  0.00    -0.345 OA
ATOM     20  C   UNL     1       6.787   2.826  -1.413  0.00  0.00    +0.074 C 
ATOM     21  C   UNL     1       7.458   2.441  -3.770  0.00  0.00    +0.074 C 
ATOM     22  C   UNL     1       4.674  -0.518  -3.929  0.00  0.00    +0.148 C 
ATOM     23  O   UNL     1       4.257  -0.194  -5.016  0.00  0.00    -0.296 OA
ATOM     24  C   UNL     1       1.229   3.625  -0.368  0.00  0.00    +0.014 C 
ATOM     25  C   UNL     1       2.808  -0.687   0.302  0.00  0.00    +0.167 C 
ATOM     26  O   UNL     1       2.890  -2.085  -0.113  0.00  0.00    -0.376 OA
ENDROOT
BRANCH  11  27
ATOM     27  C   UNL     1       2.009   2.060   1.397  0.00  0.00    +0.162 C 
BRANCH  27  28
ATOM     28  O   UNL     1       1.191   2.781   2.320  0.00  0.00    -0.394 OA
ATOM     29  H   UNL     1       1.525   2.778   3.227  0.00  0.00    +0.209 HD
ENDBRANCH  27  28
ENDBRANCH  11  27
TORSDOF 2
