REMARK  Name = ZINC39582821
REMARK  4 active torsions:
REMARK  status: ('A' for Active; 'I' for Inactive)
REMARK    1  A    between atoms: C_1  and  C_2
REMARK    2  A    between atoms: C_2  and  C_3
REMARK    3  A    between atoms: C_5  and  C_16
REMARK    4  A    between atoms: C_9  and  C_13
REMARK                            x       y       z     vdW  Elec       q    Type
REMARK                         _______ _______ _______ _____ _____    ______ ____
ROOT
ATOM      1  C   UNL     1      -1.433  -0.534   0.013  0.00  0.00    +0.084 C 
ATOM      2  C   UNL     1      -1.451  -2.044   0.054  0.00  0.00    -0.012 C 
ATOM      3  C   UNL     1      -2.033  -2.692  -1.008  0.00  0.00    +0.075 C 
ATOM      4  C   UNL     1      -2.585  -1.860  -2.088  0.00  0.00    +0.112 C 
ATOM      5  N   UNL     1      -3.156  -2.415  -3.134  0.00  0.00    -0.226 NA
ATOM      6  C   UNL     1      -3.251  -3.730  -3.248  0.00  0.00    +0.138 C 
ATOM      7  N   UNL     1      -2.794  -4.566  -2.347  0.00  0.00    -0.160 NA
ATOM      8  C   UNL     1      -2.188  -4.160  -1.227  0.00  0.00    +0.272 C 
ATOM      9  O   UNL     1      -1.774  -4.965  -0.408  0.00  0.00    -0.268 OA
ATOM     10  S   UNL     1      -2.274  -0.186  -1.584  0.00  0.00    -0.097 S 
ENDROOT
BRANCH   2  11
ATOM     11  C   UNL     1      -0.874  -2.785   1.176  0.00  0.00    -0.020 A 
ATOM     12  C   UNL     1      -1.438  -2.679   2.457  0.00  0.00    +0.008 A 
ATOM     13  C   UNL     1      -0.887  -3.379   3.507  0.00  0.00    +0.001 A 
ATOM     14  C   UNL     1       0.221  -4.186   3.302  0.00  0.00    +0.000 A 
ATOM     15  C   UNL     1       0.784  -4.297   2.042  0.00  0.00    +0.001 A 
ATOM     16  C   UNL     1       0.244  -3.609   0.978  0.00  0.00    +0.008 A 
ENDBRANCH   2  11
BRANCH   1  18
ATOM     17  C   UNL     1      -0.019   1.526   0.010  0.00  0.00    +0.005 C 
ATOM     18  C   UNL     1       0.002  -0.004   0.002  0.00  0.00    +0.016 C 
ENDBRANCH   1  18
BRANCH   6  19
ATOM     19  C   UNL     1      -3.919  -4.294  -4.476  0.00  0.00    +0.182 C 
ATOM     20 CL   UNL     1      -3.918  -6.095  -4.385  0.00  0.00    -0.117 Cl
ENDBRANCH   6  19
TORSDOF 3
