REMARK  Name = ZINC54391824
REMARK  8 active torsions:
REMARK  status: ('A' for Active; 'I' for Inactive)
REMARK    1  A    between atoms: C_1  and  C_2
REMARK    2  A    between atoms: N_4  and  C_5
REMARK    3  A    between atoms: N_13  and  C_15
REMARK    4  A    between atoms: C_15  and  C_16
REMARK    5  A    between atoms: N_18  and  C_19
REMARK    6  A    between atoms: C_24  and  S_25
REMARK    7  A    between atoms: S_25  and  C_26
REMARK    8  A    between atoms: C_26  and  C_27
REMARK                            x       y       z     vdW  Elec       q    Type
REMARK                         _______ _______ _______ _____ _____    ______ ____
ROOT
ATOM      1  C   UNL     1       0.093  -2.044  -1.246  0.00  0.00    +0.037 A 
ATOM      2  C   UNL     1       0.112  -2.788  -0.075  0.00  0.00    +0.023 A 
ATOM      3  C   UNL     1       0.230  -4.162  -0.138  0.00  0.00    +0.002 A 
ATOM      4  C   UNL     1       0.331  -4.791  -1.363  0.00  0.00    +0.002 A 
ATOM      5  C   UNL     1       0.314  -4.052  -2.537  0.00  0.00    -0.059 A 
ATOM      6  C   UNL     1       0.186  -2.681  -2.480  0.00  0.00    -0.027 A 
ATOM      7  C   UNL     1       0.148  -1.842  -3.732  0.00  0.00    +0.019 C 
ATOM      8  C   UNL     1       0.661  -2.659  -4.918  0.00  0.00    -0.073 C 
ATOM      9  N   UNL     1      -0.059  -3.941  -4.950  0.00  0.00    +0.388 N 
ATOM     10  C   UNL     1       0.431  -4.782  -3.849  0.00  0.00    -0.042 C 
ATOM     11  H   UNL     1      -1.048  -3.776  -4.845  0.00  0.00    -0.081 HD
ENDROOT
BRANCH   1  15
ATOM     12  C   UNL     1       0.511   1.538  -0.169  0.00  0.00    +0.109 C 
ATOM     13  C   UNL     1       0.548   0.032  -0.176  0.00  0.00    +0.214 C 
ATOM     14  O   UNL     1       1.095  -0.566   0.726  0.00  0.00    -0.276 OA
ATOM     15  N   UNL     1      -0.027  -0.651  -1.186  0.00  0.00    -0.285 N 
ATOM     16  H   UNL     1      -0.524  -0.177  -1.871  0.00  0.00    +0.155 HD
ENDBRANCH   1  15
BRANCH   9  17
ATOM     17  C   UNL     1       0.196  -4.616  -6.231  0.00  0.00    +0.019 C 
BRANCH  17  18
ATOM     18  C   UNL     1      -0.638  -5.869  -6.312  0.00  0.00    +0.201 C 
ATOM     19  O   UNL     1      -1.371  -6.170  -5.394  0.00  0.00    -0.278 OA
ATOM     20  N   UNL     1      -0.568  -6.654  -7.405  0.00  0.00    -0.286 N 
ATOM     21  H   UNL     1       0.077  -6.458  -8.103  0.00  0.00    +0.155 HD
BRANCH  20  22
ATOM     22  C   UNL     1      -1.426  -7.755  -7.533  0.00  0.00    +0.047 A 
ATOM     23  C   UNL     1      -2.641  -7.770  -6.866  0.00  0.00    +0.024 A 
ATOM     24  C   UNL     1      -3.486  -8.856  -6.993  0.00  0.00    +0.002 A 
ATOM     25  C   UNL     1      -3.124  -9.930  -7.786  0.00  0.00    +0.001 A 
ATOM     26  C   UNL     1      -1.915  -9.924  -8.455  0.00  0.00    +0.016 A 
ATOM     27  C   UNL     1      -1.063  -8.835  -8.337  0.00  0.00    +0.030 A 
BRANCH  27  28
ATOM     28  S   UNL     1       0.476  -8.821  -9.195  0.00  0.00    -0.108 S 
BRANCH  28  29
ATOM     29  C   UNL     1       0.498 -10.402 -10.085  0.00  0.00    +0.192 C 
BRANCH  29  30
ATOM     30  C   UNL     1       1.749 -10.516 -10.851  0.00  0.00    +0.074 C 
ATOM     31  N   UNL     1       2.715 -10.605 -11.443  0.00  0.00    -0.196 NA
ENDBRANCH  29  30
ENDBRANCH  28  29
ENDBRANCH  27  28
ENDBRANCH  20  22
ENDBRANCH  17  18
ENDBRANCH   9  17
TORSDOF 7
