REMARK  Name = ZINC32119214
REMARK  9 active torsions:
REMARK  status: ('A' for Active; 'I' for Inactive)
REMARK    1  A    between atoms: C_1  and  C_2
REMARK    2  A    between atoms: C_2  and  C_3
REMARK    3  A    between atoms: C_3  and  C_4
REMARK    4  A    between atoms: C_4  and  C_5
REMARK    5  A    between atoms: N_14  and  C_15
REMARK    6  A    between atoms: C_15  and  N_17
REMARK    7  A    between atoms: C_18  and  C_20
REMARK    8  A    between atoms: C_23  and  C_25
REMARK    9  A    between atoms: C_29  and  N_31
REMARK                            x       y       z     vdW  Elec       q    Type
REMARK                         _______ _______ _______ _____ _____    ______ ____
ROOT
ATOM      1  N   UNL     1       2.833   8.416   0.022  0.00  0.00    -0.260 N 
ATOM      2  C   UNL     1       1.495   8.580   0.035  0.00  0.00    +0.285 C 
ATOM      3  O   UNL     1       1.019   9.700   0.046  0.00  0.00    -0.266 OA
ATOM      4  H   UNL     1       3.263   7.404   0.013  0.00  0.00    +0.157 HD
ENDROOT
BRANCH   2   5
ATOM      5  C   UNL     1       0.614   7.410   0.036  0.00  0.00    +0.190 A 
ATOM      6  C   UNL     1      -0.764   7.434   0.049  0.00  0.00    +0.055 A 
ATOM      7  C   UNL     1      -1.190   6.103   0.045  0.00  0.00    +0.050 A 
ATOM      8  C   UNL     1      -0.070   5.322   0.030  0.00  0.00    +0.136 A 
ATOM      9  O   UNL     1       1.011   6.120   0.031  0.00  0.00    -0.450 OA
BRANCH   8  10
ATOM     10  C   UNL     1      -0.050   3.845   0.022  0.00  0.00    +0.019 A 
ATOM     11  C   UNL     1      -1.248   3.127   0.030  0.00  0.00    +0.012 A 
ATOM     12  C   UNL     1      -1.222   1.748   0.017  0.00  0.00    +0.003 A 
ATOM     13  C   UNL     1      -0.013   1.076   0.008  0.00  0.00    +0.033 A 
ATOM     14  C   UNL     1       1.178   1.781   0.000  0.00  0.00    +0.127 A 
ATOM     15  C   UNL     1       1.167   3.160   0.007  0.00  0.00    +0.044 A 
BRANCH  14  16
ATOM     16  N   UNL     1       2.467   1.053  -0.015  0.00  0.00    +0.056 N 
ATOM     17  O   UNL     1       2.478  -0.165  -0.021  0.00  0.00    -0.126 OA
ATOM     18  O   UNL     1       3.516   1.672  -0.021  0.00  0.00    -0.126 OA
ENDBRANCH  14  16
ENDBRANCH   8  10
ENDBRANCH   2   5
BRANCH   1  19
ATOM     19  C   UNL     1       3.643   9.493   0.022  0.00  0.00    +0.163 C 
ATOM     20  S   UNL     1       2.973  11.069   0.037  0.00  0.00    -0.016 S 
BRANCH  19  30
ATOM     21  C   UNL     1       8.578  14.501   0.011  0.00  0.00    -0.046 A 
ATOM     22  C   UNL     1       7.268  14.957   0.025  0.00  0.00    +0.006 A 
ATOM     23  C   UNL     1       6.207  14.090   0.028  0.00  0.00    +0.027 A 
ATOM     24  C   UNL     1       6.418  12.691   0.017  0.00  0.00    +0.055 A 
ATOM     25  C   UNL     1       7.765  12.263   0.003  0.00  0.00    +0.039 A 
ATOM     26  C   UNL     1       8.821  13.140  -0.001  0.00  0.00    +0.020 A 
ATOM     27  S   UNL     1       7.599  10.494  -0.000  0.00  0.00    -0.052 S 
ATOM     28  C   UNL     1       5.813  10.436   0.008  0.00  0.00    +0.163 A 
ATOM     29  N   UNL     1       5.491  11.709   0.019  0.00  0.00    -0.335 N 
ATOM     30  N   UNL     1       4.981   9.330   0.009  0.00  0.00    -0.169 NA
ATOM     31  H   UNL     1       4.421  11.962   0.030  0.00  0.00    +0.168 HD
BRANCH  21  32
ATOM     32  C   UNL     1       9.725  15.479   0.008  0.00  0.00    +0.035 C 
BRANCH  32  33
ATOM     33  C   UNL     1      10.101  15.820  -1.435  0.00  0.00    +0.004 C 
BRANCH  33  35
ATOM     34  C   UNL     1      11.641  17.153  -2.881  0.00  0.00    +0.004 C 
ATOM     35  C   UNL     1      11.265  16.813  -1.438  0.00  0.00    -0.003 C 
ENDBRANCH  33  35
ENDBRANCH  32  33
ENDBRANCH  21  32
ENDBRANCH  19  30
ENDBRANCH   1  19
TORSDOF 8
