REMARK  Name = ZINC24453505
REMARK  5 active torsions:
REMARK  status: ('A' for Active; 'I' for Inactive)
REMARK    1  A    between atoms: C_1  and  C_2
REMARK    2  A    between atoms: C_6  and  C_13
REMARK    3  A    between atoms: C_13  and  N_14
REMARK    4  A    between atoms: C_17  and  C_21
REMARK    5  A    between atoms: C_17  and  C_22
REMARK                            x       y       z     vdW  Elec       q    Type
REMARK                         _______ _______ _______ _____ _____    ______ ____
ROOT
ATOM      1  N   UNL     1       3.092   1.137   1.312  0.00  0.00    -0.220 N 
ATOM      2  C   UNL     1       2.981   0.179   2.253  0.00  0.00    +0.251 C 
ATOM      3  O   UNL     1       2.378  -0.869   2.164  0.00  0.00    -0.272 OA
ATOM      4  C   UNL     1       3.767   0.683   3.447  0.00  0.00    +0.135 C 
ATOM      5  N   UNL     1       4.278   1.990   2.998  0.00  0.00    -0.281 N 
ATOM      6  C   UNL     1       3.836   2.164   1.739  0.00  0.00    +0.310 C 
ATOM      7  O   UNL     1       4.082   3.145   1.066  0.00  0.00    -0.252 OA
ATOM      8  C   UNL     1       2.852   0.852   4.662  0.00  0.00    +0.047 C 
ATOM      9  H   UNL     1       4.894   2.602   3.673  0.00  0.00    +0.152 HD
ENDROOT
BRANCH   4  10
ATOM     10  C   UNL     1       4.906  -0.251   3.765  0.00  0.00    -0.015 A 
ATOM     11  C   UNL     1       4.790  -1.601   3.493  0.00  0.00    +0.006 A 
ATOM     12  C   UNL     1       5.838  -2.454   3.780  0.00  0.00    +0.004 A 
ATOM     13  C   UNL     1       7.000  -1.963   4.350  0.00  0.00    -0.044 A 
ATOM     14  C   UNL     1       7.114  -0.614   4.628  0.00  0.00    -0.044 A 
ATOM     15  C   UNL     1       6.065   0.241   4.334  0.00  0.00    +0.010 A 
ATOM     16  C   UNL     1       8.468  -0.330   5.243  0.00  0.00    +0.036 C 
ATOM     17  C   UNL     1       9.330  -1.566   4.910  0.00  0.00    +0.009 C 
ATOM     18  C   UNL     1       8.270  -2.679   4.760  0.00  0.00    +0.036 C 
ENDBRANCH   4  10
BRANCH   1  19
ATOM     19  C   UNL     1       2.480   1.060  -0.017  0.00  0.00    +0.154 C 
BRANCH  19  25
ATOM     20  C   UNL     1      -1.925   2.500  -4.785  0.00  0.00    +0.044 C 
ATOM     21  C   UNL     1      -1.120   2.307  -3.526  0.00  0.00    -0.047 A 
ATOM     22  C   UNL     1       0.104   1.657  -3.587  0.00  0.00    +0.004 A 
ATOM     23  C   UNL     1       0.849   1.473  -2.455  0.00  0.00    +0.012 A 
ATOM     24  C   UNL     1       0.372   1.943  -1.228  0.00  0.00    +0.022 A 
ATOM     25  C   UNL     1       1.146   1.761   0.004  0.00  0.00    -0.012 A 
ATOM     26  C   UNL     1       0.628   2.240   1.163  0.00  0.00    +0.098 A 
ATOM     27  C   UNL     1      -0.626   2.888   1.156  0.00  0.00    +0.338 A 
ATOM     28  O   UNL     1      -1.083   3.309   2.204  0.00  0.00    -0.245 OA
ATOM     29  O   UNL     1      -1.327   3.056   0.024  0.00  0.00    -0.422 OA
ATOM     30  C   UNL     1      -0.868   2.602  -1.162  0.00  0.00    +0.140 A 
ATOM     31  C   UNL     1      -1.608   2.778  -2.325  0.00  0.00    +0.050 A 
ENDBRANCH  19  25
ENDBRANCH   1  19
TORSDOF 3
