REMARK  Name = ZINC44560134
REMARK  10 active torsions:
REMARK  status: ('A' for Active; 'I' for Inactive)
REMARK    1  A    between atoms: C_1  and  C_2
REMARK    2  A    between atoms: C_2  and  C_4
REMARK    3  A    between atoms: C_2  and  C_14
REMARK    4  A    between atoms: C_7  and  C_10
REMARK    5  A    between atoms: C_10  and  C_11
REMARK    6  A    between atoms: C_11  and  C_12
REMARK    7  A    between atoms: C_11  and  C_13
REMARK    8  A    between atoms: C_14  and  O_16
REMARK    9  A    between atoms: O_16  and  C_17
REMARK   10  A    between atoms: C_31  and  C_38
REMARK                            x       y       z     vdW  Elec       q    Type
REMARK                         _______ _______ _______ _____ _____    ______ ____
ROOT
ATOM      1  C   UNL     1       0.736  -0.491  -3.686  0.00  0.00    +0.132 A 
ATOM      2  C   UNL     1       1.847  -1.318  -3.603  0.00  0.00    +0.046 A 
ATOM      3  C   UNL     1       2.486  -1.720  -4.757  0.00  0.00    +0.008 A 
ATOM      4  C   UNL     1       2.030  -1.303  -6.000  0.00  0.00    -0.041 A 
ATOM      5  C   UNL     1       0.932  -0.473  -6.086  0.00  0.00    -0.040 A 
ATOM      6  C   UNL     1       0.281  -0.077  -4.926  0.00  0.00    +0.050 A 
ATOM      7  C   UNL     1       0.399   0.043  -7.397  0.00  0.00    +0.036 C 
ATOM      8  C   UNL     1       0.953  -0.758  -8.574  0.00  0.00    +0.009 C 
ATOM      9  C   UNL     1       2.470  -0.862  -8.412  0.00  0.00    +0.001 C 
ATOM     10  C   UNL     1       2.755  -1.787  -7.222  0.00  0.00    +0.023 C 
ATOM     11  C   UNL     1       4.250  -1.935  -6.976  0.00  0.00    +0.009 C 
ATOM     12  C   UNL     1       4.960  -2.439  -8.247  0.00  0.00    +0.015 C 
ATOM     13  C   UNL     1       4.654  -1.463  -9.363  0.00  0.00    +0.029 C 
ATOM     14  C   UNL     1       3.124  -1.479  -9.632  0.00  0.00    +0.006 C 
ATOM     15  C   UNL     1       3.034  -0.659 -10.925  0.00  0.00    +0.012 C 
ATOM     16  C   UNL     1       4.260  -1.169 -11.732  0.00  0.00    +0.075 C 
ATOM     17  C   UNL     1       5.248  -1.752 -10.709  0.00  0.00    +0.139 C 
ATOM     18  O   UNL     1       6.297  -2.305 -10.938  0.00  0.00    -0.297 OA
ATOM     19  C   UNL     1       5.053  -0.052  -8.926  0.00  0.00    +0.019 C 
ENDROOT
BRANCH   1  20
ATOM     20  O   UNL     1       0.095  -0.094  -2.555  0.00  0.00    -0.425 OA
BRANCH  20  21
ATOM     21  C   UNL     1       0.663   0.871  -1.814  0.00  0.00    +0.320 C 
ATOM     22  O   UNL     1       1.755   1.295  -2.109  0.00  0.00    -0.250 OA
BRANCH  21  24
ATOM     23  C   UNL     1      -1.392   2.034  -1.058  0.00  0.00    +0.024 C 
ATOM     24  C   UNL     1      -0.061   1.424  -0.614  0.00  0.00    +0.125 C 
BRANCH  24  25
ATOM     25  C   UNL     1       0.786   2.486   0.039  0.00  0.00    -0.034 A 
ATOM     26  C   UNL     1       1.151   3.613  -0.674  0.00  0.00    +0.005 A 
ATOM     27  C   UNL     1       1.928   4.587  -0.075  0.00  0.00    +0.004 A 
ATOM     28  C   UNL     1       2.339   4.434   1.236  0.00  0.00    -0.047 A 
ATOM     29  C   UNL     1       1.973   3.308   1.948  0.00  0.00    +0.004 A 
ATOM     30  C   UNL     1       1.192   2.336   1.351  0.00  0.00    +0.005 A 
BRANCH  28  31
ATOM     31  C   UNL     1       3.187   5.496   1.888  0.00  0.00    +0.038 C 
BRANCH  31  32
ATOM     32  C   UNL     1       2.282   6.529   2.561  0.00  0.00    -0.013 C 
ATOM     33  C   UNL     1       1.513   5.866   3.705  0.00  0.00    +0.007 C 
ATOM     34  C   UNL     1       3.136   7.672   3.115  0.00  0.00    +0.007 C 
ENDBRANCH  31  32
ENDBRANCH  28  31
ENDBRANCH  24  25
ENDBRANCH  21  24
ENDBRANCH  20  21
ENDBRANCH   1  20
TORSDOF 6
