REMARK  Name = ZINC23471620
REMARK  13 active torsions:
REMARK  status: ('A' for Active; 'I' for Inactive)
REMARK    1  A    between atoms: C_1  and  C_2
REMARK    2  A    between atoms: C_5  and  N_9
REMARK    3  A    between atoms: C_6  and  C_8
REMARK    4  A    between atoms: C_10  and  C_12
REMARK    5  A    between atoms: C_12  and  O_13
REMARK    6  A    between atoms: O_13  and  C_14
REMARK    7  A    between atoms: C_14  and  C_16
REMARK    8  A    between atoms: C_16  and  C_18
REMARK    9  A    between atoms: C_16  and  N_22
REMARK   10  A    between atoms: C_18  and  C_20
REMARK   11  A    between atoms: C_18  and  O_21
REMARK   12  A    between atoms: N_22  and  S_23
REMARK   13  A    between atoms: S_23  and  C_26
REMARK                            x       y       z     vdW  Elec       q    Type
REMARK                         _______ _______ _______ _____ _____    ______ ____
ROOT
ATOM      1  C   UNL     1      -2.189   1.048   1.264  0.00  0.00    +0.213 C 
ENDROOT
BRANCH   1   2
ATOM      2  C   UNL     1      -2.168  -0.455   1.380  0.00  0.00    +0.329 C 
ATOM      3  O   UNL     1      -2.708  -0.996   2.316  0.00  0.00    -0.249 OA
BRANCH   2   4
ATOM      4  O   UNL     1      -1.548  -1.191   0.445  0.00  0.00    -0.454 OA
BRANCH   4   5
ATOM      5  C   UNL     1      -1.567  -2.632   0.621  0.00  0.00    +0.328 C 
BRANCH   5   7
ATOM      6  N   UNL     1      -0.717  -4.630  -0.564  0.00  0.00    -0.282 N 
ATOM      7  C   UNL     1      -0.829  -3.288  -0.517  0.00  0.00    +0.255 C 
ATOM      8  O   UNL     1      -0.335  -2.607  -1.391  0.00  0.00    -0.272 OA
ATOM      9  H   UNL     1      -1.084  -5.242   0.273  0.00  0.00    +0.155 HD
BRANCH   6  14
ATOM     10  C   UNL     1       1.650  -7.124  -5.077  0.00  0.00    +0.044 C 
ATOM     11  C   UNL     1       1.021  -6.461  -3.878  0.00  0.00    -0.050 A 
ATOM     12  C   UNL     1       0.439  -5.213  -4.005  0.00  0.00    +0.005 A 
ATOM     13  C   UNL     1      -0.138  -4.604  -2.909  0.00  0.00    +0.024 A 
ATOM     14  C   UNL     1      -0.133  -5.245  -1.677  0.00  0.00    +0.036 A 
ATOM     15  C   UNL     1       0.457  -6.496  -1.551  0.00  0.00    -0.029 A 
ATOM     16  C   UNL     1       1.028  -7.103  -2.653  0.00  0.00    +0.008 A 
ATOM     17  C   UNL     1       0.470  -7.193  -0.215  0.00  0.00    +0.045 C 
ENDBRANCH   6  14
ENDBRANCH   5   7
ENDBRANCH   4   5
ENDBRANCH   2   4
ENDBRANCH   1   2
BRANCH   1  18
ATOM     18  C   UNL     1      -0.755   1.580   1.264  0.00  0.00    +0.141 C 
ATOM     19  C   UNL     1      -0.028   1.087   0.011  0.00  0.00    +0.040 C 
BRANCH  18  20
ATOM     20  O   UNL     1      -0.072   1.108   2.427  0.00  0.00    -0.390 OA
ATOM     21  H   UNL     1       0.977   1.389   2.601  0.00  0.00    +0.210 HD
ENDBRANCH  18  20
ENDBRANCH   1  18
BRANCH   1  22
ATOM     22  N   UNL     1      -2.921   1.615   2.399  0.00  0.00    -0.174 NA
ATOM     23  H   UNL     1      -2.992   1.054   3.343  0.00  0.00    +0.149 HD
BRANCH  22  24
ATOM     24  S   UNL     1      -3.845   2.974   2.194  0.00  0.00    +0.059 S 
ATOM     25  O   UNL     1      -4.439   3.255   3.453  0.00  0.00    -0.153 OA
ATOM     26  O   UNL     1      -3.034   3.916   1.506  0.00  0.00    -0.153 OA
BRANCH  24  27
ATOM     27  C   UNL     1      -5.160   2.549   1.100  0.00  0.00    +0.107 A 
ATOM     28  C   UNL     1      -5.002   2.705  -0.264  0.00  0.00    +0.030 A 
ATOM     29  C   UNL     1      -6.030   2.367  -1.123  0.00  0.00    +0.023 A 
ATOM     30  C   UNL     1      -7.223   1.882  -0.617  0.00  0.00    +0.059 A 
ATOM     31  C   UNL     1      -7.383   1.730   0.749  0.00  0.00    +0.061 A 
ATOM     32  C   UNL     1      -6.351   2.064   1.607  0.00  0.00    +0.050 A 
ATOM     33 CL   UNL     1      -8.879   1.121   1.386  0.00  0.00    -0.082 Cl
ATOM     34 CL   UNL     1      -8.517   1.463  -1.696  0.00  0.00    -0.082 Cl
ENDBRANCH  24  27
ENDBRANCH  22  24
ENDBRANCH   1  22
TORSDOF 10
