REMARK  Name = ZINC01005575
REMARK  3 active torsions:
REMARK  status: ('A' for Active; 'I' for Inactive)
REMARK    1  A    between atoms: C_9  and  C_12
REMARK    2  A    between atoms: N_14  and  N_15
REMARK    3  A    between atoms: C_16  and  C_17
REMARK                            x       y       z     vdW  Elec       q    Type
REMARK                         _______ _______ _______ _____ _____    ______ ____
ROOT
ATOM      1  C   UNL     1      12.014   2.920  -0.093  0.00  0.00    +0.016 A 
ATOM      2  C   UNL     1      10.852   3.623  -0.079  0.00  0.00    +0.011 A 
ATOM      3  C   UNL     1       9.600   2.957  -0.072  0.00  0.00    +0.008 A 
ATOM      4  C   UNL     1       9.640   1.542  -0.080  0.00  0.00    +0.023 A 
ATOM      5  C   UNL     1      10.826   0.841  -0.094  0.00  0.00    +0.031 A 
ATOM      6  C   UNL     1      12.024   1.530  -0.101  0.00  0.00    +0.019 A 
ATOM      7 BR   UNL     1      13.664   0.590  -0.120  0.00  0.00    -0.050 Br
ATOM      8  S   UNL     1       7.926   1.079  -0.067  0.00  0.00    -0.082 S 
ATOM      9  C   UNL     1       7.216   2.716  -0.051  0.00  0.00    +0.095 A 
ATOM     10  C   UNL     1       8.311   3.523  -0.063  0.00  0.00    +0.068 A 
ATOM     11 CL   UNL     1       8.120   5.249  -0.061  0.00  0.00    -0.082 Cl
ENDROOT
BRANCH   9  12
ATOM     12  C   UNL     1       5.799   3.097  -0.036  0.00  0.00    +0.271 C 
ATOM     13  O   UNL     1       5.485   4.273  -0.027  0.00  0.00    -0.268 OA
ATOM     14  N   UNL     1       4.845   2.145  -0.032  0.00  0.00    -0.202 N 
ATOM     15  H   UNL     1       5.094   1.208  -0.039  0.00  0.00    +0.178 HD
BRANCH  14  16
ATOM     16  N   UNL     1       3.492   2.509  -0.017  0.00  0.00    -0.187 NA
ATOM     17  C   UNL     1       2.573   1.593  -0.013  0.00  0.00    +0.141 C 
BRANCH  17  18
ATOM     18  C   UNL     1       1.149   1.976   0.002  0.00  0.00    +0.032 A 
ATOM     19  C   UNL     1      -0.013   1.076   0.008  0.00  0.00    +0.050 A 
ATOM     20  C   UNL     1      -1.096   1.869   0.017  0.00  0.00    +0.195 A 
ATOM     21  O   UNL     1      -0.701   3.151   0.025  0.00  0.00    -0.470 OA
ATOM     22  C   UNL     1       0.636   3.238   0.013  0.00  0.00    +0.204 A 
ENDBRANCH  17  18
ENDBRANCH  14  16
ENDBRANCH   9  12
TORSDOF 3
