REMARK  Name = ZINC03072523
REMARK  10 active torsions:
REMARK  status: ('A' for Active; 'I' for Inactive)
REMARK    1  A    between atoms: C_1  and  C_2
REMARK    2  A    between atoms: C_6  and  C_25
REMARK    3  A    between atoms: C_7  and  O_8
REMARK    4  A    between atoms: O_8  and  C_9
REMARK    5  A    between atoms: C_9  and  C_10
REMARK    6  A    between atoms: N_12  and  N_13
REMARK    7  A    between atoms: C_14  and  C_15
REMARK    8  A    between atoms: C_17  and  O_23
REMARK    9  A    between atoms: C_18  and  O_22
REMARK   10  A    between atoms: O_23  and  C_24
REMARK                            x       y       z     vdW  Elec       q    Type
REMARK                         _______ _______ _______ _____ _____    ______ ____
ROOT
ATOM      1  C   UNL     1      -1.049   1.011   4.253  0.00  0.00    +0.270 C 
ATOM      2  O   UNL     1       0.073   1.256   4.646  0.00  0.00    -0.270 OA
ATOM      3  N   UNL     1      -2.116   1.402   4.977  0.00  0.00    -0.204 N 
ATOM      4  H   UNL     1      -3.013   1.206   4.663  0.00  0.00    +0.177 HD
ENDROOT
BRANCH   3   5
ATOM      5  N   UNL     1      -1.931   2.091   6.183  0.00  0.00    -0.188 NA
ATOM      6  C   UNL     1      -2.959   2.468   6.880  0.00  0.00    +0.138 C 
BRANCH   6   7
ATOM      7  C   UNL     1      -2.765   3.193   8.148  0.00  0.00    -0.001 A 
ATOM      8  C   UNL     1      -3.870   3.594   8.903  0.00  0.00    +0.059 A 
ATOM      9  C   UNL     1      -3.683   4.273  10.092  0.00  0.00    +0.163 A 
ATOM     10  C   UNL     1      -2.393   4.558  10.536  0.00  0.00    +0.173 A 
ATOM     11  C   UNL     1      -1.294   4.160   9.787  0.00  0.00    +0.063 A 
ATOM     12  C   UNL     1      -1.474   3.475   8.602  0.00  0.00    +0.028 A 
ATOM     13 BR   UNL     1       0.453   4.549  10.396  0.00  0.00    -0.046 Br
BRANCH  10  14
ATOM     14  O   UNL     1      -2.210   5.227  11.705  0.00  0.00    -0.503 OA
ATOM     15  H   UNL     1      -2.139   4.653  12.480  0.00  0.00    +0.292 HD
ENDBRANCH  10  14
BRANCH   9  16
ATOM     16  O   UNL     1      -4.757   4.665  10.828  0.00  0.00    -0.491 OA
ATOM     17  C   UNL     1      -6.050   4.340  10.313  0.00  0.00    +0.277 C 
ENDBRANCH   9  16
ENDBRANCH   6   7
ENDBRANCH   3   5
BRANCH   1  18
ATOM     18  C   UNL     1      -1.248   0.270   2.957  0.00  0.00    +0.326 C 
BRANCH  18  19
ATOM     19  O   UNL     1       0.025  -0.033   2.381  0.00  0.00    -0.482 OA
BRANCH  19  26
ATOM     20  C   UNL     1      -0.018   1.503   0.010  0.00  0.00    +0.047 C 
ATOM     21  C   UNL     1       0.002  -0.004   0.002  0.00  0.00    -0.007 A 
ATOM     22  C   UNL     1       0.006  -0.689  -1.198  0.00  0.00    +0.022 A 
ATOM     23  C   UNL     1       0.025  -2.072  -1.206  0.00  0.00    +0.019 A 
ATOM     24  C   UNL     1       0.040  -2.772  -0.013  0.00  0.00    +0.022 A 
ATOM     25  C   UNL     1       0.036  -2.092   1.189  0.00  0.00    -0.007 A 
ATOM     26  C   UNL     1       0.023  -0.705   1.199  0.00  0.00    +0.127 A 
ATOM     27  C   UNL     1       0.053  -2.855   2.488  0.00  0.00    +0.047 C 
ATOM     28 BR   UNL     1       0.029  -3.006  -2.850  0.00  0.00    -0.050 Br
ENDBRANCH  19  26
ENDBRANCH  18  19
ENDBRANCH   1  18
TORSDOF 7
