REMARK  Name = ZINC02254398
REMARK  12 active torsions:
REMARK  status: ('A' for Active; 'I' for Inactive)
REMARK    1  A    between atoms: C_1  and  C_2
REMARK    2  A    between atoms: C_2  and  N_57
REMARK    3  A    between atoms: C_3  and  C_4
REMARK    4  A    between atoms: C_3  and  N_57
REMARK    5  A    between atoms: C_5  and  C_6
REMARK    6  A    between atoms: C_5  and  N_57
REMARK    7  A    between atoms: C_6  and  C_7
REMARK    8  A    between atoms: C_7  and  N_8
REMARK    9  A    between atoms: C_9  and  C_31
REMARK   10  A    between atoms: C_15  and  C_23
REMARK   11  A    between atoms: C_17  and  C_21
REMARK   12  A    between atoms: C_18  and  N_20
REMARK                            x       y       z     vdW  Elec       q    Type
REMARK                         _______ _______ _______ _____ _____    ______ ____
ROOT
ATOM      1  N   UNL     1      -0.994  -2.046   1.337  0.00  0.00    -0.312 N 
ATOM      2  C   UNL     1      -0.654  -2.526   2.562  0.00  0.00    +0.022 A 
ATOM      3  C   UNL     1      -0.521  -3.853   2.775  0.00  0.00    +0.068 A 
ATOM      4  C   UNL     1      -0.738  -4.757   1.714  0.00  0.00    +0.141 A 
ATOM      5  C   UNL     1      -1.083  -4.262   0.474  0.00  0.00    +0.072 A 
ATOM      6  C   UNL     1      -1.214  -2.878   0.302  0.00  0.00    +0.259 A 
ATOM      7  O   UNL     1      -1.524  -2.426  -0.789  0.00  0.00    -0.267 OA
ATOM      8  C   UNL     1      -1.324  -5.190  -0.684  0.00  0.00    +0.105 C 
ATOM      9  C   UNL     1      -1.525  -6.595  -0.189  0.00  0.00    +0.098 C 
ATOM     10  C   UNL     1      -1.162  -6.957   1.064  0.00  0.00    +0.199 C 
ATOM     11  O   UNL     1      -0.606  -6.084   1.923  0.00  0.00    -0.441 OA
ATOM     12  C   UNL     1      -0.422  -1.565   3.699  0.00  0.00    +0.064 C 
ENDROOT
BRANCH   8  13
ATOM     13  C   UNL     1      -0.135  -5.152  -1.610  0.00  0.00    -0.016 A 
ATOM     14  C   UNL     1       1.113  -5.528  -1.147  0.00  0.00    +0.007 A 
ATOM     15  C   UNL     1       2.204  -5.494  -1.995  0.00  0.00    +0.020 A 
ATOM     16  C   UNL     1       2.048  -5.084  -3.308  0.00  0.00    +0.042 A 
ATOM     17  C   UNL     1       0.800  -4.708  -3.771  0.00  0.00    +0.040 A 
ATOM     18  C   UNL     1      -0.293  -4.748  -2.923  0.00  0.00    +0.046 A 
ATOM     19 CL   UNL     1      -1.861  -4.284  -3.506  0.00  0.00    -0.083 Cl
ATOM     20 CL   UNL     1       3.418  -5.042  -4.373  0.00  0.00    -0.083 Cl
ENDBRANCH   8  13
BRANCH  10  21
ATOM     21  N   UNL     1      -1.366  -8.252   1.470  0.00  0.00    -0.328 N 
ATOM     22  H   UNL     1      -1.110  -8.527   2.364  0.00  0.00    +0.145 HD
ATOM     23  H   UNL     1      -1.765  -8.893   0.861  0.00  0.00    +0.145 HD
ENDBRANCH  10  21
BRANCH   9  24
ATOM     24  C   UNL     1      -2.113  -7.569  -1.058  0.00  0.00    +0.101 C 
ATOM     25  N   UNL     1      -2.580  -8.342  -1.748  0.00  0.00    -0.191 NA
ENDBRANCH   9  24
BRANCH   1  26
ATOM     26  C   UNL     1      -1.130  -0.601   1.142  0.00  0.00    +0.123 C 
BRANCH  26  27
ATOM     27  C   UNL     1       0.219  -0.014   0.719  0.00  0.00    +0.003 C 
BRANCH  27  28
ATOM     28  C   UNL     1       0.077   1.495   0.514  0.00  0.00    -0.077 C 
BRANCH  28  29
ATOM     29  N   UNL     1       1.391   2.049   0.127  0.00  0.00    +0.379 N 
ATOM     30  H   UNL     1       2.097   1.739   0.805  0.00  0.00    -0.082 HD
BRANCH  29  32
ATOM     31  C   UNL     1       0.726   1.984  -2.253  0.00  0.00    -0.017 C 
ATOM     32  C   UNL     1       1.769   1.562  -1.217  0.00  0.00    -0.082 C 
ENDBRANCH  29  32
BRANCH  29  33
ATOM     33  C   UNL     1       1.338   3.526   0.132  0.00  0.00    -0.082 C 
ATOM     34  C   UNL     1       2.768   4.070   0.092  0.00  0.00    -0.017 C 
ENDBRANCH  29  33
ENDBRANCH  28  29
ENDBRANCH  27  28
ENDBRANCH  26  27
ENDBRANCH   1  26
TORSDOF 9
