REMARK  Name = ZINC58160024
REMARK  13 active torsions:
REMARK  status: ('A' for Active; 'I' for Inactive)
REMARK    1  A    between atoms: C_1  and  C_2
REMARK    2  A    between atoms: C_2  and  O_3
REMARK    3  A    between atoms: O_3  and  C_4
REMARK    4  A    between atoms: C_4  and  C_6
REMARK    5  A    between atoms: C_7  and  C_35
REMARK    6  A    between atoms: C_11  and  C_15
REMARK    7  A    between atoms: N_16  and  C_17
REMARK    8  A    between atoms: C_17  and  C_19
REMARK    9  A    between atoms: C_17  and  C_29
REMARK   10  A    between atoms: C_19  and  N_20
REMARK   11  A    between atoms: N_20  and  C_21
REMARK   12  A    between atoms: N_20  and  C_22
REMARK   13  A    between atoms: N_25  and  C_28
REMARK                            x       y       z     vdW  Elec       q    Type
REMARK                         _______ _______ _______ _____ _____    ______ ____
ROOT
ATOM      1  C   UNL     1      -2.958  -2.449  -0.812  0.00  0.00    +0.102 A 
ATOM      2  C   UNL     1      -3.223  -3.719  -0.398  0.00  0.00    -0.017 A 
ATOM      3  C   UNL     1      -4.498  -4.044   0.082  0.00  0.00    +0.051 A 
ATOM      4  C   UNL     1      -4.991  -5.295   0.561  0.00  0.00    +0.131 A 
ATOM      5  N   UNL     1      -6.245  -5.380   0.972  0.00  0.00    -0.217 NA
ATOM      6  C   UNL     1      -7.064  -4.343   0.955  0.00  0.00    +0.129 A 
ATOM      7  N   UNL     1      -6.670  -3.160   0.524  0.00  0.00    -0.225 NA
ATOM      8  C   UNL     1      -5.437  -2.983   0.096  0.00  0.00    +0.115 A 
ATOM      9  S   UNL     1      -4.511  -1.611  -0.542  0.00  0.00    -0.062 S 
ATOM     10  C   UNL     1      -8.481  -4.516   1.438  0.00  0.00    +0.088 C 
ATOM     11  N   UNL     1      -4.169  -6.403   0.595  0.00  0.00    -0.320 N 
ATOM     12  C   UNL     1      -2.147  -4.773  -0.458  0.00  0.00    +0.046 C 
ATOM     13  H   UNL     1      -3.228  -6.316   0.378  0.00  0.00    +0.148 HD
ENDROOT
BRANCH   1  14
ATOM     14  C   UNL     1      -1.705  -1.903  -1.343  0.00  0.00    +0.346 C 
ATOM     15  O   UNL     1      -0.732  -2.621  -1.462  0.00  0.00    -0.244 OA
BRANCH  14  16
ATOM     16  O   UNL     1      -1.633  -0.604  -1.698  0.00  0.00    -0.461 OA
BRANCH  16  18
ATOM     17  C   UNL     1      -0.491   1.347  -2.553  0.00  0.00    +0.048 C 
ATOM     18  C   UNL     1      -0.381  -0.139  -2.207  0.00  0.00    +0.229 C 
ENDBRANCH  16  18
ENDBRANCH  14  16
ENDBRANCH   1  14
BRANCH  11  19
ATOM     19  C   UNL     1      -4.718  -7.712   0.959  0.00  0.00    +0.116 C 
BRANCH  19  20
ATOM     20  C   UNL     1      -4.774  -7.833   2.460  0.00  0.00    -0.026 A 
ATOM     21  C   UNL     1      -3.740  -7.338   3.232  0.00  0.00    +0.005 A 
ATOM     22  C   UNL     1      -3.791  -7.450   4.609  0.00  0.00    +0.000 A 
ATOM     23  C   UNL     1      -4.876  -8.056   5.214  0.00  0.00    +0.000 A 
ATOM     24  C   UNL     1      -5.911  -8.550   4.441  0.00  0.00    +0.000 A 
ATOM     25  C   UNL     1      -5.862  -8.434   3.065  0.00  0.00    +0.005 A 
ENDBRANCH  19  20
BRANCH  19  26
ATOM     26  C   UNL     1      -3.824  -8.816   0.391  0.00  0.00    +0.111 C 
BRANCH  26  27
ATOM     27  N   UNL     1      -4.445 -10.124   0.636  0.00  0.00    -0.300 NA
ATOM     28  C   UNL     1      -5.560 -10.360  -0.291  0.00  0.00    +0.105 C 
BRANCH  27  29
ATOM     29  C   UNL     1      -3.452 -11.203   0.551  0.00  0.00    +0.053 C 
ATOM     30  C   UNL     1      -2.923 -11.300  -0.883  0.00  0.00    +0.000 C 
ATOM     31  C   UNL     1      -1.949 -12.476  -0.983  0.00  0.00    -0.078 C 
ATOM     32  N   UNL     1      -2.642 -13.721  -0.630  0.00  0.00    +0.378 N 
ATOM     33  C   UNL     1      -3.089 -13.664   0.766  0.00  0.00    -0.078 C 
ATOM     34  C   UNL     1      -4.107 -12.533   0.934  0.00  0.00    +0.000 C 
ATOM     35  C   UNL     1      -1.724 -14.855  -0.803  0.00  0.00    -0.096 C 
ATOM     36  H   UNL     1      -3.441 -13.842  -1.234  0.00  0.00    -0.082 HD
ENDBRANCH  27  29
ENDBRANCH  26  27
ENDBRANCH  19  26
ENDBRANCH  11  19
TORSDOF 8
