REMARK  Name = ZINC33810338
REMARK  12 active torsions:
REMARK  status: ('A' for Active; 'I' for Inactive)
REMARK    1  A    between atoms: C_1  and  C_2
REMARK    2  A    between atoms: C_2  and  C_35
REMARK    3  A    between atoms: C_6  and  C_20
REMARK    4  A    between atoms: C_11  and  S_15
REMARK    5  A    between atoms: S_15  and  C_16
REMARK    6  A    between atoms: C_16  and  C_17
REMARK    7  A    between atoms: C_22  and  O_30
REMARK    8  A    between atoms: C_23  and  O_28
REMARK    9  A    between atoms: C_24  and  O_26
REMARK   10  A    between atoms: O_26  and  C_27
REMARK   11  A    between atoms: O_28  and  C_29
REMARK   12  A    between atoms: O_30  and  C_31
REMARK                            x       y       z     vdW  Elec       q    Type
REMARK                         _______ _______ _______ _____ _____    ______ ____
ROOT
ATOM      1  C   UNL     1       3.764  -4.885   0.967  0.00  0.00    +0.011 C 
ATOM      2  C   UNL     1       3.500  -4.917  -0.540  0.00  0.00    -0.023 C 
ATOM      3  C   UNL     1       2.206  -4.162  -0.852  0.00  0.00    +0.058 C 
ATOM      4  C   UNL     1       2.347  -2.720  -0.428  0.00  0.00    +0.017 C 
ATOM      5  C   UNL     1       3.547  -2.103  -0.452  0.00  0.00    +0.024 C 
ATOM      6  C   UNL     1       3.687  -0.663  -0.025  0.00  0.00    +0.093 C 
ATOM      7  C   UNL     1       2.358   0.034  -0.016  0.00  0.00    +0.069 A 
ATOM      8  C   UNL     1       1.197  -0.674  -0.011  0.00  0.00    +0.135 A 
ATOM      9  N   UNL     1       0.002  -0.004   0.002  0.00  0.00    -0.208 NA
ATOM     10  C   UNL     1      -0.016   1.358   0.009  0.00  0.00    +0.171 A 
ATOM     11  N   UNL     1       1.101   2.055   0.003  0.00  0.00    -0.302 N 
ATOM     12  C   UNL     1       2.296   1.444  -0.012  0.00  0.00    +0.258 A 
ATOM     13  O   UNL     1       3.324   2.105  -0.020  0.00  0.00    -0.267 OA
ATOM     14  N   UNL     1       1.225  -2.050  -0.022  0.00  0.00    -0.302 N 
ATOM     15  C   UNL     1       4.704  -2.784  -0.869  0.00  0.00    +0.162 C 
ATOM     16  O   UNL     1       5.765  -2.193  -0.898  0.00  0.00    -0.292 OA
ATOM     17  C   UNL     1       4.652  -4.230  -1.280  0.00  0.00    +0.086 C 
ATOM     18  C   UNL     1       3.374  -6.368  -1.010  0.00  0.00    +0.011 C 
ATOM     19  H   UNL     1       0.335  -2.610   0.299  0.00  0.00    +0.153 HD
ATOM     20  H   UNL     1       1.064   3.154   0.009  0.00  0.00    +0.171 HD
ENDROOT
BRANCH   6  21
ATOM     21  C   UNL     1       4.277  -0.615   1.361  0.00  0.00    -0.028 A 
ATOM     22  C   UNL     1       3.613  -1.215   2.415  0.00  0.00    +0.054 A 
ATOM     23  C   UNL     1       4.156  -1.177   3.690  0.00  0.00    +0.165 A 
ATOM     24  C   UNL     1       5.364  -0.526   3.910  0.00  0.00    +0.204 A 
ATOM     25  C   UNL     1       6.026   0.081   2.849  0.00  0.00    +0.165 A 
ATOM     26  C   UNL     1       5.479   0.034   1.576  0.00  0.00    +0.054 A 
BRANCH  25  27
ATOM     27  O   UNL     1       7.208   0.719   3.059  0.00  0.00    -0.491 OA
ATOM     28  C   UNL     1       7.832   1.320   1.923  0.00  0.00    +0.277 C 
ENDBRANCH  25  27
BRANCH  24  29
ATOM     29  O   UNL     1       5.897  -0.482   5.162  0.00  0.00    -0.488 OA
ATOM     30  C   UNL     1       5.525   0.623   5.987  0.00  0.00    +0.277 C 
ENDBRANCH  24  29
BRANCH  23  31
ATOM     31  O   UNL     1       3.505  -1.772   4.725  0.00  0.00    -0.491 OA
ATOM     32  C   UNL     1       2.268  -2.423   4.425  0.00  0.00    +0.277 C 
ENDBRANCH  23  31
ENDBRANCH   6  21
BRANCH  10  33
ATOM     33  S   UNL     1      -1.563   2.203   0.021  0.00  0.00    -0.084 S 
BRANCH  33  34
ATOM     34  C   UNL     1      -0.984   3.918   0.028  0.00  0.00    +0.104 C 
BRANCH  34  35
ATOM     35  C   UNL     1      -2.170   4.848   0.039  0.00  0.00    -0.023 C 
ATOM     36  C   UNL     1      -2.384   5.624   1.072  0.00  0.00    +0.005 C 
ENDBRANCH  34  35
ENDBRANCH  33  34
ENDBRANCH  10  33
TORSDOF 7
