REMARK  Name = ZINC20601573
REMARK  13 active torsions:
REMARK  status: ('A' for Active; 'I' for Inactive)
REMARK    1  A    between atoms: C_1  and  C_2
REMARK    2  A    between atoms: C_3  and  C_33
REMARK    3  A    between atoms: C_4  and  O_31
REMARK    4  A    between atoms: C_7  and  C_8
REMARK    5  A    between atoms: C_8  and  N_9
REMARK    6  A    between atoms: N_9  and  C_10
REMARK    7  A    between atoms: C_13  and  C_25
REMARK    8  A    between atoms: N_15  and  C_17
REMARK    9  A    between atoms: C_17  and  C_18
REMARK   10  A    between atoms: N_27  and  C_28
REMARK   11  A    between atoms: C_28  and  C_29
REMARK   12  A    between atoms: C_28  and  C_30
REMARK   13  A    between atoms: O_31  and  C_32
REMARK                            x       y       z     vdW  Elec       q    Type
REMARK                         _______ _______ _______ _____ _____    ______ ____
ROOT
ATOM      1  C   UNL     1       1.683   3.840   3.627  0.00  0.00    -0.055 C 
ATOM      2  C   UNL     1       0.139   3.848   3.551  0.00  0.00    +0.014 C 
ATOM      3  C   UNL     1      -0.138   3.481   2.072  0.00  0.00    +0.142 C 
ATOM      4  N   UNL     1       0.947   4.184   1.339  0.00  0.00    -0.289 NA
ATOM      5  C   UNL     1       2.158   4.040   2.176  0.00  0.00    +0.070 C 
ENDROOT
BRANCH   3   6
ATOM      6  C   UNL     1      -1.488   3.992   1.640  0.00  0.00    +0.230 C 
ATOM      7  O   UNL     1      -1.567   4.863   0.800  0.00  0.00    -0.274 OA
ATOM      8  N   UNL     1      -2.608   3.481   2.189  0.00  0.00    -0.312 N 
ATOM      9  H   UNL     1      -2.537   2.691   2.951  0.00  0.00    +0.149 HD
BRANCH   8  10
ATOM     10  C   UNL     1      -3.921   3.977   1.769  0.00  0.00    +0.067 C 
ATOM     11  C   UNL     1      -4.977   2.898   2.016  0.00  0.00    +0.027 C 
ATOM     12  C   UNL     1      -4.274   5.229   2.575  0.00  0.00    +0.027 C 
ENDBRANCH   8  10
ENDBRANCH   3   6
BRANCH   1  13
ATOM     13  N   UNL     1       2.158   4.941   4.476  0.00  0.00    +0.384 N 
ATOM     14  H   UNL     1       1.462   5.061   5.319  0.00  0.00    -0.085 HD
ATOM     15  H   UNL     1       2.173   5.865   3.879  0.00  0.00    -0.085 HD
BRANCH  13  16
ATOM     16  C   UNL     1       3.506   4.666   4.989  0.00  0.00    -0.046 C 
BRANCH  16  23
ATOM     17  C   UNL     1       2.577   4.873   7.715  0.00  0.00    +0.044 C 
ATOM     18  C   UNL     1       3.514   5.914   7.158  0.00  0.00    -0.043 A 
ATOM     19  C   UNL     1       3.932   6.963   7.954  0.00  0.00    -0.006 A 
ATOM     20  C   UNL     1       4.790   7.924   7.439  0.00  0.00    +0.123 A 
ATOM     21  C   UNL     1       5.231   7.825   6.127  0.00  0.00    +0.046 A 
ATOM     22  C   UNL     1       4.814   6.772   5.337  0.00  0.00    +0.005 A 
ATOM     23  C   UNL     1       3.959   5.815   5.853  0.00  0.00    -0.061 A 
ATOM     24  C   UNL     1       3.450   7.068   9.378  0.00  0.00    +0.048 C 
BRANCH  20  25
ATOM     25  O   UNL     1       5.198   8.960   8.218  0.00  0.00    -0.495 OA
ATOM     26  C   UNL     1       6.082   9.911   7.622  0.00  0.00    +0.277 C 
ENDBRANCH  20  25
ENDBRANCH  16  23
ENDBRANCH  13  16
ENDBRANCH   1  13
BRANCH   4  27
ATOM     27  C   UNL     1       1.153   3.594   0.010  0.00  0.00    +0.121 C 
BRANCH  27  28
ATOM     28  C   UNL     1      -0.121   3.700  -0.789  0.00  0.00    -0.015 A 
ATOM     29  C   UNL     1      -0.975   2.617  -0.877  0.00  0.00    +0.006 A 
ATOM     30  C   UNL     1      -2.142   2.715  -1.610  0.00  0.00    +0.000 A 
ATOM     31  C   UNL     1      -2.457   3.896  -2.257  0.00  0.00    +0.001 A 
ATOM     32  C   UNL     1      -1.603   4.979  -2.170  0.00  0.00    +0.020 A 
ATOM     33  C   UNL     1      -0.434   4.882  -1.436  0.00  0.00    +0.045 A 
ATOM     34 CL   UNL     1       0.641   6.241  -1.333  0.00  0.00    -0.083 Cl
ENDBRANCH  27  28
ENDBRANCH   4  27
TORSDOF 8
