REMARK  Name = ZINC20310468
REMARK  4 active torsions:
REMARK  status: ('A' for Active; 'I' for Inactive)
REMARK    1  A    between atoms: C_9  and  C_11
REMARK    2  A    between atoms: C_11  and  O_12
REMARK    3  A    between atoms: O_12  and  C_13
REMARK    4  A    between atoms: C_18  and  C_19
REMARK                            x       y       z     vdW  Elec       q    Type
REMARK                         _______ _______ _______ _____ _____    ______ ____
ROOT
ATOM      1  C   UNL     1      -2.298  -0.366   0.010  0.00  0.00    +0.284 C 
ENDROOT
BRANCH   1  10
ATOM      2  C   UNL     1      -7.554  -3.990   0.014  0.00  0.00    +0.001 A 
ATOM      3  C   UNL     1      -6.412  -4.788   0.004  0.00  0.00    +0.002 A 
ATOM      4  C   UNL     1      -5.169  -4.234   0.001  0.00  0.00    +0.028 A 
ATOM      5  C   UNL     1      -5.028  -2.835   0.008  0.00  0.00    +0.071 A 
ATOM      6  C   UNL     1      -6.192  -2.026   0.018  0.00  0.00    +0.000 A 
ATOM      7  C   UNL     1      -7.458  -2.632   0.021  0.00  0.00    +0.010 A 
ATOM      8  C   UNL     1      -6.049  -0.626   0.025  0.00  0.00    +0.012 A 
ATOM      9  C   UNL     1      -4.786  -0.107   0.028  0.00  0.00    +0.027 A 
ATOM     10  C   UNL     1      -3.684  -0.959   0.013  0.00  0.00    +0.079 A 
ATOM     11  N   UNL     1      -3.820  -2.263   0.006  0.00  0.00    -0.248 NA
ENDBRANCH   1  10
BRANCH   1  12
ATOM     12  O   UNL     1      -2.390   1.060   0.019  0.00  0.00    -0.485 OA
BRANCH  12  13
ATOM     13  C   UNL     1      -1.224   1.752   0.017  0.00  0.00    +0.131 A 
ATOM     14  C   UNL     1      -0.013   1.076   0.008  0.00  0.00    +0.047 A 
ATOM     15  C   UNL     1       1.174   1.781   0.000  0.00  0.00    +0.019 A 
ATOM     16  C   UNL     1       1.168   3.168   0.007  0.00  0.00    +0.019 A 
ATOM     17  C   UNL     1      -0.025   3.858   0.022  0.00  0.00    +0.030 A 
ATOM     18  C   UNL     1      -1.236   3.156   0.031  0.00  0.00    +0.057 A 
ATOM     19 BR   UNL     1       2.803   4.117  -0.003  0.00  0.00    -0.050 Br
BRANCH  18  20
ATOM     20  C   UNL     1      -2.511   3.883   0.047  0.00  0.00    +0.262 C 
ATOM     21  O   UNL     1      -3.558   3.271   0.054  0.00  0.00    -0.296 OA
ENDBRANCH  18  20
ENDBRANCH  12  13
ENDBRANCH   1  12
TORSDOF 4
