REMARK  Name = ZINC14844280
REMARK  6 active torsions:
REMARK  status: ('A' for Active; 'I' for Inactive)
REMARK    1  A    between atoms: C_1  and  C_2
REMARK    2  A    between atoms: C_9  and  C_11
REMARK    3  A    between atoms: N_13  and  N_14
REMARK    4  A    between atoms: C_15  and  C_17
REMARK    5  A    between atoms: C_17  and  O_18
REMARK    6  A    between atoms: O_18  and  C_19
REMARK                            x       y       z     vdW  Elec       q    Type
REMARK                         _______ _______ _______ _____ _____    ______ ____
ROOT
ATOM      1  C   UNL     1       4.831   4.247  -0.282  0.00  0.00    +0.267 C 
ATOM      2  O   UNL     1       5.971   3.861  -0.099  0.00  0.00    -0.268 OA
ATOM      3  N   UNL     1       4.600   5.532  -0.616  0.00  0.00    -0.230 N 
ATOM      4  H   UNL     1       3.691   5.839  -0.762  0.00  0.00    +0.173 HD
ENDROOT
BRANCH   1  12
ATOM      5  C   UNL     1       0.830  -1.998   1.259  0.00  0.00    +0.008 C 
ATOM      6  C   UNL     1       0.991  -0.489   1.066  0.00  0.00    -0.009 C 
ATOM      7  C   UNL     1       0.002  -0.004   0.002  0.00  0.00    +0.009 C 
ATOM      8  C   UNL     1      -0.019   1.531   0.011  0.00  0.00    +0.043 C 
ATOM      9  C   UNL     1       1.396   2.023  -0.000  0.00  0.00    -0.006 A 
ATOM     10  C   UNL     1       2.522   1.297   0.266  0.00  0.00    -0.036 A 
ATOM     11  C   UNL     1       3.730   1.971   0.193  0.00  0.00    +0.024 A 
ATOM     12  C   UNL     1       3.710   3.313  -0.139  0.00  0.00    +0.076 A 
ATOM     13  S   UNL     1       1.963   3.612  -0.347  0.00  0.00    -0.088 S 
ATOM     14  C   UNL     1       2.423  -0.183   0.624  0.00  0.00    +0.039 C 
ENDBRANCH   1  12
BRANCH   3  15
ATOM     15  N   UNL     1       5.671   6.424  -0.753  0.00  0.00    -0.231 N 
ATOM     16  C   UNL     1       5.439   7.709  -1.087  0.00  0.00    +0.267 C 
ATOM     17  O   UNL     1       4.303   8.093  -1.269  0.00  0.00    -0.271 OA
ATOM     18  H   UNL     1       6.580   6.117  -0.607  0.00  0.00    +0.173 HD
BRANCH  16  19
ATOM     19  C   UNL     1       6.592   8.669  -1.234  0.00  0.00    +0.326 C 
BRANCH  19  20
ATOM     20  O   UNL     1       6.094   9.960  -1.590  0.00  0.00    -0.483 OA
BRANCH  20  21
ATOM     21  C   UNL     1       7.010  10.949  -1.763  0.00  0.00    +0.121 A 
ATOM     22  C   UNL     1       8.360  10.683  -1.587  0.00  0.00    +0.047 A 
ATOM     23  C   UNL     1       9.291  11.688  -1.768  0.00  0.00    +0.023 A 
ATOM     24  C   UNL     1       8.876  12.962  -2.113  0.00  0.00    +0.041 A 
ATOM     25  C   UNL     1       7.529  13.230  -2.284  0.00  0.00    +0.023 A 
ATOM     26  C   UNL     1       6.596  12.227  -2.109  0.00  0.00    +0.047 A 
ATOM     27 CL   UNL     1      10.046  14.225  -2.334  0.00  0.00    -0.084 Cl
ENDBRANCH  20  21
ENDBRANCH  19  20
ENDBRANCH  16  19
ENDBRANCH   3  15
TORSDOF 5
