REMARK  Name = ZINC06689966
REMARK  13 active torsions:
REMARK  status: ('A' for Active; 'I' for Inactive)
REMARK    1  A    between atoms: C_1  and  C_2
REMARK    2  A    between atoms: C_2  and  C_3
REMARK    3  A    between atoms: C_2  and  C_4
REMARK    4  A    between atoms: C_2  and  N_5
REMARK    5  A    between atoms: N_8  and  C_9
REMARK    6  A    between atoms: N_8  and  C_14
REMARK    7  A    between atoms: C_9  and  C_10
REMARK    8  A    between atoms: C_10  and  N_11
REMARK    9  A    between atoms: N_11  and  C_12
REMARK   10  A    between atoms: N_11  and  C_13
REMARK   11  A    between atoms: C_14  and  C_15
REMARK   12  A    between atoms: N_19  and  C_20
REMARK   13  A    between atoms: C_20  and  C_21
REMARK                            x       y       z     vdW  Elec       q    Type
REMARK                         _______ _______ _______ _____ _____    ______ ____
ROOT
ATOM      1  N   UNL     1       0.636   0.239  -1.611  0.00  0.00    -0.294 N 
ATOM      2  C   UNL     1       1.952   0.499  -1.739  0.00  0.00    +0.303 C 
ATOM      3  O   UNL     1       2.473   1.356  -1.050  0.00  0.00    -0.253 OA
ATOM      4  N   UNL     1       2.692  -0.190  -2.630  0.00  0.00    -0.280 N 
ATOM      5  H   UNL     1       0.221  -0.444  -2.160  0.00  0.00    +0.151 HD
ENDROOT
BRANCH   1   7
ATOM      6  C   UNL     1      -0.117   2.479  -0.983  0.00  0.00    +0.031 C 
ATOM      7  C   UNL     1      -0.168   0.989  -0.642  0.00  0.00    +0.028 C 
ATOM      8  C   UNL     1       0.391   0.767   0.764  0.00  0.00    +0.031 C 
ATOM      9  C   UNL     1      -1.617   0.502  -0.698  0.00  0.00    +0.031 C 
ENDBRANCH   1   7
BRANCH   4  10
ATOM     10  C   UNL     1       4.123   0.092  -2.769  0.00  0.00    +0.091 C 
BRANCH  10  11
ATOM     11  C   UNL     1       4.912  -0.779  -1.790  0.00  0.00    -0.060 C 
BRANCH  11  12
ATOM     12  N   UNL     1       6.347  -0.496  -1.930  0.00  0.00    +0.377 N 
ATOM     13  C   UNL     1       6.615   0.889  -1.519  0.00  0.00    -0.097 C 
ATOM     14  C   UNL     1       7.113  -1.416  -1.078  0.00  0.00    -0.097 C 
ATOM     15  H   UNL     1       6.623  -0.621  -2.892  0.00  0.00    -0.083 HD
ENDBRANCH  11  12
ENDBRANCH  10  11
ENDBRANCH   4  10
BRANCH   4  16
ATOM     16  C   UNL     1       2.066  -1.222  -3.459  0.00  0.00    +0.183 C 
BRANCH  16  17
ATOM     17  C   UNL     1       1.449  -0.583  -4.676  0.00  0.00    +0.127 A 
ATOM     18  N   UNL     1       0.272  -0.022  -4.727  0.00  0.00    -0.239 NA
ATOM     19  C   UNL     1       0.054   0.439  -5.967  0.00  0.00    +0.130 A 
ATOM     20  C   UNL     1       1.138   0.154  -6.714  0.00  0.00    +0.107 A 
ATOM     21  N   UNL     1       2.025  -0.490  -5.894  0.00  0.00    -0.329 N 
BRANCH  21  22
ATOM     22  C   UNL     1       3.351  -0.988  -6.268  0.00  0.00    +0.159 C 
BRANCH  22  23
ATOM     23  C   UNL     1       3.246  -2.432  -6.685  0.00  0.00    -0.009 A 
ATOM     24  C   UNL     1       3.487  -3.436  -5.765  0.00  0.00    +0.008 A 
ATOM     25  C   UNL     1       3.391  -4.761  -6.146  0.00  0.00    +0.020 A 
ATOM     26  C   UNL     1       3.054  -5.083  -7.449  0.00  0.00    +0.042 A 
ATOM     27  C   UNL     1       2.813  -4.080  -8.370  0.00  0.00    +0.040 A 
ATOM     28  C   UNL     1       2.904  -2.754  -7.986  0.00  0.00    +0.047 A 
ATOM     29 CL   UNL     1       2.596  -1.493  -9.139  0.00  0.00    -0.083 Cl
ATOM     30 CL   UNL     1       2.934  -6.748  -7.928  0.00  0.00    -0.083 Cl
ENDBRANCH  22  23
ENDBRANCH  21  22
ENDBRANCH  16  17
ENDBRANCH   4  16
TORSDOF 8
