REMARK  Name = ZINC39965529
REMARK  13 active torsions:
REMARK  status: ('A' for Active; 'I' for Inactive)
REMARK    1  A    between atoms: C_1  and  C_2
REMARK    2  A    between atoms: C_2  and  N_3
REMARK    3  A    between atoms: C_4  and  C_27
REMARK    4  A    between atoms: C_7  and  S_8
REMARK    5  A    between atoms: S_8  and  C_9
REMARK    6  A    between atoms: C_9  and  C_10
REMARK    7  A    between atoms: N_12  and  C_13
REMARK    8  A    between atoms: C_14  and  C_22
REMARK    9  A    between atoms: C_15  and  C_21
REMARK   10  A    between atoms: C_16  and  C_18
REMARK   11  A    between atoms: C_22  and  O_24
REMARK   12  A    between atoms: O_24  and  C_25
REMARK   13  A    between atoms: C_25  and  C_26
REMARK                            x       y       z     vdW  Elec       q    Type
REMARK                         _______ _______ _______ _____ _____    ______ ____
ROOT
ATOM      1  C   UNL     1      -2.880  -0.654   5.246  0.00  0.00    +0.228 C 
ATOM      2  O   UNL     1      -3.764  -0.232   4.532  0.00  0.00    -0.275 OA
ATOM      3  N   UNL     1      -3.136  -0.941   6.537  0.00  0.00    -0.279 N 
ATOM      4  H   UNL     1      -2.429  -1.279   7.109  0.00  0.00    +0.155 HD
ENDROOT
BRANCH   3   5
ATOM      5  C   UNL     1      -4.405  -0.753   7.048  0.00  0.00    +0.087 A 
ATOM      6  C   UNL     1      -4.853  -0.987   8.350  0.00  0.00    +0.091 A 
ATOM      7  C   UNL     1      -6.187  -0.721   8.628  0.00  0.00    -0.015 A 
ATOM      8  C   UNL     1      -6.942  -0.250   7.588  0.00  0.00    +0.079 A 
ATOM      9  S   UNL     1      -5.769  -0.184   6.250  0.00  0.00    -0.068 S 
ATOM     10  C   UNL     1      -6.771  -0.939  10.000  0.00  0.00    +0.046 C 
BRANCH   8  11
ATOM     11  C   UNL     1      -8.361   0.115   7.580  0.00  0.00    +0.248 C 
ATOM     12  O   UNL     1      -9.022   0.012   8.597  0.00  0.00    -0.270 OA
ATOM     13  N   UNL     1      -8.934   0.564   6.446  0.00  0.00    -0.325 N 
ATOM     14  H   UNL     1      -8.408   0.646   5.636  0.00  0.00    +0.145 HD
ATOM     15  H   UNL     1      -9.874   0.805   6.441  0.00  0.00    +0.145 HD
ENDBRANCH   8  11
BRANCH   6  16
ATOM     16  C   UNL     1      -3.947  -1.495   9.385  0.00  0.00    +0.342 C 
ATOM     17  O   UNL     1      -3.319  -0.719  10.079  0.00  0.00    -0.245 OA
BRANCH  16  18
ATOM     18  O   UNL     1      -3.810  -2.824   9.568  0.00  0.00    -0.461 OA
BRANCH  18  19
ATOM     19  C   UNL     1      -2.911  -3.249  10.594  0.00  0.00    +0.229 C 
ATOM     20  C   UNL     1      -2.889  -4.778  10.652  0.00  0.00    +0.048 C 
ENDBRANCH  18  19
ENDBRANCH  16  18
ENDBRANCH   6  16
ENDBRANCH   3   5
BRANCH   1  21
ATOM     21  C   UNL     1      -1.495  -0.859   4.689  0.00  0.00    +0.173 C 
BRANCH  21  22
ATOM     22  S   UNL     1      -1.471  -0.388   2.937  0.00  0.00    -0.077 S 
BRANCH  22  27
ATOM     23  N   UNL     1       0.714  -0.475   1.193  0.00  0.00    -0.302 N 
ATOM     24  C   UNL     1       2.039  -0.834   1.281  0.00  0.00    +0.165 A 
ATOM     25  N   UNL     1       2.251  -1.228   2.515  0.00  0.00    -0.128 NA
ATOM     26  N   UNL     1       1.164  -1.141   3.196  0.00  0.00    -0.122 NA
ATOM     27  C   UNL     1       0.193  -0.681   2.439  0.00  0.00    +0.192 A 
BRANCH  24  28
ATOM     28  C   UNL     1       3.037  -0.785   0.191  0.00  0.00    +0.023 A 
ATOM     29  C   UNL     1       4.210  -1.537   0.283  0.00  0.00    +0.015 A 
ATOM     30  C   UNL     1       5.139  -1.491  -0.735  0.00  0.00    +0.050 A 
ATOM     31  C   UNL     1       4.913  -0.699  -1.852  0.00  0.00    +0.166 A 
ATOM     32  C   UNL     1       3.744   0.054  -1.949  0.00  0.00    +0.167 A 
ATOM     33  C   UNL     1       2.806   0.007  -0.934  0.00  0.00    +0.061 A 
ATOM     34  O   UNL     1       3.763   0.738  -3.130  0.00  0.00    -0.453 OA
ATOM     35  C   UNL     1       5.135   0.715  -3.565  0.00  0.00    +0.466 C 
ATOM     36  O   UNL     1       5.663  -0.486  -2.973  0.00  0.00    -0.453 OA
ENDBRANCH  24  28
BRANCH  23  38
ATOM     37  C   UNL     1       0.017   1.558   0.026  0.00  0.00    +0.027 C 
ATOM     38  C   UNL     1       0.010   0.029   0.011  0.00  0.00    +0.122 C 
ENDBRANCH  23  38
ENDBRANCH  22  27
ENDBRANCH  21  22
ENDBRANCH   1  21
TORSDOF 10
