REMARK  Name = ZINC52627900
REMARK  8 active torsions:
REMARK  status: ('A' for Active; 'I' for Inactive)
REMARK    1  A    between atoms: C_7  and  C_10
REMARK    2  A    between atoms: C_10  and  C_11
REMARK    3  A    between atoms: C_11  and  C_13
REMARK    4  A    between atoms: C_11  and  N_33
REMARK    5  A    between atoms: C_13  and  O_14
REMARK    6  A    between atoms: O_14  and  C_15
REMARK    7  A    between atoms: C_17  and  C_21
REMARK    8  A    between atoms: C_27  and  C_31
REMARK                            x       y       z     vdW  Elec       q    Type
REMARK                         _______ _______ _______ _____ _____    ______ ____
ROOT
ATOM      1  O   UNL     1      -0.519  -5.425  -2.785  0.00  0.00    -0.492 OA
ENDROOT
BRANCH   1   2
ATOM      2  C   UNL     1      -1.252  -6.557  -2.953  0.00  0.00    +0.139 A 
ATOM      3  C   UNL     1      -1.412  -7.110  -4.217  0.00  0.00    +0.057 A 
ATOM      4  C   UNL     1      -2.174  -8.274  -4.339  0.00  0.00    +0.004 A 
ATOM      5  C   UNL     1      -2.741  -8.832  -3.194  0.00  0.00    +0.119 A 
ATOM      6  N   UNL     1      -2.563  -8.274  -2.015  0.00  0.00    -0.259 NA
ATOM      7  C   UNL     1      -1.846  -7.178  -1.863  0.00  0.00    +0.156 A 
BRANCH   4   8
ATOM      8  C   UNL     1      -2.377  -8.907  -5.665  0.00  0.00    -0.016 A 
ATOM      9  C   UNL     1      -1.793  -8.334  -6.806  0.00  0.00    +0.009 A 
ATOM     10  C   UNL     1      -1.963  -8.892  -8.034  0.00  0.00    +0.010 A 
ATOM     11  C   UNL     1      -2.731 -10.059  -8.172  0.00  0.00    +0.000 A 
ATOM     12  C   UNL     1      -2.929 -10.668  -9.425  0.00  0.00    +0.120 A 
ATOM     13  N   UNL     1      -3.650 -11.756  -9.524  0.00  0.00    -0.244 NA
ATOM     14  C   UNL     1      -4.226 -12.338  -8.467  0.00  0.00    +0.141 A 
ATOM     15  C   UNL     1      -4.089 -11.816  -7.192  0.00  0.00    +0.047 A 
ATOM     16  C   UNL     1      -3.325 -10.647  -7.024  0.00  0.00    -0.013 A 
ATOM     17  C   UNL     1      -3.135 -10.060  -5.766  0.00  0.00    +0.017 A 
BRANCH  14  18
ATOM     18  C   UNL     1      -5.000 -13.528  -8.658  0.00  0.00    +0.119 C 
ATOM     19  N   UNL     1      -5.614 -14.471  -8.810  0.00  0.00    -0.189 NA
ENDBRANCH  14  18
ENDBRANCH   4   8
ENDBRANCH   1   2
BRANCH   1  20
ATOM     20  C   UNL     1      -0.398  -4.923  -1.452  0.00  0.00    +0.213 C 
BRANCH  20  21
ATOM     21  C   UNL     1       0.457  -3.653  -1.462  0.00  0.00    -0.033 C 
BRANCH  21  22
ATOM     22  N   UNL     1      -0.240  -2.600  -2.212  0.00  0.00    +0.382 N 
ATOM     23  H   UNL     1       0.323  -1.763  -2.218  0.00  0.00    -0.089 HD
ATOM     24  H   UNL     1      -0.394  -2.909  -3.160  0.00  0.00    -0.089 HD
ATOM     25  H   UNL     1      -1.127  -2.405  -1.773  0.00  0.00    -0.089 HD
ENDBRANCH  21  22
BRANCH  21  26
ATOM     26  C   UNL     1       0.691  -3.186  -0.024  0.00  0.00    +0.020 C 
BRANCH  26  33
ATOM     27  C   UNL     1      -0.016   1.348   0.009  0.00  0.00    +0.001 A 
ATOM     28  C   UNL     1       1.166   2.101   0.002  0.00  0.00    +0.002 A 
ATOM     29  C   UNL     1       2.391   1.535  -0.013  0.00  0.00    +0.026 A 
ATOM     30  C   UNL     1       2.529   0.120  -0.022  0.00  0.00    +0.043 A 
ATOM     31  N   UNL     1       3.587  -0.654  -0.037  0.00  0.00    -0.380 N 
ATOM     32  C   UNL     1       3.143  -2.053  -0.041  0.00  0.00    +0.144 C 
ATOM     33  C   UNL     1       1.631  -2.008  -0.025  0.00  0.00    -0.043 C 
ATOM     34  C   UNL     1       1.295  -0.698  -0.014  0.00  0.00    -0.001 A 
ATOM     35  C   UNL     1       0.002  -0.004   0.002  0.00  0.00    +0.010 A 
ATOM     36  H   UNL     1       4.509  -0.353  -0.045  0.00  0.00    +0.160 HD
ENDBRANCH  26  33
ENDBRANCH  21  26
ENDBRANCH  20  21
ENDBRANCH   1  20
TORSDOF 8
