REMARK  Name = ZINC05547272
REMARK  7 active torsions:
REMARK  status: ('A' for Active; 'I' for Inactive)
REMARK    1  A    between atoms: C_1  and  C_2
REMARK    2  A    between atoms: C_7  and  O_8
REMARK    3  A    between atoms: O_8  and  C_9
REMARK    4  A    between atoms: C_9  and  C_11
REMARK    5  A    between atoms: C_9  and  C_12
REMARK    6  A    between atoms: C_12  and  O_14
REMARK    7  A    between atoms: O_14  and  C_15
REMARK                            x       y       z     vdW  Elec       q    Type
REMARK                         _______ _______ _______ _____ _____    ______ ____
ROOT
ATOM      1  C   UNL     1       3.930   2.652   0.157  0.00  0.00    +0.047 C 
ATOM      2  C   UNL     1       3.559   1.337   0.793  0.00  0.00    -0.005 A 
ATOM      3  C   UNL     1       4.513   0.621   1.485  0.00  0.00    +0.054 A 
ATOM      4  C   UNL     1       4.179  -0.594   2.068  0.00  0.00    +0.140 A 
ATOM      5  C   UNL     1       2.868  -1.083   1.953  0.00  0.00    +0.025 A 
ATOM      6  C   UNL     1       1.906  -0.347   1.254  0.00  0.00    +0.057 A 
ATOM      7  C   UNL     1       2.257   0.859   0.680  0.00  0.00    +0.125 A 
ATOM      8  C   UNL     1       2.522  -2.370   2.575  0.00  0.00    -0.027 A 
ATOM      9  C   UNL     1       3.490  -3.043   3.231  0.00  0.00    +0.041 A 
ATOM     10  C   UNL     1       4.793  -2.487   3.309  0.00  0.00    +0.341 A 
ATOM     11  O   UNL     1       5.659  -3.098   3.910  0.00  0.00    -0.245 OA
ATOM     12  O   UNL     1       5.101  -1.313   2.745  0.00  0.00    -0.422 OA
ATOM     13  C   UNL     1       3.251  -4.377   3.886  0.00  0.00    +0.042 C 
ATOM     14  C   UNL     1       1.757  -4.614   4.096  0.00  0.00    +0.005 C 
ATOM     15  C   UNL     1       1.037  -4.363   2.766  0.00  0.00    +0.005 C 
ATOM     16  C   UNL     1       1.109  -2.869   2.457  0.00  0.00    +0.036 C 
ENDROOT
BRANCH   7  17
ATOM     17  O   UNL     1       1.328   1.580  -0.002  0.00  0.00    -0.478 OA
BRANCH  17  18
ATOM     18  C   UNL     1       0.047   0.976  -0.189  0.00  0.00    +0.278 C 
ATOM     19  C   UNL     1      -0.827   1.242   1.039  0.00  0.00    +0.064 C 
BRANCH  18  20
ATOM     20  C   UNL     1      -0.612   1.563  -1.411  0.00  0.00    +0.348 C 
ATOM     21  O   UNL     1      -0.043   2.411  -2.055  0.00  0.00    -0.247 OA
BRANCH  20  22
ATOM     22  O   UNL     1      -1.831   1.142  -1.783  0.00  0.00    -0.465 OA
ATOM     23  C   UNL     1      -2.405   1.751  -2.970  0.00  0.00    +0.280 C 
ENDBRANCH  20  22
ENDBRANCH  18  20
ENDBRANCH  17  18
ENDBRANCH   7  17
TORSDOF 4
