REMARK  Name = ZINC08923796
REMARK  5 active torsions:
REMARK  status: ('A' for Active; 'I' for Inactive)
REMARK    1  A    between atoms: C_1  and  N_48
REMARK    2  A    between atoms: C_7  and  N_19
REMARK    3  A    between atoms: C_8  and  C_9
REMARK    4  A    between atoms: N_11  and  C_12
REMARK    5  A    between atoms: C_20  and  C_21
REMARK                            x       y       z     vdW  Elec       q    Type
REMARK                         _______ _______ _______ _____ _____    ______ ____
ROOT
ATOM      1  C   UNL     1       1.387   3.430  -0.183  0.00  0.00    -0.096 C 
ATOM      2  C   UNL     1       2.120   1.294  -1.059  0.00  0.00    -0.074 C 
ATOM      3  C   UNL     1       2.384  -0.161  -0.664  0.00  0.00    +0.018 C 
ATOM      4  C   UNL     1       1.049  -0.804  -0.291  0.00  0.00    -0.027 A 
ATOM      5  C   UNL     1      -0.016  -0.014   0.001  0.00  0.00    -0.021 A 
ATOM      6  S   UNL     1      -1.326  -1.149   0.364  0.00  0.00    -0.075 S 
ATOM      7  C   UNL     1      -0.420  -2.669   0.121  0.00  0.00    +0.114 A 
ATOM      8  C   UNL     1       0.849  -2.192  -0.230  0.00  0.00    +0.073 A 
ATOM      9  C   UNL     1      -0.046   1.481   0.005  0.00  0.00    -0.036 C 
ATOM     10  N   UNL     1       1.356   1.964   0.012  0.00  0.00    +0.381 N 
ATOM     11  H   UNL     1       1.783   1.739   0.919  0.00  0.00    -0.082 HD
ENDROOT
BRANCH   8  12
ATOM     12  C   UNL     1       1.944  -3.122  -0.528  0.00  0.00    +0.251 C 
ATOM     13  O   UNL     1       2.678  -3.503   0.365  0.00  0.00    -0.270 OA
ATOM     14  N   UNL     1       2.137  -3.554  -1.790  0.00  0.00    -0.281 N 
ATOM     15  H   UNL     1       1.513  -3.304  -2.489  0.00  0.00    +0.155 HD
BRANCH  14  16
ATOM     16  C   UNL     1       3.238  -4.363  -2.092  0.00  0.00    +0.034 A 
ATOM     17  C   UNL     1       3.875  -4.242  -3.320  0.00  0.00    +0.025 A 
ATOM     18  C   UNL     1       4.964  -5.038  -3.613  0.00  0.00    +0.022 A 
ATOM     19  C   UNL     1       5.415  -5.964  -2.689  0.00  0.00    +0.041 A 
ATOM     20  C   UNL     1       4.778  -6.091  -1.466  0.00  0.00    +0.022 A 
ATOM     21  C   UNL     1       3.692  -5.293  -1.166  0.00  0.00    +0.025 A 
ATOM     22 CL   UNL     1       6.781  -6.968  -3.063  0.00  0.00    -0.084 Cl
ENDBRANCH  14  16
ENDBRANCH   8  12
BRANCH   7  23
ATOM     23  N   UNL     1      -0.847  -3.944   0.243  0.00  0.00    -0.247 NA
ATOM     24  C   UNL     1      -2.085  -4.189   0.585  0.00  0.00    +0.120 C 
BRANCH  24  25
ATOM     25  C   UNL     1      -2.550  -5.577   0.718  0.00  0.00    -0.007 A 
ATOM     26  C   UNL     1      -1.672  -6.639   0.475  0.00  0.00    +0.010 A 
ATOM     27  C   UNL     1      -2.114  -7.938   0.606  0.00  0.00    +0.016 A 
ATOM     28  C   UNL     1      -3.426  -8.193   0.968  0.00  0.00    +0.018 A 
ATOM     29  C   UNL     1      -4.303  -7.147   1.206  0.00  0.00    +0.016 A 
ATOM     30  C   UNL     1      -3.874  -5.843   1.083  0.00  0.00    +0.010 A 
ATOM     31 BR   UNL     1      -4.025  -9.979   1.139  0.00  0.00    -0.050 Br
ENDBRANCH  24  25
ENDBRANCH   7  23
TORSDOF 4
