REMARK  Name = ZINC37694617
REMARK  4 active torsions:
REMARK  status: ('A' for Active; 'I' for Inactive)
REMARK    1  A    between atoms: C_5  and  O_10
REMARK    2  A    between atoms: C_6  and  N_7
REMARK    3  A    between atoms: O_10  and  C_11
REMARK    4  A    between atoms: C_17  and  O_19
REMARK                            x       y       z     vdW  Elec       q    Type
REMARK                         _______ _______ _______ _____ _____    ______ ____
ROOT
ATOM      1  C   UNL     1      -0.576   1.015  -0.407  0.00  0.00    +0.074 A 
ATOM      2  C   UNL     1       0.424   1.971  -0.341  0.00  0.00    +0.127 A 
ATOM      3  C   UNL     1       1.714   1.602   0.002  0.00  0.00    +0.057 A 
ATOM      4  C   UNL     1       2.005   0.280   0.279  0.00  0.00    +0.064 A 
ATOM      5  C   UNL     1       1.003  -0.679   0.213  0.00  0.00    +0.165 A 
ATOM      6  C   UNL     1      -0.288  -0.307  -0.131  0.00  0.00    +0.171 A 
ATOM      7 BR   UNL     1       3.766  -0.224   0.747  0.00  0.00    -0.046 Br
ATOM      8  F   UNL     1       0.141   3.264  -0.611  0.00  0.00    -0.205 F 
ENDROOT
BRANCH   6   9
ATOM      9  N   UNL     1      -1.358  -1.328  -0.202  0.00  0.00    +0.060 N 
ATOM     10  O   UNL     1      -2.505  -0.990  -0.383  0.00  0.00    -0.126 OA
ATOM     11  O   UNL     1      -1.085  -2.499  -0.079  0.00  0.00    -0.126 OA
ENDBRANCH   6   9
BRANCH   5  12
ATOM     12  O   UNL     1       1.288  -1.980   0.484  0.00  0.00    -0.483 OA
BRANCH  12  13
ATOM     13  C   UNL     1       1.312  -2.366   1.860  0.00  0.00    +0.202 C 
ATOM     14  C   UNL     1      -0.113  -2.663   2.332  0.00  0.00    +0.047 C 
ATOM     15  C   UNL     1      -0.087  -3.076   3.805  0.00  0.00    +0.004 C 
ATOM     16  C   UNL     1       0.777  -4.328   3.968  0.00  0.00    +0.003 C 
ATOM     17  C   UNL     1       2.201  -4.031   3.497  0.00  0.00    +0.035 C 
ATOM     18  C   UNL     1       2.175  -3.618   2.024  0.00  0.00    +0.155 C 
BRANCH  18  19
ATOM     19  O   UNL     1       3.506  -3.340   1.583  0.00  0.00    -0.388 OA
ATOM     20  H   UNL     1       4.110  -4.091   1.659  0.00  0.00    +0.210 HD
ENDBRANCH  18  19
ENDBRANCH  12  13
ENDBRANCH   5  12
TORSDOF 4
