REMARK  Name = ZINC36024346
REMARK  10 active torsions:
REMARK  status: ('A' for Active; 'I' for Inactive)
REMARK    1  A    between atoms: C_1  and  C_2
REMARK    2  A    between atoms: C_2  and  C_3
REMARK    3  A    between atoms: C_2  and  C_4
REMARK    4  A    between atoms: N_8  and  C_22
REMARK    5  A    between atoms: N_13  and  C_16
REMARK    6  A    between atoms: C_16  and  N_18
REMARK    7  A    between atoms: N_18  and  C_19
REMARK    8  A    between atoms: C_19  and  C_20
REMARK    9  A    between atoms: C_19  and  C_21
REMARK   10  A    between atoms: C_22  and  C_23
REMARK                            x       y       z     vdW  Elec       q    Type
REMARK                         _______ _______ _______ _____ _____    ______ ____
ROOT
ATOM      1  C   UNL     1      -1.434  -1.652   0.077  0.00  0.00    +0.022 C 
ATOM      2  C   UNL     1      -2.235  -0.840  -0.918  0.00  0.00    +0.201 C 
ATOM      3  O   UNL     1      -2.371   0.365  -0.903  0.00  0.00    -0.277 OA
ATOM      4  N   UNL     1      -2.773  -1.683  -1.823  0.00  0.00    -0.309 N 
ATOM      5  C   UNL     1      -2.386  -3.059  -1.501  0.00  0.00    +0.006 C 
ATOM      6  N   UNL     1      -1.232  -2.966  -0.579  0.00  0.00    +0.401 N 
ATOM      7  C   UNL     1      -3.539  -3.784  -0.809  0.00  0.00    +0.025 C 
ATOM      8  C   UNL     1      -4.743  -3.841  -1.755  0.00  0.00    +0.107 C 
ATOM      9  N   UNL     1      -4.317  -4.442  -3.027  0.00  0.00    -0.313 N 
ATOM     10  C   UNL     1      -3.166  -3.862  -3.732  0.00  0.00    +0.107 C 
ATOM     11  C   UNL     1      -1.975  -3.804  -2.770  0.00  0.00    +0.025 C 
ATOM     12  H   UNL     1      -0.364  -2.979  -1.092  0.00  0.00    -0.082 HD
ATOM     13  H   UNL     1      -1.256  -3.711   0.102  0.00  0.00    -0.082 HD
ENDROOT
BRANCH   1  15
ATOM     14  C   UNL     1      -0.319   0.390   0.990  0.00  0.00    +0.006 C 
ATOM     15  C   UNL     1      -0.086  -0.980   0.350  0.00  0.00    -0.023 C 
ATOM     16  C   UNL     1       0.736  -1.854   1.299  0.00  0.00    +0.006 C 
ENDBRANCH   1  15
BRANCH   9  17
ATOM     17  C   UNL     1      -4.969  -5.505  -3.536  0.00  0.00    +0.133 C 
ATOM     18  S   UNL     1      -4.379  -6.277  -4.946  0.00  0.00    -0.019 S 
BRANCH  17  19
ATOM     19  N   UNL     1      -6.087  -5.960  -2.937  0.00  0.00    -0.324 N 
ATOM     20  H   UNL     1      -6.464  -5.479  -2.183  0.00  0.00    +0.148 HD
BRANCH  19  21
ATOM     21  C   UNL     1      -6.733  -7.182  -3.423  0.00  0.00    +0.066 C 
ATOM     22  C   UNL     1      -6.068  -8.401  -2.781  0.00  0.00    +0.027 C 
ATOM     23  C   UNL     1      -8.217  -7.156  -3.052  0.00  0.00    +0.027 C 
ENDBRANCH  19  21
ENDBRANCH  17  19
ENDBRANCH   9  17
BRANCH   4  24
ATOM     24  C   UNL     1      -3.614  -1.285  -2.954  0.00  0.00    +0.141 C 
BRANCH  24  25
ATOM     25  C   UNL     1      -2.747  -0.731  -4.056  0.00  0.00    -0.030 A 
ATOM     26  C   UNL     1      -2.773   0.621  -4.342  0.00  0.00    +0.005 A 
ATOM     27  C   UNL     1      -1.977   1.128  -5.352  0.00  0.00    +0.000 A 
ATOM     28  C   UNL     1      -1.155   0.284  -6.075  0.00  0.00    +0.000 A 
ATOM     29  C   UNL     1      -1.128  -1.068  -5.787  0.00  0.00    +0.000 A 
ATOM     30  C   UNL     1      -1.921  -1.575  -4.775  0.00  0.00    +0.005 A 
ENDBRANCH  24  25
ENDBRANCH   4  24
TORSDOF 6
