REMARK  Name = ZINC38732104
REMARK  6 active torsions:
REMARK  status: ('A' for Active; 'I' for Inactive)
REMARK    1  A    between atoms: C_4  and  C_7
REMARK    2  A    between atoms: C_7  and  O_8
REMARK    3  A    between atoms: O_8  and  C_9
REMARK    4  A    between atoms: C_9  and  C_11
REMARK    5  A    between atoms: C_17  and  C_19
REMARK    6  A    between atoms: C_25  and  C_27
REMARK                            x       y       z     vdW  Elec       q    Type
REMARK                         _______ _______ _______ _____ _____    ______ ____
ROOT
ATOM      1  C   UNL     1       8.941  -4.578   2.318  0.00  0.00    +0.087 C 
ATOM      2  C   UNL     1       9.903  -3.678   1.540  0.00  0.00    +0.013 C 
ATOM      3  C   UNL     1       9.243  -3.235   0.233  0.00  0.00    +0.001 C 
ATOM      4  C   UNL     1       8.902  -4.466  -0.609  0.00  0.00    +0.001 C 
ATOM      5  C   UNL     1       7.940  -5.365   0.169  0.00  0.00    +0.013 C 
ATOM      6  C   UNL     1       8.600  -5.809   1.476  0.00  0.00    +0.087 C 
ENDROOT
BRANCH   6   7
ATOM      7  C   UNL     1       7.652  -6.695   2.243  0.00  0.00    +0.219 C 
ATOM      8  O   UNL     1       6.461  -6.641   2.024  0.00  0.00    -0.275 OA
ATOM      9  N   UNL     1       8.129  -7.548   3.171  0.00  0.00    -0.298 N 
ATOM     10  C   UNL     1       9.555  -7.544   3.528  0.00  0.00    +0.126 C 
ATOM     11  C   UNL     1       9.680  -7.345   5.044  0.00  0.00    +0.125 C 
ATOM     12  N   UNL     1       8.783  -8.294   5.718  0.00  0.00    -0.314 N 
ATOM     13  C   UNL     1       7.358  -8.298   5.361  0.00  0.00    +0.125 C 
ATOM     14  C   UNL     1       7.231  -8.493   3.849  0.00  0.00    +0.126 C 
ATOM     15  C   UNL     1       9.275  -9.174   6.676  0.00  0.00    +0.099 A 
ATOM     16  C   UNL     1      10.595  -9.064   7.099  0.00  0.00    +0.042 A 
ATOM     17  C   UNL     1      11.072  -9.945   8.053  0.00  0.00    +0.005 A 
ATOM     18  C   UNL     1      10.208 -10.911   8.553  0.00  0.00    +0.018 A 
ATOM     19  C   UNL     1       8.909 -10.963   8.087  0.00  0.00    +0.084 A 
ATOM     20  N   UNL     1       8.481 -10.105   7.180  0.00  0.00    -0.350 N 
ATOM     21  H   UNL     1       7.562 -10.161   6.873  0.00  0.00    +0.166 HD
ENDBRANCH   6   7
BRANCH   1  27
ATOM     22  C   UNL     1       6.587  -1.848   3.735  0.00  0.00    +0.185 C 
ATOM     23  C   UNL     1       7.124  -0.687   4.598  0.00  0.00    +0.035 C 
ATOM     24  C   UNL     1       8.469  -1.245   5.133  0.00  0.00    +0.021 C 
ATOM     25  C   UNL     1       8.960  -2.084   3.927  0.00  0.00    +0.109 C 
ATOM     26  N   UNL     1       7.735  -2.687   3.362  0.00  0.00    -0.288 N 
ATOM     27  C   UNL     1       7.678  -3.815   2.627  0.00  0.00    +0.220 C 
ATOM     28  O   UNL     1       6.611  -4.216   2.214  0.00  0.00    -0.275 OA
BRANCH  22  29
ATOM     29  C   UNL     1       5.925  -1.303   2.496  0.00  0.00    +0.328 C 
ATOM     30  O   UNL     1       6.360  -1.587   1.405  0.00  0.00    -0.249 OA
BRANCH  29  31
ATOM     31  O   UNL     1       4.853  -0.503   2.604  0.00  0.00    -0.459 OA
BRANCH  31  32
ATOM     32  C   UNL     1       4.277  -0.022   1.387  0.00  0.00    +0.267 C 
BRANCH  32  36
ATOM     33  C   UNL     1       0.920   2.462   2.283  0.00  0.00    +0.000 A 
ATOM     34  C   UNL     1       2.182   3.017   2.177  0.00  0.00    +0.000 A 
ATOM     35  C   UNL     1       3.268   2.213   1.887  0.00  0.00    +0.007 A 
ATOM     36  C   UNL     1       3.093   0.854   1.704  0.00  0.00    -0.010 A 
ATOM     37  C   UNL     1       1.831   0.299   1.812  0.00  0.00    +0.007 A 
ATOM     38  C   UNL     1       0.745   1.104   2.100  0.00  0.00    +0.000 A 
ENDBRANCH  32  36
ENDBRANCH  31  32
ENDBRANCH  29  31
ENDBRANCH  22  29
ENDBRANCH   1  27
TORSDOF 6
