REMARK  Name = ZINC09092817
REMARK  5 active torsions:
REMARK  status: ('A' for Active; 'I' for Inactive)
REMARK    1  A    between atoms: C_1  and  C_2
REMARK    2  A    between atoms: C_2  and  C_21
REMARK    3  A    between atoms: N_5  and  C_9
REMARK    4  A    between atoms: C_9  and  C_10
REMARK    5  A    between atoms: N_12  and  C_13
REMARK                            x       y       z     vdW  Elec       q    Type
REMARK                         _______ _______ _______ _____ _____    ______ ____
ROOT
ATOM      1  C   UNL     1       8.705  -1.519  -0.764  0.00  0.00    +0.047 C 
ATOM      2  C   UNL     1       8.909  -0.089  -0.260  0.00  0.00    +0.135 C 
ATOM      3  C   UNL     1       7.842   0.831  -0.819  0.00  0.00    +0.251 C 
ATOM      4  O   UNL     1       7.632   1.085  -1.986  0.00  0.00    -0.272 OA
ATOM      5  N   UNL     1       7.175   1.306   0.251  0.00  0.00    -0.215 N 
ATOM      6  C   UNL     1       7.670   0.824   1.396  0.00  0.00    +0.310 C 
ATOM      7  O   UNL     1       7.236   1.112   2.494  0.00  0.00    -0.252 OA
ATOM      8  N   UNL     1       8.700  -0.018   1.196  0.00  0.00    -0.281 N 
ATOM      9  H   UNL     1       9.207  -0.485   1.878  0.00  0.00    +0.152 HD
ENDROOT
BRANCH   2  10
ATOM     10  C   UNL     1      10.284   0.409  -0.626  0.00  0.00    -0.012 A 
ATOM     11  C   UNL     1      10.471   1.115  -1.801  0.00  0.00    +0.010 A 
ATOM     12  C   UNL     1      11.730   1.574  -2.141  0.00  0.00    +0.050 A 
ATOM     13  C   UNL     1      12.807   1.330  -1.304  0.00  0.00    +0.166 A 
ATOM     14  C   UNL     1      12.618   0.619  -0.121  0.00  0.00    +0.167 A 
ATOM     15  C   UNL     1      11.353   0.166   0.215  0.00  0.00    +0.055 A 
ATOM     16  O   UNL     1      13.818   0.511   0.519  0.00  0.00    -0.453 OA
ATOM     17  C   UNL     1      14.814   0.806  -0.478  0.00  0.00    +0.466 C 
ATOM     18  O   UNL     1      14.126   1.667  -1.404  0.00  0.00    -0.453 OA
ENDBRANCH   2  10
BRANCH   5  19
ATOM     19  C   UNL     1       6.050   2.241   0.170  0.00  0.00    +0.214 C 
BRANCH  19  20
ATOM     20  C   UNL     1       4.760   1.468   0.065  0.00  0.00    +0.235 C 
ATOM     21  O   UNL     1       4.779   0.255   0.059  0.00  0.00    -0.274 OA
ATOM     22  N   UNL     1       3.586   2.124  -0.021  0.00  0.00    -0.283 N 
ATOM     23  H   UNL     1       3.575   3.091  -0.097  0.00  0.00    +0.155 HD
BRANCH  22  24
ATOM     24  C   UNL     1       2.382   1.410  -0.002  0.00  0.00    +0.053 A 
ATOM     25  C   UNL     1       2.325   0.160   0.600  0.00  0.00    +0.044 A 
ATOM     26  C   UNL     1       1.135  -0.543   0.617  0.00  0.00    +0.043 A 
ATOM     27  C   UNL     1       0.001  -0.002   0.035  0.00  0.00    +0.021 A 
ATOM     28  C   UNL     1       0.056   1.242  -0.566  0.00  0.00    +0.023 A 
ATOM     29  C   UNL     1       1.243   1.950  -0.586  0.00  0.00    +0.062 A 
ATOM     30 CL   UNL     1       1.310   3.512  -1.340  0.00  0.00    -0.082 Cl
ATOM     31 CL   UNL     1       1.061  -2.106   1.368  0.00  0.00    -0.083 Cl
ENDBRANCH  22  24
ENDBRANCH  19  20
ENDBRANCH   5  19
TORSDOF 4
