REMARK  Name = ZINC33058454
REMARK  11 active torsions:
REMARK  status: ('A' for Active; 'I' for Inactive)
REMARK    1  A    between atoms: C_1  and  C_2
REMARK    2  A    between atoms: C_2  and  C_3
REMARK    3  A    between atoms: C_8  and  N_9
REMARK    4  A    between atoms: N_9  and  C_10
REMARK    5  A    between atoms: C_11  and  S_25
REMARK    6  A    between atoms: C_12  and  N_24
REMARK    7  A    between atoms: C_13  and  C_15
REMARK    8  A    between atoms: C_15  and  C_17
REMARK    9  A    between atoms: S_25  and  C_28
REMARK   10  A    between atoms: C_31  and  O_34
REMARK   11  A    between atoms: O_34  and  C_35
REMARK                            x       y       z     vdW  Elec       q    Type
REMARK                         _______ _______ _______ _____ _____    ______ ____
ROOT
ATOM      1  C   UNL     1      -3.460   1.675   0.276  0.00  0.00    +0.098 A 
ATOM      2  C   UNL     1      -2.234   1.052   0.147  0.00  0.00    +0.143 A 
ATOM      3  C   UNL     1      -1.094   1.815   0.192  0.00  0.00    +0.070 A 
ATOM      4  C   UNL     1      -1.230   3.197   0.373  0.00  0.00    +0.084 A 
ATOM      5  S   UNL     1      -3.002   3.389   0.467  0.00  0.00    -0.066 S 
ENDROOT
BRANCH   3   6
ATOM      6  N   UNL     1       0.161   1.231   0.066  0.00  0.00    -0.355 N 
ATOM      7  H   UNL     1       1.065   1.856   0.104  0.00  0.00    +0.142 HD
ATOM      8  H   UNL     1       0.251   0.143  -0.071  0.00  0.00    +0.142 HD
ENDBRANCH   3   6
BRANCH   2   9
ATOM      9  S   UNL     1      -2.136  -0.694  -0.072  0.00  0.00    +0.029 S 
ATOM     10  O   UNL     1      -3.388  -1.108  -0.602  0.00  0.00    -0.164 OA
ATOM     11  O   UNL     1      -0.905  -0.951  -0.735  0.00  0.00    -0.164 OA
BRANCH   9  12
ATOM     12  C   UNL     1      -2.004  -1.413   1.531  0.00  0.00    +0.094 A 
ATOM     13  C   UNL     1      -0.758  -1.625   2.092  0.00  0.00    +0.031 A 
ATOM     14  C   UNL     1      -0.652  -2.184   3.351  0.00  0.00    +0.047 A 
ATOM     15  C   UNL     1      -1.797  -2.543   4.047  0.00  0.00    +0.120 A 
ATOM     16  C   UNL     1      -3.046  -2.335   3.480  0.00  0.00    +0.047 A 
ATOM     17  C   UNL     1      -3.146  -1.771   2.223  0.00  0.00    +0.031 A 
BRANCH  15  18
ATOM     18  O   UNL     1      -1.695  -3.098   5.284  0.00  0.00    -0.495 OA
ATOM     19  C   UNL     1      -0.378  -3.283   5.806  0.00  0.00    +0.277 C 
ENDBRANCH  15  18
ENDBRANCH   9  12
ENDBRANCH   2   9
BRANCH   1  20
ATOM     20  N   UNL     1      -4.724   1.112   0.262  0.00  0.00    -0.307 N 
ATOM     21  H   UNL     1      -4.844   0.034   0.079  0.00  0.00    +0.153 HD
BRANCH  20  27
ATOM     22  C   UNL     1      -7.040   1.634  -0.177  0.00  0.00    -0.026 A 
ATOM     23  C   UNL     1      -8.150   2.425   0.043  0.00  0.00    +0.005 A 
ATOM     24  C   UNL     1      -8.073   3.501   0.909  0.00  0.00    +0.000 A 
ATOM     25  C   UNL     1      -6.887   3.785   1.560  0.00  0.00    +0.002 A 
ATOM     26  C   UNL     1      -5.774   2.995   1.348  0.00  0.00    +0.023 A 
ATOM     27  C   UNL     1      -5.848   1.913   0.479  0.00  0.00    +0.035 A 
BRANCH  22  29
ATOM     28  C   UNL     1      -7.428  -0.810  -0.338  0.00  0.00    +0.009 C 
ATOM     29  C   UNL     1      -7.122   0.465  -1.126  0.00  0.00    +0.033 C 
ENDBRANCH  22  29
ENDBRANCH  20  27
ENDBRANCH   1  20
BRANCH   4  30
ATOM     30  C   UNL     1      -0.228   4.180   0.457  0.00  0.00    +0.202 C 
ATOM     31  O   UNL     1       0.946   3.852   0.510  0.00  0.00    -0.286 OA
BRANCH  30  32
ATOM     32  C   UNL     1      -0.597   5.612   0.480  0.00  0.00    +0.023 A 
ATOM     33  C   UNL     1       0.192   6.528   1.178  0.00  0.00    +0.014 A 
ATOM     34  C   UNL     1      -0.154   7.862   1.193  0.00  0.00    +0.039 A 
ATOM     35  C   UNL     1      -1.289   8.294   0.525  0.00  0.00    +0.123 A 
ATOM     36  C   UNL     1      -2.079   7.388  -0.166  0.00  0.00    +0.039 A 
ATOM     37  C   UNL     1      -1.739   6.052  -0.191  0.00  0.00    +0.014 A 
ATOM     38  F   UNL     1      -1.626   9.602   0.546  0.00  0.00    -0.205 F 
ENDBRANCH  30  32
ENDBRANCH   4  30
TORSDOF 9
