REMARK  Name = ZINC33880053
REMARK  10 active torsions:
REMARK  status: ('A' for Active; 'I' for Inactive)
REMARK    1  A    between atoms: C_4  and  O_7
REMARK    2  A    between atoms: O_7  and  C_8
REMARK    3  A    between atoms: C_8  and  C_9
REMARK    4  A    between atoms: C_9  and  N_10
REMARK    5  A    between atoms: C_15  and  C_28
REMARK    6  A    between atoms: C_18  and  C_23
REMARK    7  A    between atoms: C_18  and  C_25
REMARK    8  A    between atoms: C_23  and  O_24
REMARK    9  A    between atoms: C_31  and  O_34
REMARK   10  A    between atoms: O_34  and  C_35
REMARK                            x       y       z     vdW  Elec       q    Type
REMARK                         _______ _______ _______ _____ _____    ______ ____
ROOT
ATOM      1  N   UNL     1       4.857  -3.266   1.796  0.00  0.00    -0.238 N 
ATOM      2  C   UNL     1       5.670  -2.166   1.914  0.00  0.00    +0.224 C 
ATOM      3  O   UNL     1       5.764  -1.228   1.151  0.00  0.00    -0.275 OA
ATOM      4  C   UNL     1       6.390  -2.375   3.149  0.00  0.00    +0.077 C 
ATOM      5  C   UNL     1       7.168  -1.621   4.143  0.00  0.00    -0.027 C 
ATOM      6  N   UNL     1       7.170  -2.502   5.357  0.00  0.00    +0.397 N 
ATOM      7  C   UNL     1       6.288  -3.678   5.063  0.00  0.00    +0.071 C 
ATOM      8  C   UNL     1       5.295  -3.088   4.039  0.00  0.00    +0.088 C 
ATOM      9  C   UNL     1       4.776  -3.989   2.952  0.00  0.00    +0.225 C 
ATOM     10  O   UNL     1       4.370  -5.124   3.077  0.00  0.00    -0.275 OA
ATOM     11  H   UNL     1       8.109  -2.817   5.549  0.00  0.00    -0.083 HD
ATOM     12  H   UNL     1       6.809  -1.993   6.150  0.00  0.00    -0.083 HD
ENDROOT
BRANCH   5  13
ATOM     13  C   UNL     1       6.501  -0.304   4.445  0.00  0.00    -0.060 A 
ATOM     14  C   UNL     1       5.433  -0.256   5.322  0.00  0.00    +0.005 A 
ATOM     15  C   UNL     1       4.820   0.950   5.601  0.00  0.00    +0.046 A 
ATOM     16  C   UNL     1       5.278   2.114   5.001  0.00  0.00    +0.128 A 
ATOM     17  C   UNL     1       6.350   2.064   4.121  0.00  0.00    +0.046 A 
ATOM     18  C   UNL     1       6.962   0.856   3.850  0.00  0.00    +0.005 A 
BRANCH  16  19
ATOM     19  O   UNL     1       4.676   3.302   5.274  0.00  0.00    -0.456 OA
BRANCH  19  20
ATOM     20  C   UNL     1       3.710   3.323   6.228  0.00  0.00    +0.128 A 
ATOM     21  C   UNL     1       4.057   3.273   7.571  0.00  0.00    +0.046 A 
ATOM     22  C   UNL     1       3.073   3.295   8.539  0.00  0.00    +0.004 A 
ATOM     23  C   UNL     1       1.742   3.366   8.172  0.00  0.00    +0.000 A 
ATOM     24  C   UNL     1       1.392   3.416   6.835  0.00  0.00    +0.004 A 
ATOM     25  C   UNL     1       2.373   3.401   5.863  0.00  0.00    +0.046 A 
ENDBRANCH  19  20
ENDBRANCH  16  19
ENDBRANCH   5  13
BRANCH   7  26
ATOM     26  C   UNL     1       5.561  -4.124   6.305  0.00  0.00    +0.348 C 
ATOM     27  O   UNL     1       5.757  -3.553   7.364  0.00  0.00    -0.248 OA
ATOM     28  O   UNL     1       4.775  -5.055   6.251  0.00  0.00    -0.248 OA
ENDBRANCH   7  26
BRANCH   1  29
ATOM     29  C   UNL     1       4.149  -3.622   0.565  0.00  0.00    +0.157 C 
BRANCH  29  30
ATOM     30  C   UNL     1       2.774  -2.950   0.554  0.00  0.00    +0.248 C 
BRANCH  30  31
ATOM     31  O   UNL     1       2.938  -1.531   0.499  0.00  0.00    -0.490 OA
BRANCH  31  35
ATOM     32  C   UNL     1      -0.498   0.751   0.449  0.00  0.00    +0.000 A 
ATOM     33  C   UNL     1       0.740   1.366   0.413  0.00  0.00    +0.004 A 
ATOM     34  C   UNL     1       1.892   0.604   0.430  0.00  0.00    +0.045 A 
ATOM     35  C   UNL     1       1.806  -0.779   0.483  0.00  0.00    +0.121 A 
ATOM     36  C   UNL     1       0.563  -1.394   0.520  0.00  0.00    +0.045 A 
ATOM     37  C   UNL     1      -0.586  -0.628   0.502  0.00  0.00    +0.004 A 
ENDBRANCH  31  35
ENDBRANCH  30  31
ENDBRANCH  29  30
ENDBRANCH   1  29
BRANCH   7  38
ATOM     38  C   UNL     1       7.101  -4.829   4.466  0.00  0.00    +0.155 C 
BRANCH  38  39
ATOM     39  O   UNL     1       8.169  -5.168   5.353  0.00  0.00    -0.396 OA
ATOM     40  H   UNL     1       8.727  -5.892   5.038  0.00  0.00    +0.209 HD
ENDBRANCH  38  39
ENDBRANCH   7  38
TORSDOF 10
