REMARK  Name = ZINC39486223
REMARK  6 active torsions:
REMARK  status: ('A' for Active; 'I' for Inactive)
REMARK    1  A    between atoms: C_1  and  O_2
REMARK    2  A    between atoms: O_2  and  C_3
REMARK    3  A    between atoms: C_5  and  C_27
REMARK    4  A    between atoms: C_7  and  C_20
REMARK    5  A    between atoms: C_27  and  C_29
REMARK    6  A    between atoms: C_34  and  O_35
REMARK                            x       y       z     vdW  Elec       q    Type
REMARK                         _______ _______ _______ _____ _____    ______ ____
ROOT
ATOM      1  C   UNL     1       0.652  -0.570  -1.138  0.00  0.00    +0.200 C 
ATOM      2  C   UNL     1       0.043  -1.942  -1.457  0.00  0.00    +0.108 C 
ATOM      3  C   UNL     1       0.685  -2.497  -2.726  0.00  0.00    +0.063 C 
ATOM      4  C   UNL     1       2.184  -2.535  -2.607  0.00  0.00    -0.025 A 
ATOM      5  C   UNL     1       2.899  -3.405  -3.407  0.00  0.00    +0.054 A 
ATOM      6  C   UNL     1       4.283  -3.463  -3.324  0.00  0.00    +0.167 A 
ATOM      7  C   UNL     1       4.967  -2.638  -2.429  0.00  0.00    +0.167 A 
ATOM      8  C   UNL     1       4.264  -1.765  -1.624  0.00  0.00    +0.061 A 
ATOM      9  C   UNL     1       2.868  -1.711  -1.708  0.00  0.00    +0.028 A 
ATOM     10  C   UNL     1       2.121  -0.784  -0.840  0.00  0.00    +0.193 C 
ATOM     11  O   UNL     1       2.664  -0.213   0.083  0.00  0.00    -0.289 OA
ATOM     12  O   UNL     1       6.305  -2.886  -2.542  0.00  0.00    -0.453 OA
ATOM     13  C   UNL     1       6.403  -4.155  -3.216  0.00  0.00    +0.466 C 
ATOM     14  O   UNL     1       5.194  -4.224  -3.994  0.00  0.00    -0.453 OA
ENDROOT
BRANCH   3  15
ATOM     15  C   UNL     1       0.175  -3.894  -2.967  0.00  0.00    -0.038 A 
ATOM     16  C   UNL     1       0.381  -4.879  -2.018  0.00  0.00    +0.004 A 
ATOM     17  C   UNL     1      -0.087  -6.161  -2.238  0.00  0.00    +0.002 A 
ATOM     18  C   UNL     1      -0.761  -6.459  -3.407  0.00  0.00    +0.020 A 
ATOM     19  C   UNL     1      -0.968  -5.475  -4.357  0.00  0.00    +0.041 A 
ATOM     20  C   UNL     1      -0.504  -4.190  -4.133  0.00  0.00    +0.024 A 
ATOM     21 CL   UNL     1      -1.814  -5.849  -5.826  0.00  0.00    -0.084 Cl
ENDBRANCH   3  15
BRANCH   1  23
ATOM     22  C   UNL     1      -0.017   1.425   0.010  0.00  0.00    +0.195 C 
ATOM     23  O   UNL     1       0.002  -0.004   0.002  0.00  0.00    -0.371 OA
ENDBRANCH   1  23
BRANCH   2  24
ATOM     24  C   UNL     1      -1.442  -1.796  -1.667  0.00  0.00    +0.173 C 
ATOM     25  O   UNL     1      -1.886  -1.661  -2.788  0.00  0.00    -0.292 OA
BRANCH  24  26
ATOM     26  C   UNL     1      -2.352  -1.818  -0.515  0.00  0.00    +0.059 A 
ATOM     27  C   UNL     1      -1.844  -1.968   0.781  0.00  0.00    +0.015 A 
ATOM     28  C   UNL     1      -2.703  -1.987   1.856  0.00  0.00    +0.001 A 
ATOM     29  C   UNL     1      -4.070  -1.859   1.663  0.00  0.00    +0.004 A 
ATOM     30  C   UNL     1      -4.586  -1.711   0.391  0.00  0.00    +0.046 A 
ATOM     31  C   UNL     1      -3.737  -1.683  -0.705  0.00  0.00    +0.127 A 
BRANCH  31  32
ATOM     32  O   UNL     1      -4.241  -1.531  -1.955  0.00  0.00    -0.506 OA
ATOM     33  H   UNL     1      -4.463  -2.364  -2.393  0.00  0.00    +0.292 HD
ENDBRANCH  31  32
ENDBRANCH  24  26
ENDBRANCH   2  24
TORSDOF 5
