REMARK  Name = ZINC13640450
REMARK  10 active torsions:
REMARK  status: ('A' for Active; 'I' for Inactive)
REMARK    1  A    between atoms: C_1  and  C_2
REMARK    2  A    between atoms: C_2  and  C_3
REMARK    3  A    between atoms: C_3  and  N_4
REMARK    4  A    between atoms: N_4  and  C_5
REMARK    5  A    between atoms: C_5  and  C_6
REMARK    6  A    between atoms: C_6  and  C_7
REMARK    7  A    between atoms: C_8  and  C_10
REMARK    8  A    between atoms: C_23  and  C_26
REMARK    9  A    between atoms: C_29  and  O_33
REMARK   10  A    between atoms: C_31  and  O_32
REMARK                            x       y       z     vdW  Elec       q    Type
REMARK                         _______ _______ _______ _____ _____    ______ ____
ROOT
ATOM      1  C   UNL     1      -1.284  -1.593  -2.106  0.00  0.00    +0.037 A 
ATOM      2  C   UNL     1      -1.703  -1.485  -0.776  0.00  0.00    +0.015 A 
ATOM      3  C   UNL     1      -2.239  -2.581  -0.142  0.00  0.00    +0.024 A 
ATOM      4  C   UNL     1      -2.353  -3.795  -0.816  0.00  0.00    +0.031 A 
ATOM      5  C   UNL     1      -1.933  -3.916  -2.135  0.00  0.00    -0.019 A 
ATOM      6  C   UNL     1      -1.401  -2.811  -2.776  0.00  0.00    +0.019 A 
ATOM      7  C   UNL     1      -2.032  -5.203  -2.892  0.00  0.00    +0.049 C 
ATOM      8  C   UNL     1      -3.163  -5.169  -3.892  0.00  0.00    -0.023 C 
ATOM      9  C   UNL     1      -3.737  -6.345  -3.968  0.00  0.00    -0.030 C 
ATOM     10  C   UNL     1      -3.062  -7.327  -3.030  0.00  0.00    +0.033 C 
ATOM     11  C   UNL     1      -2.362  -6.406  -1.988  0.00  0.00    +0.029 C 
ATOM     12  C   UNL     1      -3.416  -6.006  -0.951  0.00  0.00    +0.108 C 
ATOM     13  N   UNL     1      -2.897  -4.892  -0.151  0.00  0.00    -0.336 N 
ATOM     14  H   UNL     1      -2.931  -4.918   0.818  0.00  0.00    +0.147 HD
ENDROOT
BRANCH  12  15
ATOM     15  C   UNL     1      -4.678  -5.578  -1.654  0.00  0.00    +0.015 A 
ATOM     16  C   UNL     1      -4.850  -4.256  -2.020  0.00  0.00    +0.012 A 
ATOM     17  C   UNL     1      -6.006  -3.861  -2.665  0.00  0.00    +0.046 A 
ATOM     18  C   UNL     1      -6.997  -4.790  -2.948  0.00  0.00    +0.120 A 
ATOM     19  C   UNL     1      -6.827  -6.116  -2.582  0.00  0.00    +0.091 A 
ATOM     20  C   UNL     1      -5.664  -6.512  -1.939  0.00  0.00    +0.125 A 
BRANCH  20  21
ATOM     21  O   UNL     1      -5.492  -7.812  -1.584  0.00  0.00    -0.506 OA
ATOM     22  H   UNL     1      -5.822  -8.026  -0.701  0.00  0.00    +0.292 HD
ENDBRANCH  20  21
BRANCH  18  23
ATOM     23  O   UNL     1      -8.134  -4.400  -3.582  0.00  0.00    -0.507 OA
ATOM     24  H   UNL     1      -8.085  -4.454  -4.546  0.00  0.00    +0.292 HD
ENDBRANCH  18  23
ENDBRANCH  12  15
BRANCH   1  26
ATOM     25  N   UNL     1       0.100   0.423  -2.135  0.00  0.00    -0.298 N 
ATOM     26  C   UNL     1      -0.714  -0.422  -2.798  0.00  0.00    +0.247 C 
ATOM     27  O   UNL     1      -0.979  -0.218  -3.967  0.00  0.00    -0.270 OA
BRANCH  25  28
ATOM     28  C   UNL     1       0.623   1.615  -2.806  0.00  0.00    +0.108 C 
BRANCH  28  30
ATOM     29  C   UNL     1       0.139   3.987  -3.424  0.00  0.00    +0.005 C 
ATOM     30  C   UNL     1      -0.408   2.742  -2.723  0.00  0.00    +0.016 C 
ENDBRANCH  28  30
ENDBRANCH  25  28
BRANCH  25  31
ATOM     31  C   UNL     1       0.461   0.149  -0.742  0.00  0.00    +0.108 C 
BRANCH  31  32
ATOM     32  C   UNL     1      -0.302   1.102   0.180  0.00  0.00    +0.016 C 
ATOM     33  C   UNL     1      -0.045   0.716   1.638  0.00  0.00    +0.005 C 
ENDBRANCH  31  32
ENDBRANCH  25  31
ENDBRANCH   1  26
TORSDOF 8
