REMARK  Name = ZINC03105576
REMARK  8 active torsions:
REMARK  status: ('A' for Active; 'I' for Inactive)
REMARK    1  A    between atoms: C_1  and  C_2
REMARK    2  A    between atoms: C_2  and  C_3
REMARK    3  A    between atoms: C_2  and  C_4
REMARK    4  A    between atoms: C_2  and  C_5
REMARK    5  A    between atoms: C_8  and  C_11
REMARK    6  A    between atoms: N_13  and  C_15
REMARK    7  A    between atoms: C_15  and  C_35
REMARK    8  A    between atoms: N_23  and  C_28
REMARK                            x       y       z     vdW  Elec       q    Type
REMARK                         _______ _______ _______ _____ _____    ______ ____
ROOT
ATOM      1  C   UNL     1      -0.334   5.109   0.788  0.00  0.00    +0.240 C 
ATOM      2  C   UNL     1      -0.308   3.686   0.282  0.00  0.00    +0.097 A 
ATOM      3  C   UNL     1       0.728   2.782   0.016  0.00  0.00    +0.262 A 
ATOM      4  O   UNL     1       1.889   3.106   0.196  0.00  0.00    -0.267 OA
ATOM      5  N   UNL     1       0.427   1.548  -0.441  0.00  0.00    -0.274 N 
ATOM      6  H   UNL     1       1.160   0.895  -0.633  0.00  0.00    +0.173 HD
ATOM      7  C   UNL     1      -0.856   1.195  -0.638  0.00  0.00    +0.335 A 
ATOM      8  O   UNL     1      -1.109   0.079  -1.050  0.00  0.00    -0.246 OA
ATOM      9  N   UNL     1      -1.863   2.050  -0.394  0.00  0.00    -0.249 N 
ATOM     10  C   UNL     1      -1.606   3.321   0.079  0.00  0.00    +0.125 A 
ATOM     11  N   UNL     1      -2.461   4.348   0.399  0.00  0.00    -0.269 N 
ATOM     12  C   UNL     1      -1.811   5.445   0.827  0.00  0.00    +0.256 C 
ATOM     13  O   UNL     1      -2.309   6.495   1.175  0.00  0.00    -0.272 OA
ATOM     14  H   UNL     1      -3.426   4.289   0.324  0.00  0.00    +0.156 HD
ENDROOT
BRANCH   9  15
ATOM     15  C   UNL     1      -3.187   1.646  -0.618  0.00  0.00    +0.053 A 
ATOM     16  C   UNL     1      -3.771   0.691   0.203  0.00  0.00    +0.029 A 
ATOM     17  C   UNL     1      -5.076   0.298  -0.016  0.00  0.00    +0.040 A 
ATOM     18  C   UNL     1      -5.800   0.849  -1.060  0.00  0.00    +0.124 A 
ATOM     19  C   UNL     1      -5.218   1.798  -1.883  0.00  0.00    +0.040 A 
ATOM     20  C   UNL     1      -3.914   2.197  -1.664  0.00  0.00    +0.029 A 
ATOM     21  F   UNL     1      -7.075   0.459  -1.277  0.00  0.00    -0.205 F 
ENDBRANCH   9  15
BRANCH   1  24
ATOM     22  C   UNL     1      -0.001   6.071  -1.425  0.00  0.00    +0.245 C 
ATOM     23  O   UNL     1      -0.987   5.470  -1.805  0.00  0.00    -0.270 OA
ATOM     24  N   UNL     1       0.377   5.998  -0.134  0.00  0.00    -0.287 N 
ATOM     25  H   UNL     1       1.120   6.534   0.185  0.00  0.00    +0.151 HD
BRANCH  22  29
ATOM     26  C   UNL     1       2.252   8.403  -4.170  0.00  0.00    -0.042 A 
ATOM     27  C   UNL     1       1.130   7.719  -4.605  0.00  0.00    +0.005 A 
ATOM     28  C   UNL     1       0.394   6.960  -3.719  0.00  0.00    +0.013 A 
ATOM     29  C   UNL     1       0.783   6.882  -2.381  0.00  0.00    +0.037 A 
ATOM     30  C   UNL     1       1.913   7.578  -1.947  0.00  0.00    +0.013 A 
ATOM     31  C   UNL     1       2.643   8.330  -2.845  0.00  0.00    +0.005 A 
BRANCH  26  33
ATOM     32  C   UNL     1       2.157  10.322  -5.737  0.00  0.00    +0.015 C 
ATOM     33  C   UNL     1       3.050   9.231  -5.143  0.00  0.00    -0.013 C 
ATOM     34  C   UNL     1       4.230   9.878  -4.414  0.00  0.00    +0.015 C 
ATOM     35  C   UNL     1       3.575   8.333  -6.266  0.00  0.00    +0.015 C 
ENDBRANCH  26  33
ENDBRANCH  22  29
ENDBRANCH   1  24
BRANCH   1  36
ATOM     36  C   UNL     1       0.274   5.192   2.190  0.00  0.00    +0.424 C 
ATOM     37  F   UNL     1       1.603   4.759   2.149  0.00  0.00    -0.167 F 
ATOM     38  F   UNL     1      -0.455   4.378   3.064  0.00  0.00    -0.167 F 
ATOM     39  F   UNL     1       0.229   6.516   2.640  0.00  0.00    -0.167 F 
ENDBRANCH   1  36
TORSDOF 5
