REMARK  Name = ZINC67504478
REMARK  7 active torsions:
REMARK  status: ('A' for Active; 'I' for Inactive)
REMARK    1  A    between atoms: C_1  and  C_2
REMARK    2  A    between atoms: C_5  and  C_8
REMARK    3  A    between atoms: C_8  and  O_9
REMARK    4  A    between atoms: O_9  and  C_10
REMARK    5  A    between atoms: C_13  and  C_16
REMARK    6  A    between atoms: C_16  and  N_17
REMARK    7  A    between atoms: N_17  and  C_18
REMARK                            x       y       z     vdW  Elec       q    Type
REMARK                         _______ _______ _______ _____ _____    ______ ____
ROOT
ATOM      1  C   UNL     1       2.117 -10.332  -0.068  0.00  0.00    -0.046 C 
ENDROOT
BRANCH   1   5
ATOM      2  C   UNL     1       1.515  -6.102  -0.013  0.00  0.00    +0.121 A 
ATOM      3  C   UNL     1       0.428  -6.957  -0.116  0.00  0.00    +0.046 A 
ATOM      4  C   UNL     1       0.625  -8.324  -0.134  0.00  0.00    +0.005 A 
ATOM      5  C   UNL     1       1.905  -8.840  -0.049  0.00  0.00    -0.064 A 
ATOM      6  C   UNL     1       2.990  -7.990   0.056  0.00  0.00    +0.005 A 
ATOM      7  C   UNL     1       2.799  -6.622   0.068  0.00  0.00    +0.046 A 
BRANCH   2   8
ATOM      8  O   UNL     1       1.324  -4.756   0.005  0.00  0.00    -0.487 OA
BRANCH   8   9
ATOM      9  C   UNL     1      -0.025  -4.292  -0.081  0.00  0.00    +0.264 C 
BRANCH   9  14
ATOM     10  C   UNL     1      -0.087   1.485   0.048  0.00  0.00    +0.044 C 
ATOM     11  C   UNL     1      -0.071  -0.021   0.015  0.00  0.00    -0.050 A 
ATOM     12  C   UNL     1       0.024  -0.685  -1.195  0.00  0.00    +0.004 A 
ATOM     13  C   UNL     1       0.039  -2.067  -1.226  0.00  0.00    +0.007 A 
ATOM     14  C   UNL     1      -0.040  -2.785  -0.047  0.00  0.00    -0.010 A 
ATOM     15  C   UNL     1      -0.134  -2.122   1.162  0.00  0.00    +0.007 A 
ATOM     16  C   UNL     1      -0.144  -0.740   1.193  0.00  0.00    +0.004 A 
ENDBRANCH   9  14
ENDBRANCH   8   9
ENDBRANCH   2   8
ENDBRANCH   1   5
BRANCH   1  17
ATOM     17  N   UNL     1       2.292 -10.784  -1.455  0.00  0.00    +0.386 N 
ATOM     18  H   UNL     1       1.437 -10.632  -1.968  0.00  0.00    -0.085 HD
ATOM     19  H   UNL     1       3.041 -10.263  -1.886  0.00  0.00    -0.085 HD
BRANCH  17  20
ATOM     20  C   UNL     1       2.622 -12.216  -1.466  0.00  0.00    -0.039 C 
ATOM     21  C   UNL     1       1.441 -13.008  -0.910  0.00  0.00    -0.011 C 
ATOM     22  C   UNL     1       1.714 -14.499  -1.141  0.00  0.00    +0.005 C 
ATOM     23  C   UNL     1       1.633 -14.773  -2.641  0.00  0.00    +0.053 C 
ATOM     24  C   UNL     1       2.493 -13.800  -3.407  0.00  0.00    +0.021 A 
ATOM     25  C   UNL     1       2.933 -12.642  -2.876  0.00  0.00    -0.042 A 
ATOM     26  C   UNL     1       3.723 -11.774  -3.656  0.00  0.00    +0.009 A 
ATOM     27  C   UNL     1       4.039 -12.110  -4.936  0.00  0.00    +0.070 A 
ATOM     28  C   UNL     1       3.570 -13.328  -5.457  0.00  0.00    +0.249 A 
ATOM     29  O   UNL     1       3.844 -13.652  -6.601  0.00  0.00    -0.268 OA
ATOM     30  N   UNL     1       2.820 -14.134  -4.691  0.00  0.00    -0.326 N 
ATOM     31  H   UNL     1       2.502 -14.974  -5.057  0.00  0.00    +0.169 HD
ENDBRANCH  17  20
ENDBRANCH   1  17
TORSDOF 6
