REMARK  Name = ZINC54624986
REMARK  11 active torsions:
REMARK  status: ('A' for Active; 'I' for Inactive)
REMARK    1  A    between atoms: C_1  and  C_2
REMARK    2  A    between atoms: C_2  and  C_3
REMARK    3  A    between atoms: C_3  and  C_4
REMARK    4  A    between atoms: C_4  and  O_5
REMARK    5  A    between atoms: O_5  and  C_6
REMARK    6  A    between atoms: C_6  and  C_8
REMARK    7  A    between atoms: C_9  and  C_37
REMARK    8  A    between atoms: C_13  and  S_28
REMARK    9  A    between atoms: C_16  and  C_18
REMARK   10  A    between atoms: S_28  and  C_29
REMARK   11  A    between atoms: C_29  and  C_30
REMARK                            x       y       z     vdW  Elec       q    Type
REMARK                         _______ _______ _______ _____ _____    ______ ____
ROOT
ATOM      1  C   UNL     1      -4.213  -4.488   0.225  0.00  0.00    +0.082 C 
ATOM      2  C   UNL     1      -4.334  -5.788  -0.085  0.00  0.00    +0.020 C 
ATOM      3  N   UNL     1      -5.554  -6.377  -0.307  0.00  0.00    -0.287 N 
ATOM      4  C   UNL     1      -6.650  -5.539  -0.460  0.00  0.00    +0.219 A 
ATOM      5  N   UNL     1      -7.854  -5.801  -0.890  0.00  0.00    -0.187 NA
ATOM      6  C   UNL     1      -8.589  -4.679  -0.876  0.00  0.00    +0.211 A 
ATOM      7  N   UNL     1      -7.848  -3.687  -0.432  0.00  0.00    -0.141 NA
ATOM      8  N   UNL     1      -6.590  -4.219  -0.153  0.00  0.00    -0.220 N 
ATOM      9  C   UNL     1      -5.394  -3.566   0.376  0.00  0.00    +0.181 C 
ATOM     10  C   UNL     1      -3.089  -6.630  -0.194  0.00  0.00    +0.061 C 
ATOM     11  H   UNL     1      -5.647  -7.341  -0.354  0.00  0.00    +0.155 HD
ENDROOT
BRANCH   9  12
ATOM     12  C   UNL     1      -5.596  -3.243   1.834  0.00  0.00    +0.007 A 
ATOM     13  C   UNL     1      -5.840  -4.120   2.820  0.00  0.00    +0.089 A 
ATOM     14  N   UNL     1      -5.966  -3.459   4.012  0.00  0.00    -0.360 N 
ATOM     15  H   UNL     1      -6.144  -3.880   4.867  0.00  0.00    +0.165 HD
ATOM     16  C   UNL     1      -5.802  -2.106   3.816  0.00  0.00    +0.047 A 
ATOM     17  C   UNL     1      -5.557  -1.911   2.444  0.00  0.00    +0.005 A 
ATOM     18  C   UNL     1      -5.345  -0.623   1.950  0.00  0.00    +0.010 A 
ATOM     19  C   UNL     1      -5.372   0.444   2.803  0.00  0.00    +0.001 A 
ATOM     20  C   UNL     1      -5.610   0.257   4.158  0.00  0.00    +0.002 A 
ATOM     21  C   UNL     1      -5.831  -1.005   4.665  0.00  0.00    +0.026 A 
ENDBRANCH   9  12
BRANCH   1  22
ATOM     22  C   UNL     1      -2.918  -3.962   0.426  0.00  0.00    +0.339 C 
ATOM     23  O   UNL     1      -2.413  -3.250  -0.422  0.00  0.00    -0.245 OA
BRANCH  22  24
ATOM     24  O   UNL     1      -2.241  -4.248   1.558  0.00  0.00    -0.461 OA
BRANCH  24  25
ATOM     25  C   UNL     1      -0.936  -3.681   1.694  0.00  0.00    +0.232 C 
BRANCH  25  26
ATOM     26  C   UNL     1      -0.329  -4.114   3.031  0.00  0.00    +0.041 C 
BRANCH  26  28
ATOM     27  C   UNL     1       1.674  -3.940   4.513  0.00  0.00    +0.004 C 
ATOM     28  C   UNL     1       1.068  -3.507   3.176  0.00  0.00    -0.000 C 
ENDBRANCH  26  28
ENDBRANCH  25  26
ENDBRANCH  24  25
ENDBRANCH  22  24
ENDBRANCH   1  22
BRANCH   6  29
ATOM     29  S   UNL     1     -10.274  -4.553  -1.374  0.00  0.00    -0.080 S 
BRANCH  29  30
ATOM     30  C   UNL     1     -10.711  -6.242  -1.874  0.00  0.00    +0.114 C 
BRANCH  30  31
ATOM     31  C   UNL     1     -12.147  -6.275  -2.329  0.00  0.00    -0.019 A 
ATOM     32  C   UNL     1     -13.155  -6.526  -1.417  0.00  0.00    +0.006 A 
ATOM     33  C   UNL     1     -14.473  -6.557  -1.834  0.00  0.00    +0.000 A 
ATOM     34  C   UNL     1     -14.783  -6.337  -3.163  0.00  0.00    +0.001 A 
ATOM     35  C   UNL     1     -13.776  -6.085  -4.076  0.00  0.00    +0.020 A 
ATOM     36  C   UNL     1     -12.458  -6.049  -3.658  0.00  0.00    +0.045 A 
ATOM     37 CL   UNL     1     -11.193  -5.727  -4.803  0.00  0.00    -0.083 Cl
ENDBRANCH  30  31
ENDBRANCH  29  30
ENDBRANCH   6  29
TORSDOF 9
