REMARK  Name = ZINC43740566
REMARK  5 active torsions:
REMARK  status: ('A' for Active; 'I' for Inactive)
REMARK    1  A    between atoms: C_1  and  C_2
REMARK    2  A    between atoms: C_5  and  O_29
REMARK    3  A    between atoms: C_18  and  C_28
REMARK    4  A    between atoms: C_23  and  N_25
REMARK    5  A    between atoms: O_29  and  C_30
REMARK                            x       y       z     vdW  Elec       q    Type
REMARK                         _______ _______ _______ _____ _____    ______ ____
ROOT
ATOM      1  C   UNL     1       0.256   0.897  -0.623  0.00  0.00    +0.012 C 
ATOM      2  C   UNL     1       0.124  -0.621  -0.426  0.00  0.00    -0.026 C 
ATOM      3  C   UNL     1       0.730  -1.315  -1.651  0.00  0.00    +0.011 C 
ATOM      4  C   UNL     1       2.217  -0.980  -1.772  0.00  0.00    +0.045 C 
ATOM      5  C   UNL     1       2.960  -1.418  -0.509  0.00  0.00    +0.176 C 
ATOM      6  C   UNL     1       2.361  -0.734   0.720  0.00  0.00    +0.048 C 
ATOM      7  C   UNL     1       0.873  -1.054   0.827  0.00  0.00    -0.001 C 
ATOM      8  C   UNL     1       0.269  -0.354   2.045  0.00  0.00    +0.004 C 
ATOM      9  C   UNL     1      -1.183  -0.796   2.190  0.00  0.00    +0.004 C 
ATOM     10  C   UNL     1      -2.016  -0.436   0.952  0.00  0.00    -0.004 C 
ATOM     11  C   UNL     1      -1.357  -0.948  -0.326  0.00  0.00    -0.001 C 
ATOM     12  C   UNL     1      -1.668  -2.426  -0.524  0.00  0.00    +0.005 C 
ATOM     13  C   UNL     1      -3.145  -2.586  -0.932  0.00  0.00    +0.009 C 
ATOM     14  C   UNL     1      -3.984  -1.552  -0.222  0.00  0.00    -0.011 C 
ATOM     15  C   UNL     1      -3.350  -1.146   1.119  0.00  0.00    +0.000 C 
ATOM     16  C   UNL     1      -4.463  -0.301   1.758  0.00  0.00    +0.006 C 
ATOM     17  C   UNL     1      -5.758  -1.067   1.370  0.00  0.00    +0.023 C 
ATOM     18  C   UNL     1      -5.357  -2.070   0.260  0.00  0.00    +0.079 C 
ATOM     19  C   UNL     1      -4.256  -0.348  -1.125  0.00  0.00    +0.013 C 
ENDROOT
BRANCH  18  20
ATOM     20  N   UNL     1      -6.314  -2.028  -0.844  0.00  0.00    -0.314 N 
ATOM     21  C   UNL     1      -7.352  -2.888  -0.869  0.00  0.00    +0.325 C 
ATOM     22  O   UNL     1      -7.492  -3.696   0.024  0.00  0.00    -0.280 OA
ATOM     23  H   UNL     1      -6.202  -1.382  -1.558  0.00  0.00    +0.149 HD
ENDBRANCH  18  20
BRANCH   5  24
ATOM     24  O   UNL     1       2.866  -2.836  -0.364  0.00  0.00    -0.464 OA
BRANCH  24  25
ATOM     25  C   UNL     1       3.830  -3.572  -0.938  0.00  0.00    +0.446 C 
ATOM     26  O   UNL     1       3.804  -4.777  -0.849  0.00  0.00    -0.255 OA
ENDBRANCH  24  25
ENDBRANCH   5  24
TORSDOF 3
