REMARK  Name = ZINC08853844
REMARK  12 active torsions:
REMARK  status: ('A' for Active; 'I' for Inactive)
REMARK    1  A    between atoms: C_1  and  O_2
REMARK    2  A    between atoms: O_2  and  C_3
REMARK    3  A    between atoms: C_5  and  C_11
REMARK    4  A    between atoms: C_7  and  O_9
REMARK    5  A    between atoms: O_9  and  C_10
REMARK    6  A    between atoms: C_11  and  S_12
REMARK    7  A    between atoms: S_12  and  C_13
REMARK    8  A    between atoms: C_15  and  C_18
REMARK    9  A    between atoms: C_18  and  C_19
REMARK   10  A    between atoms: N_21  and  C_22
REMARK   11  A    between atoms: C_25  and  S_28
REMARK   12  A    between atoms: S_28  and  N_31
REMARK                            x       y       z     vdW  Elec       q    Type
REMARK                         _______ _______ _______ _____ _____    ______ ____
ROOT
ATOM      1  C   UNL     1       5.773   6.189   1.322  0.00  0.00    +0.135 A 
ATOM      2  N   UNL     1       4.535   5.740   1.237  0.00  0.00    -0.237 NA
ATOM      3  C   UNL     1       3.707   6.192   0.314  0.00  0.00    +0.058 A 
ATOM      4  C   UNL     1       4.157   7.128  -0.555  0.00  0.00    +0.071 A 
ATOM      5  S   UNL     1       5.834   7.340   0.024  0.00  0.00    -0.069 S 
ENDROOT
BRANCH   1   6
ATOM      6  S   UNL     1       7.039   5.735   2.461  0.00  0.00    -0.094 S 
BRANCH   6   7
ATOM      7  C   UNL     1       8.381   6.803   1.881  0.00  0.00    +0.111 C 
BRANCH   7  10
ATOM      8  C   UNL     1      11.654   5.410   3.157  0.00  0.00    +0.124 A 
ATOM      9  C   UNL     1      10.527   5.617   2.375  0.00  0.00    +0.050 A 
ATOM     10  C   UNL     1       9.604   6.581   2.732  0.00  0.00    -0.030 A 
ATOM     11  C   UNL     1       9.803   7.345   3.866  0.00  0.00    +0.050 A 
ATOM     12  C   UNL     1      10.926   7.138   4.655  0.00  0.00    +0.124 A 
ATOM     13  C   UNL     1      11.854   6.171   4.299  0.00  0.00    +0.091 A 
BRANCH   8  15
ATOM     14  C   UNL     1      13.698   4.303   3.658  0.00  0.00    +0.277 C 
ATOM     15  O   UNL     1      12.561   4.461   2.806  0.00  0.00    -0.495 OA
ENDBRANCH   8  15
BRANCH  12  16
ATOM     16  O   UNL     1      11.119   7.886   5.773  0.00  0.00    -0.495 OA
ATOM     17  C   UNL     1      12.299   7.622   6.535  0.00  0.00    +0.277 C 
ENDBRANCH  12  16
ENDBRANCH   7  10
ENDBRANCH   6   7
ENDBRANCH   1   6
BRANCH   3  18
ATOM     18  C   UNL     1       2.295   5.673   0.225  0.00  0.00    +0.152 C 
BRANCH  18  19
ATOM     19  C   UNL     1       2.318   4.171   0.104  0.00  0.00    +0.223 C 
ATOM     20  O   UNL     1       3.377   3.580   0.091  0.00  0.00    -0.275 OA
ATOM     21  N   UNL     1       1.162   3.485   0.009  0.00  0.00    -0.285 N 
ATOM     22  H   UNL     1       0.319   3.961  -0.058  0.00  0.00    +0.155 HD
BRANCH  21  23
ATOM     23  C   UNL     1       1.177   2.086   0.008  0.00  0.00    +0.034 A 
ATOM     24  C   UNL     1       2.133   1.400   0.745  0.00  0.00    +0.025 A 
ATOM     25  C   UNL     1       2.145   0.019   0.741  0.00  0.00    +0.030 A 
ATOM     26  C   UNL     1       1.206  -0.681   0.005  0.00  0.00    +0.105 A 
ATOM     27  C   UNL     1       0.253  -0.000  -0.730  0.00  0.00    +0.030 A 
ATOM     28  C   UNL     1       0.236   1.381  -0.731  0.00  0.00    +0.025 A 
BRANCH  26  29
ATOM     29  S   UNL     1       1.225  -2.443   0.004  0.00  0.00    +0.056 S 
ATOM     30  O   UNL     1       0.585  -2.854  -1.196  0.00  0.00    -0.153 OA
ATOM     31  O   UNL     1       2.551  -2.835   0.332  0.00  0.00    -0.153 OA
BRANCH  29  32
ATOM     32  N   UNL     1       0.260  -2.944   1.252  0.00  0.00    -0.204 NA
ATOM     33  H   UNL     1      -0.184  -2.290   1.815  0.00  0.00    +0.144 HD
ATOM     34  H   UNL     1       0.138  -3.891   1.421  0.00  0.00    +0.144 HD
ENDBRANCH  29  32
ENDBRANCH  26  29
ENDBRANCH  21  23
ENDBRANCH  18  19
ENDBRANCH   3  18
TORSDOF 10
