REMARK  Name = ZINC35057418
REMARK  2 active torsions:
REMARK  status: ('A' for Active; 'I' for Inactive)
REMARK    1  A    between atoms: C_1  and  C_2
REMARK    2  A    between atoms: N_8  and  C_9
REMARK                            x       y       z     vdW  Elec       q    Type
REMARK                         _______ _______ _______ _____ _____    ______ ____
ROOT
ATOM      1  C   UNL     1      -2.049  -2.750   3.615  0.00  0.00    +0.070 A 
ATOM      2  C   UNL     1      -3.272  -2.303   3.114  0.00  0.00    +0.031 A 
ATOM      3  C   UNL     1      -4.426  -3.013   3.378  0.00  0.00    +0.052 A 
ATOM      4  C   UNL     1      -4.375  -4.170   4.139  0.00  0.00    +0.173 A 
ATOM      5  C   UNL     1      -3.157  -4.622   4.642  0.00  0.00    +0.175 A 
ATOM      6  C   UNL     1      -1.996  -3.917   4.377  0.00  0.00    +0.077 A 
ATOM      7  O   UNL     1      -3.375  -5.768   5.351  0.00  0.00    -0.395 OA
ATOM      8  C   UNL     1      -4.789  -5.790   5.621  0.00  0.00    +0.589 C 
ATOM      9  O   UNL     1      -5.357  -5.035   4.534  0.00  0.00    -0.395 OA
ATOM     10  F   UNL     1      -5.065  -5.172   6.846  0.00  0.00    -0.125 F 
ATOM     11  F   UNL     1      -5.271  -7.103   5.612  0.00  0.00    -0.125 F 
ENDROOT
BRANCH   1  18
ATOM     12  C   UNL     1      -0.019   1.526   0.010  0.00  0.00    +0.021 C 
ATOM     13  C   UNL     1       0.002  -0.004   0.002  0.00  0.00    +0.068 C 
ATOM     14  C   UNL     1      -1.430  -0.587   0.110  0.00  0.00    +0.117 C 
ATOM     15  N   UNL     1      -1.444  -1.741   1.004  0.00  0.00    -0.323 N 
ATOM     16  C   UNL     1      -0.665  -1.603   2.141  0.00  0.00    +0.155 C 
ATOM     17  S   UNL     1       0.744  -0.671   1.550  0.00  0.00    -0.086 S 
ATOM     18  N   UNL     1      -0.901  -2.047   3.354  0.00  0.00    -0.226 NA
ATOM     19  H   UNL     1      -1.959  -2.542   0.817  0.00  0.00    +0.148 HD
ENDBRANCH   1  18
TORSDOF 1
