REMARK  Name = ZINC22429091
REMARK  7 active torsions:
REMARK  status: ('A' for Active; 'I' for Inactive)
REMARK    1  A    between atoms: C_1  and  C_2
REMARK    2  A    between atoms: C_2  and  C_4
REMARK    3  A    between atoms: C_2  and  N_14
REMARK    4  A    between atoms: C_15  and  C_17
REMARK    5  A    between atoms: C_17  and  N_18
REMARK    6  A    between atoms: C_21  and  C_25
REMARK    7  A    between atoms: C_21  and  C_26
REMARK                            x       y       z     vdW  Elec       q    Type
REMARK                         _______ _______ _______ _____ _____    ______ ____
ROOT
ATOM      1  N   UNL     1      -4.076   8.679  -2.083  0.00  0.00    -0.215 N 
ATOM      2  C   UNL     1      -5.302   8.909  -1.574  0.00  0.00    +0.251 C 
ATOM      3  O   UNL     1      -6.133   8.083  -1.263  0.00  0.00    -0.272 OA
ATOM      4  C   UNL     1      -5.426  10.416  -1.470  0.00  0.00    +0.135 C 
ATOM      5  N   UNL     1      -4.137  10.906  -1.988  0.00  0.00    -0.281 N 
ATOM      6  C   UNL     1      -3.417   9.819  -2.320  0.00  0.00    +0.310 C 
ATOM      7  O   UNL     1      -2.294   9.867  -2.782  0.00  0.00    -0.252 OA
ATOM      8  C   UNL     1      -6.581  10.921  -2.337  0.00  0.00    +0.047 C 
ATOM      9  H   UNL     1      -3.938  11.987  -2.036  0.00  0.00    +0.152 HD
ENDROOT
BRANCH   4  10
ATOM     10  C   UNL     1      -5.617  10.839  -0.037  0.00  0.00    -0.012 A 
ATOM     11  C   UNL     1      -6.334  10.035   0.829  0.00  0.00    +0.010 A 
ATOM     12  C   UNL     1      -6.513  10.416   2.147  0.00  0.00    +0.050 A 
ATOM     13  C   UNL     1      -5.970  11.608   2.596  0.00  0.00    +0.162 A 
ATOM     14  C   UNL     1      -5.250  12.416   1.727  0.00  0.00    +0.162 A 
ATOM     15  C   UNL     1      -5.069  12.028   0.410  0.00  0.00    +0.055 A 
ATOM     16  O   UNL     1      -4.719  13.588   2.180  0.00  0.00    -0.488 OA
ATOM     17  C   UNL     1      -5.660  14.610   2.518  0.00  0.00    +0.232 C 
ATOM     18  C   UNL     1      -6.171  14.423   3.938  0.00  0.00    +0.082 C 
ATOM     19  C   UNL     1      -6.969  13.139   4.102  0.00  0.00    +0.232 C 
ATOM     20  O   UNL     1      -6.138  11.996   3.894  0.00  0.00    -0.488 OA
ENDBRANCH   4  10
BRANCH   1  21
ATOM     21  C   UNL     1      -3.533   7.344  -2.350  0.00  0.00    +0.213 C 
BRANCH  21  23
ATOM     22  N   UNL     1      -2.219   5.631  -1.143  0.00  0.00    -0.311 N 
ATOM     23  C   UNL     1      -2.804   6.845  -1.129  0.00  0.00    +0.231 C 
ATOM     24  O   UNL     1      -2.744   7.536  -0.134  0.00  0.00    -0.274 OA
ATOM     25  H   UNL     1      -2.273   5.005  -2.045  0.00  0.00    +0.149 HD
BRANCH  22  27
ATOM     26  C   UNL     1      -0.075   5.675   0.033  0.00  0.00    +0.028 C 
ATOM     27  C   UNL     1      -1.510   5.146   0.044  0.00  0.00    +0.076 C 
BRANCH  27  28
ATOM     28  C   UNL     1      -1.490   3.616   0.036  0.00  0.00    -0.010 C 
ATOM     29  C   UNL     1      -0.773   3.123  -1.223  0.00  0.00    +0.012 C 
ATOM     30  C   UNL     1      -0.753   1.593  -1.232  0.00  0.00    -0.010 C 
ATOM     31  C   UNL     1      -0.013   1.086   0.008  0.00  0.00    +0.007 C 
ATOM     32  C   UNL     1      -0.729   1.579   1.267  0.00  0.00    -0.010 C 
ATOM     33  C   UNL     1      -0.750   3.109   1.275  0.00  0.00    +0.012 C 
ATOM     34  C   UNL     1      -2.164   1.050   1.278  0.00  0.00    +0.007 C 
ATOM     35  C   UNL     1      -2.904   1.556   0.038  0.00  0.00    -0.010 C 
ATOM     36  C   UNL     1      -2.188   1.063  -1.221  0.00  0.00    +0.007 C 
ATOM     37  C   UNL     1      -2.925   3.086   0.047  0.00  0.00    +0.012 C 
ENDBRANCH  27  28
ENDBRANCH  22  27
ENDBRANCH  21  23
ENDBRANCH   1  21
TORSDOF 5
