REMARK  Name = ZINC14123877
REMARK  9 active torsions:
REMARK  status: ('A' for Active; 'I' for Inactive)
REMARK    1  A    between atoms: C_1  and  C_2
REMARK    2  A    between atoms: C_9  and  N_14
REMARK    3  A    between atoms: C_10  and  C_11
REMARK    4  A    between atoms: C_15  and  C_17
REMARK    5  A    between atoms: C_17  and  C_19
REMARK    6  A    between atoms: C_17  and  N_20
REMARK    7  A    between atoms: N_20  and  C_21
REMARK    8  A    between atoms: N_20  and  C_22
REMARK    9  A    between atoms: C_22  and  C_23
REMARK                            x       y       z     vdW  Elec       q    Type
REMARK                         _______ _______ _______ _____ _____    ______ ____
ROOT
ATOM      1  N   UNL     1       1.941  -5.824   1.705  0.00  0.00    -0.278 N 
ATOM      2  C   UNL     1       2.251  -6.082   2.991  0.00  0.00    +0.235 C 
ATOM      3  O   UNL     1       2.229  -5.188   3.811  0.00  0.00    -0.274 OA
ATOM      4  H   UNL     1       1.958  -6.539   1.050  0.00  0.00    +0.155 HD
ENDROOT
BRANCH   1  12
ATOM      5  C   UNL     1      -0.019   1.526   0.010  0.00  0.00    +0.008 C 
ATOM      6  C   UNL     1       0.002  -0.004   0.002  0.00  0.00    -0.009 C 
ATOM      7  C   UNL     1       0.724  -0.500  -1.254  0.00  0.00    +0.008 C 
ATOM      8  C   UNL     1       0.537  -2.012  -1.398  0.00  0.00    +0.037 C 
ATOM      9  C   UNL     1       0.936  -2.680  -0.090  0.00  0.00    -0.021 A 
ATOM     10  C   UNL     1       1.020  -1.978   1.059  0.00  0.00    -0.004 A 
ATOM     11  S   UNL     1       1.508  -3.163   2.277  0.00  0.00    -0.077 S 
ATOM     12  C   UNL     1       1.600  -4.539   1.319  0.00  0.00    +0.086 A 
ATOM     13  C   UNL     1       1.254  -4.092   0.050  0.00  0.00    +0.095 A 
ATOM     14  C   UNL     1       0.750  -0.515   1.242  0.00  0.00    +0.046 C 
BRANCH  13  15
ATOM     15  C   UNL     1       1.214  -4.973  -1.060  0.00  0.00    +0.389 C 
ATOM     16  O   UNL     1       0.906  -4.550  -2.167  0.00  0.00    -0.240 OA
ATOM     17  O   UNL     1       1.488  -6.158  -0.911  0.00  0.00    -0.240 OA
ENDBRANCH  13  15
ENDBRANCH   1  12
BRANCH   2  18
ATOM     18  C   UNL     1       2.622  -7.481   3.412  0.00  0.00    +0.140 C 
ATOM     19  C   UNL     1       1.459  -8.429   3.114  0.00  0.00    +0.034 C 
BRANCH  18  20
ATOM     20  N   UNL     1       2.913  -7.498   4.852  0.00  0.00    -0.288 NA
ATOM     21  C   UNL     1       1.705  -7.207   5.636  0.00  0.00    +0.106 C 
BRANCH  20  22
ATOM     22  C   UNL     1       3.505  -8.781   5.253  0.00  0.00    +0.159 C 
BRANCH  22  23
ATOM     23  C   UNL     1       4.012  -8.679   6.669  0.00  0.00    +0.125 A 
ATOM     24  N   UNL     1       4.603  -9.770   7.222  0.00  0.00    -0.309 N 
ATOM     25  H   UNL     1       4.687 -10.586   6.703  0.00  0.00    +0.170 HD
ATOM     26  C   UNL     1       5.076  -9.730   8.489  0.00  0.00    +0.259 A 
ATOM     27  O   UNL     1       5.608 -10.700   8.997  0.00  0.00    -0.267 OA
ATOM     28  C   UNL     1       4.923  -8.468   9.229  0.00  0.00    +0.065 A 
ATOM     29  C   UNL     1       5.374  -8.322  10.538  0.00  0.00    +0.015 A 
ATOM     30  C   UNL     1       5.204  -7.117  11.185  0.00  0.00    +0.001 A 
ATOM     31  C   UNL     1       4.588  -6.052  10.542  0.00  0.00    +0.002 A 
ATOM     32  C   UNL     1       4.134  -6.176   9.248  0.00  0.00    +0.028 A 
ATOM     33  C   UNL     1       4.295  -7.386   8.572  0.00  0.00    +0.078 A 
ATOM     34  N   UNL     1       3.867  -7.551   7.295  0.00  0.00    -0.232 NA
ENDBRANCH  22  23
ENDBRANCH  20  22
ENDBRANCH  18  20
ENDBRANCH   2  18
TORSDOF 6
