REMARK  Name = ZINC19926546
REMARK  3 active torsions:
REMARK  status: ('A' for Active; 'I' for Inactive)
REMARK    1  A    between atoms: C_1  and  N_2
REMARK    2  A    between atoms: N_20  and  C_23
REMARK    3  A    between atoms: C_23  and  C_24
REMARK                            x       y       z     vdW  Elec       q    Type
REMARK                         _______ _______ _______ _____ _____    ______ ____
ROOT
ATOM      1  C   UNL     1       3.722   8.896 -12.838  0.00  0.00    -0.096 C 
ATOM      2  N   UNL     1       3.624   8.505 -11.425  0.00  0.00    +0.380 N 
ATOM      3  C   UNL     1       2.819   7.285 -11.270  0.00  0.00    -0.060 C 
ATOM      4  C   UNL     1       2.676   6.958  -9.782  0.00  0.00    +0.089 C 
ATOM      5  N   UNL     1       4.010   6.783  -9.190  0.00  0.00    -0.305 N 
ATOM      6  C   UNL     1       4.815   8.003  -9.345  0.00  0.00    +0.089 C 
ATOM      7  C   UNL     1       4.958   8.330 -10.833  0.00  0.00    -0.060 C 
ATOM      8  C   UNL     1       3.919   6.418  -7.870  0.00  0.00    +0.199 A 
ATOM      9  N   UNL     1       5.063   6.315  -7.141  0.00  0.00    -0.294 N 
ATOM     10  H   UNL     1       6.035   6.523  -7.612  0.00  0.00    +0.172 HD
ATOM     11  C   UNL     1       5.076   5.963  -5.835  0.00  0.00    +0.261 A 
ATOM     12  O   UNL     1       6.112   5.878  -5.198  0.00  0.00    -0.267 OA
ATOM     13  C   UNL     1       3.797   5.697  -5.245  0.00  0.00    +0.076 A 
ATOM     14  C   UNL     1       3.536   5.303  -3.873  0.00  0.00    -0.020 A 
ATOM     15  C   UNL     1       2.241   5.103  -3.532  0.00  0.00    +0.010 A 
ATOM     16  S   UNL     1       1.316   5.428  -5.010  0.00  0.00    -0.072 S 
ATOM     17  C   UNL     1       2.663   5.829  -6.079  0.00  0.00    +0.117 A 
ATOM     18  N   UNL     1       2.720   6.181  -7.358  0.00  0.00    -0.208 NA
ATOM     19  C   UNL     1       1.724   4.692  -2.189  0.00  0.00    +0.127 C 
ATOM     20  N   UNL     1       2.859   4.194  -1.388  0.00  0.00    -0.293 NA
ATOM     21  C   UNL     1       3.982   5.141  -1.440  0.00  0.00    +0.090 C 
ATOM     22  C   UNL     1       4.631   5.110  -2.826  0.00  0.00    +0.052 C 
ATOM     23  H   UNL     1       3.117   9.318 -10.885  0.00  0.00    -0.082 HD
ENDROOT
BRANCH  20  24
ATOM     24  C   UNL     1       2.451   3.937  -0.001  0.00  0.00    +0.120 C 
BRANCH  24  25
ATOM     25  C   UNL     1       1.156   3.165   0.008  0.00  0.00    -0.033 A 
ATOM     26  C   UNL     1       1.175   1.783   0.000  0.00  0.00    +0.005 A 
ATOM     27  C   UNL     1      -0.013   1.076   0.008  0.00  0.00    +0.000 A 
ATOM     28  C   UNL     1      -1.219   1.751   0.017  0.00  0.00    +0.000 A 
ATOM     29  C   UNL     1      -1.238   3.133   0.030  0.00  0.00    +0.000 A 
ATOM     30  C   UNL     1      -0.050   3.840   0.023  0.00  0.00    +0.005 A 
ENDBRANCH  24  25
ENDBRANCH  20  24
TORSDOF 2
