REMARK  Name = ZINC39943221
REMARK  9 active torsions:
REMARK  status: ('A' for Active; 'I' for Inactive)
REMARK    1  A    between atoms: C_1  and  C_2
REMARK    2  A    between atoms: C_2  and  O_3
REMARK    3  A    between atoms: O_3  and  C_4
REMARK    4  A    between atoms: C_4  and  C_6
REMARK    5  A    between atoms: C_8  and  N_19
REMARK    6  A    between atoms: C_15  and  C_18
REMARK    7  A    between atoms: C_20  and  C_22
REMARK    8  A    between atoms: C_22  and  S_23
REMARK    9  A    between atoms: S_23  and  C_24
REMARK                            x       y       z     vdW  Elec       q    Type
REMARK                         _______ _______ _______ _____ _____    ______ ____
ROOT
ATOM      1  N   UNL     1      -0.526  -1.456   3.587  0.00  0.00    -0.301 N 
ATOM      2  C   UNL     1      -1.447  -1.806   4.507  0.00  0.00    +0.224 C 
ATOM      3  O   UNL     1      -1.111  -2.411   5.503  0.00  0.00    -0.275 OA
ATOM      4  H   UNL     1      -0.795  -0.972   2.791  0.00  0.00    +0.150 HD
ENDROOT
BRANCH   1   6
ATOM      5  C   UNL     1       1.516  -2.381   2.500  0.00  0.00    +0.155 C 
ATOM      6  C   UNL     1       0.882  -1.808   3.790  0.00  0.00    +0.153 C 
ATOM      7  S   UNL     1       1.062  -3.289   4.871  0.00  0.00    -0.106 S 
ATOM      8  C   UNL     1       1.201  -4.522   3.599  0.00  0.00    -0.012 C 
ATOM      9  C   UNL     1       1.421  -3.885   2.457  0.00  0.00    -0.044 C 
ATOM     10  C   UNL     1       1.576  -4.654   1.146  0.00  0.00    +0.033 C 
ATOM     11  C   UNL     1       0.998  -6.058   1.317  0.00  0.00    +0.008 C 
ATOM     12  C   UNL     1       1.616  -6.717   2.554  0.00  0.00    -0.009 C 
ATOM     13  C   UNL     1       1.085  -6.007   3.799  0.00  0.00    +0.045 C 
ATOM     14  C   UNL     1       1.230  -8.197   2.596  0.00  0.00    +0.008 C 
BRANCH   5  15
ATOM     15  C   UNL     1       0.801  -1.808   1.304  0.00  0.00    +0.317 C 
ATOM     16  O   UNL     1      -0.209  -2.331   0.896  0.00  0.00    -0.250 OA
BRANCH  15  17
ATOM     17  O   UNL     1       1.286  -0.716   0.691  0.00  0.00    -0.464 OA
BRANCH  17  19
ATOM     18  C   UNL     1       1.256   1.012  -0.998  0.00  0.00    +0.048 C 
ATOM     19  C   UNL     1       0.556  -0.228  -0.437  0.00  0.00    +0.229 C 
ENDBRANCH  17  19
ENDBRANCH  15  17
ENDBRANCH   5  15
ENDBRANCH   1   6
BRANCH   2  20
ATOM     20  C   UNL     1      -2.895  -1.444   4.298  0.00  0.00    +0.168 C 
BRANCH  20  21
ATOM     21  S   UNL     1      -3.877  -2.048   5.699  0.00  0.00    -0.102 S 
BRANCH  21  22
ATOM     22  C   UNL     1      -5.572  -1.539   5.298  0.00  0.00    +0.290 C 
ATOM     23  N   UNL     1      -6.003  -0.441   6.178  0.00  0.00    -0.147 NA
ATOM     24  N   UNL     1      -6.978  -0.821   6.829  0.00  0.00    -0.112 NA
ATOM     25  C   UNL     1      -7.359  -2.102   6.553  0.00  0.00    +0.253 A 
ATOM     26  N   UNL     1      -6.518  -2.621   5.593  0.00  0.00    -0.274 N 
ATOM     27  C   UNL     1      -6.918  -3.905   5.329  0.00  0.00    +0.073 A 
ATOM     28  C   UNL     1      -6.468  -4.907   4.476  0.00  0.00    +0.028 A 
ATOM     29  C   UNL     1      -7.112  -6.124   4.450  0.00  0.00    +0.002 A 
ATOM     30  C   UNL     1      -8.207  -6.361   5.270  0.00  0.00    +0.002 A 
ATOM     31  C   UNL     1      -8.666  -5.392   6.115  0.00  0.00    +0.030 A 
ATOM     32  C   UNL     1      -8.030  -4.145   6.160  0.00  0.00    +0.091 A 
ATOM     33  N   UNL     1      -8.247  -3.018   6.878  0.00  0.00    -0.209 NA
ENDBRANCH  21  22
ENDBRANCH  20  21
ENDBRANCH   2  20
TORSDOF 7
