REMARK  Name = ZINC67078647
REMARK  15 active torsions:
REMARK  status: ('A' for Active; 'I' for Inactive)
REMARK    1  A    between atoms: C_1  and  C_2
REMARK    2  A    between atoms: C_2  and  C_3
REMARK    3  A    between atoms: C_3  and  C_5
REMARK    4  A    between atoms: C_3  and  C_6
REMARK    5  A    between atoms: C_6  and  C_8
REMARK    6  A    between atoms: C_6  and  N_22
REMARK    7  A    between atoms: N_10  and  C_11
REMARK    8  A    between atoms: C_11  and  C_12
REMARK    9  A    between atoms: C_12  and  C_13
REMARK   10  A    between atoms: N_17  and  C_18
REMARK   11  A    between atoms: C_23  and  O_25
REMARK   12  A    between atoms: O_25  and  C_26
REMARK   13  A    between atoms: C_26  and  C_27
REMARK   14  A    between atoms: C_26  and  C_28
REMARK   15  A    between atoms: C_26  and  C_29
REMARK                            x       y       z     vdW  Elec       q    Type
REMARK                         _______ _______ _______ _____ _____    ______ ____
ROOT
ATOM      1  C   UNL     1      -2.485   1.543   0.416  0.00  0.00    +0.234 C 
ATOM      2  O   UNL     1      -3.608   1.980   0.556  0.00  0.00    -0.274 OA
ATOM      3  N   UNL     1      -1.420   2.331   0.664  0.00  0.00    -0.313 N 
ATOM      4  H   UNL     1      -0.524   2.005   0.484  0.00  0.00    +0.149 HD
ENDROOT
BRANCH   1   5
ATOM      5  C   UNL     1      -2.281   0.119  -0.034  0.00  0.00    +0.165 C 
BRANCH   5   6
ATOM      6  N   UNL     1      -3.428  -0.692   0.381  0.00  0.00    -0.270 N 
ATOM      7  C   UNL     1      -3.285  -2.021   0.556  0.00  0.00    +0.401 C 
ATOM      8  O   UNL     1      -2.205  -2.545   0.371  0.00  0.00    -0.226 OA
ATOM      9  H   UNL     1      -4.291  -0.274   0.528  0.00  0.00    +0.153 HD
BRANCH   7  10
ATOM     10  O   UNL     1      -4.339  -2.767   0.937  0.00  0.00    -0.445 OA
BRANCH  10  11
ATOM     11  C   UNL     1      -4.115  -4.168   1.105  0.00  0.00    +0.107 C 
ATOM     12  C   UNL     1      -3.046  -4.390   2.177  0.00  0.00    +0.055 C 
ATOM     13  C   UNL     1      -5.418  -4.845   1.536  0.00  0.00    +0.055 C 
ATOM     14  C   UNL     1      -3.642  -4.771  -0.220  0.00  0.00    +0.055 C 
ENDBRANCH  10  11
ENDBRANCH   7  10
ENDBRANCH   5   6
BRANCH   5  15
ATOM     15  C   UNL     1      -2.153   0.080  -1.558  0.00  0.00    +0.015 C 
ATOM     16  C   UNL     1      -3.497   0.443  -2.193  0.00  0.00    +0.010 C 
BRANCH  15  18
ATOM     17  C   UNL     1      -0.372  -1.666  -1.412  0.00  0.00    +0.004 C 
ATOM     18  C   UNL     1      -1.744  -1.327  -1.999  0.00  0.00    +0.002 C 
ENDBRANCH  15  18
ENDBRANCH   5  15
ENDBRANCH   1   5
BRANCH   3  19
ATOM     19  C   UNL     1      -1.615   3.678   1.204  0.00  0.00    +0.112 C 
BRANCH  19  20
ATOM     20  C   UNL     1      -0.255   4.354   1.391  0.00  0.00    +0.095 C 
BRANCH  20  21
ATOM     21  C   UNL     1      -0.456   5.741   1.947  0.00  0.00    +0.134 A 
ATOM     22  N   UNL     1      -1.597   6.281   2.230  0.00  0.00    -0.158 NA
ATOM     23  N   UNL     1      -1.359   7.572   2.721  0.00  0.00    -0.254 N 
ATOM     24  C   UNL     1      -0.024   7.765   2.712  0.00  0.00    +0.176 A 
ATOM     25  N   UNL     1       0.543   6.636   2.241  0.00  0.00    -0.304 N 
ATOM     26  S   UNL     1       0.800   9.179   3.214  0.00  0.00    -0.011 S 
ATOM     27  H   UNL     1      -2.030   8.209   3.013  0.00  0.00    +0.191 HD
BRANCH  25  28
ATOM     28  C   UNL     1       1.980   6.405   2.068  0.00  0.00    +0.091 C 
ATOM     29  C   UNL     1       2.900   7.627   2.099  0.00  0.00    +0.027 C 
ATOM     30  C   UNL     1       2.885   6.651   3.277  0.00  0.00    +0.027 C 
ENDBRANCH  25  28
ENDBRANCH  20  21
ENDBRANCH  19  20
ENDBRANCH   3  19
TORSDOF 10
