REMARK  Name = ZINC24504006
REMARK  5 active torsions:
REMARK  status: ('A' for Active; 'I' for Inactive)
REMARK    1  A    between atoms: C_6  and  C_7
REMARK    2  A    between atoms: C_16  and  C_18
REMARK    3  A    between atoms: C_18  and  S_19
REMARK    4  A    between atoms: S_19  and  C_20
REMARK    5  A    between atoms: N_25  and  C_26
REMARK                            x       y       z     vdW  Elec       q    Type
REMARK                         _______ _______ _______ _____ _____    ______ ____
ROOT
ATOM      1  C   UNL     1      -0.570  -2.023   1.023  0.00  0.00    +0.004 A 
ATOM      2  C   UNL     1      -1.471  -1.861   2.022  0.00  0.00    +0.056 A 
ATOM      3  S   UNL     1      -2.822  -2.916   1.534  0.00  0.00    -0.076 S 
ATOM      4  C   UNL     1      -2.153  -3.543   0.015  0.00  0.00    +0.116 A 
ATOM      5  C   UNL     1      -0.900  -2.916  -0.081  0.00  0.00    +0.080 A 
ATOM      6  C   UNL     1      -0.130  -3.245  -1.241  0.00  0.00    +0.260 A 
ATOM      7  O   UNL     1       0.973  -2.755  -1.411  0.00  0.00    -0.267 OA
ATOM      8  N   UNL     1      -0.641  -4.106  -2.141  0.00  0.00    -0.310 N 
ATOM      9  H   UNL     1      -0.123  -4.333  -2.929  0.00  0.00    +0.170 HD
ATOM     10  C   UNL     1      -1.867  -4.662  -1.968  0.00  0.00    +0.121 A 
ATOM     11  N   UNL     1      -2.590  -4.389  -0.915  0.00  0.00    -0.226 NA
ENDROOT
BRANCH   1  17
ATOM     12  C   UNL     1       0.753   0.074   1.280  0.00  0.00    +0.011 A 
ATOM     13  C   UNL     1       1.961   0.742   1.303  0.00  0.00    +0.039 A 
ATOM     14  C   UNL     1       3.142   0.049   1.098  0.00  0.00    +0.123 A 
ATOM     15  C   UNL     1       3.118  -1.317   0.868  0.00  0.00    +0.039 A 
ATOM     16  C   UNL     1       1.916  -1.994   0.843  0.00  0.00    +0.011 A 
ATOM     17  C   UNL     1       0.724  -1.301   1.049  0.00  0.00    -0.016 A 
ATOM     18  F   UNL     1       4.322   0.707   1.122  0.00  0.00    -0.205 F 
ENDBRANCH   1  17
BRANCH  10  19
ATOM     19  C   UNL     1      -2.398  -5.621  -3.002  0.00  0.00    +0.150 C 
BRANCH  19  20
ATOM     20  S   UNL     1      -4.045  -6.197  -2.503  0.00  0.00    -0.089 S 
BRANCH  20  21
ATOM     21  C   UNL     1      -4.522  -7.294  -3.797  0.00  0.00    +0.160 A 
ATOM     22  N   UNL     1      -3.861  -7.644  -4.884  0.00  0.00    -0.133 NA
ATOM     23  N   UNL     1      -4.426  -8.526  -5.774  0.00  0.00    -0.125 NA
ATOM     24  C   UNL     1      -5.626  -9.019  -5.538  0.00  0.00    +0.187 A 
ATOM     25  S   UNL     1      -6.028  -8.236  -3.983  0.00  0.00    -0.024 S 
ATOM     26  N   UNL     1      -6.376  -9.913  -6.294  0.00  0.00    -0.292 N 
ATOM     27  H   UNL     1      -7.287 -10.121  -6.036  0.00  0.00    +0.154 HD
BRANCH  26  28
ATOM     28  C   UNL     1      -5.816 -10.512  -7.427  0.00  0.00    +0.033 A 
ATOM     29  C   UNL     1      -6.635 -10.940  -8.464  0.00  0.00    +0.026 A 
ATOM     30  C   UNL     1      -6.080 -11.532  -9.582  0.00  0.00    +0.040 A 
ATOM     31  C   UNL     1      -4.708 -11.698  -9.669  0.00  0.00    +0.124 A 
ATOM     32  C   UNL     1      -3.889 -11.273  -8.636  0.00  0.00    +0.040 A 
ATOM     33  C   UNL     1      -4.440 -10.675  -7.519  0.00  0.00    +0.026 A 
ATOM     34  F   UNL     1      -4.167 -12.278 -10.763  0.00  0.00    -0.205 F 
ENDBRANCH  26  28
ENDBRANCH  20  21
ENDBRANCH  19  20
ENDBRANCH  10  19
TORSDOF 5
