REMARK  Name = ZINC12660195
REMARK  16 active torsions:
REMARK  status: ('A' for Active; 'I' for Inactive)
REMARK    1  A    between atoms: C_1  and  C_2
REMARK    2  A    between atoms: C_2  and  C_3
REMARK    3  A    between atoms: C_3  and  C_4
REMARK    4  A    between atoms: C_4  and  N_5
REMARK    5  A    between atoms: N_5  and  C_6
REMARK    6  A    between atoms: C_14  and  N_76
REMARK    7  A    between atoms: C_20  and  O_28
REMARK    8  A    between atoms: C_21  and  O_26
REMARK    9  A    between atoms: C_22  and  O_24
REMARK   10  A    between atoms: O_24  and  C_25
REMARK   11  A    between atoms: O_26  and  C_27
REMARK   12  A    between atoms: O_28  and  C_29
REMARK   13  A    between atoms: C_30  and  N_76
REMARK   14  A    between atoms: C_31  and  C_32
REMARK   15  A    between atoms: C_31  and  N_76
REMARK   16  A    between atoms: C_37  and  O_38
REMARK                            x       y       z     vdW  Elec       q    Type
REMARK                         _______ _______ _______ _____ _____    ______ ____
ROOT
ATOM      1  C   UNL     1       0.433  -3.579   2.445  0.00  0.00    +0.074 A 
ATOM      2  C   UNL     1       1.495  -3.276   3.245  0.00  0.00    +0.027 A 
ATOM      3  C   UNL     1       1.905  -2.071   3.678  0.00  0.00    +0.011 A 
ATOM      4  C   UNL     1       1.450  -0.796   3.454  0.00  0.00    -0.012 A 
ATOM      5  C   UNL     1       0.396  -0.435   2.616  0.00  0.00    -0.049 A 
ATOM      6  C   UNL     1      -0.414  -1.294   1.971  0.00  0.00    +0.055 A 
ATOM      7  C   UNL     1      -0.454  -2.656   1.898  0.00  0.00    +0.200 A 
ATOM      8  O   UNL     1      -1.392  -3.127   1.268  0.00  0.00    -0.286 OA
ATOM      9  C   UNL     1       0.118   1.040   2.404  0.00  0.00    -0.037 C 
ATOM     10  C   UNL     1      -0.652   1.639   3.563  0.00  0.00    -0.006 C 
ATOM     11  C   UNL     1      -0.072   1.187   4.901  0.00  0.00    +0.035 C 
ATOM     12  C   UNL     1       1.432   1.272   4.858  0.00  0.00    -0.033 A 
ATOM     13  C   UNL     1       2.159   0.305   4.170  0.00  0.00    +0.031 A 
ATOM     14  C   UNL     1       3.556   0.364   4.139  0.00  0.00    +0.173 A 
ATOM     15  C   UNL     1       4.210   1.401   4.792  0.00  0.00    +0.204 A 
ATOM     16  C   UNL     1       3.475   2.368   5.469  0.00  0.00    +0.165 A 
ATOM     17  C   UNL     1       2.087   2.300   5.501  0.00  0.00    +0.054 A 
ENDROOT
BRANCH   9  19
ATOM     18  C   UNL     1       0.119   0.814  -0.007  0.00  0.00    -0.095 C 
ATOM     19  N   UNL     1      -0.688   1.189   1.174  0.00  0.00    +0.385 N 
ATOM     20  H   UNL     1      -1.503   0.568   1.231  0.00  0.00    -0.081 HD
BRANCH  19  21
ATOM     21  C   UNL     1      -1.155   2.585   1.043  0.00  0.00    -0.039 C 
BRANCH  21  22
ATOM     22  C   UNL     1      -2.147   2.662  -0.089  0.00  0.00    -0.022 A 
ATOM     23  C   UNL     1      -1.753   3.140  -1.323  0.00  0.00    +0.005 A 
ATOM     24  C   UNL     1      -2.662   3.211  -2.362  0.00  0.00    +0.000 A 
ATOM     25  C   UNL     1      -3.969   2.801  -2.169  0.00  0.00    +0.004 A 
ATOM     26  C   UNL     1      -4.368   2.321  -0.937  0.00  0.00    +0.045 A 
ATOM     27  C   UNL     1      -3.456   2.246   0.106  0.00  0.00    +0.118 A 
BRANCH  27  28
ATOM     28  O   UNL     1      -3.845   1.769   1.318  0.00  0.00    -0.507 OA
ATOM     29  H   UNL     1      -4.181   2.448   1.919  0.00  0.00    +0.292 HD
ENDBRANCH  27  28
ENDBRANCH  21  22
ENDBRANCH  19  21
ENDBRANCH   9  19
BRANCH   1  30
ATOM     30  N   UNL     1       0.219  -4.916   2.154  0.00  0.00    -0.341 N 
ATOM     31  H   UNL     1      -0.525  -5.176   1.589  0.00  0.00    +0.146 HD
BRANCH  30  32
ATOM     32  C   UNL     1       1.117  -5.938   2.699  0.00  0.00    +0.101 C 
BRANCH  32  33
ATOM     33  C   UNL     1       0.661  -7.320   2.228  0.00  0.00    +0.018 C 
BRANCH  33  35
ATOM     34  C   UNL     1       1.143  -9.770   2.327  0.00  0.00    +0.004 C 
ATOM     35  C   UNL     1       1.598  -8.387   2.798  0.00  0.00    -0.002 C 
ENDBRANCH  33  35
ENDBRANCH  32  33
ENDBRANCH  30  32
ENDBRANCH   1  30
BRANCH  16  36
ATOM     36  O   UNL     1       4.117   3.385   6.103  0.00  0.00    -0.491 OA
ATOM     37  C   UNL     1       3.303   4.345   6.779  0.00  0.00    +0.277 C 
ENDBRANCH  16  36
BRANCH  15  38
ATOM     38  O   UNL     1       5.569   1.470   4.770  0.00  0.00    -0.488 OA
ATOM     39  C   UNL     1       6.270   0.799   5.819  0.00  0.00    +0.277 C 
ENDBRANCH  15  38
BRANCH  14  40
ATOM     40  O   UNL     1       4.267  -0.585   3.476  0.00  0.00    -0.491 OA
ATOM     41  C   UNL     1       4.650  -0.288   2.131  0.00  0.00    +0.277 C 
ENDBRANCH  14  40
TORSDOF 11
