REMARK  Name = ZINC23358753
REMARK  6 active torsions:
REMARK  status: ('A' for Active; 'I' for Inactive)
REMARK    1  A    between atoms: C_3  and  N_32
REMARK    2  A    between atoms: C_6  and  C_7
REMARK    3  A    between atoms: C_7  and  N_8
REMARK    4  A    between atoms: C_12  and  N_16
REMARK    5  A    between atoms: N_19  and  C_22
REMARK    6  A    between atoms: C_22  and  C_23
REMARK                            x       y       z     vdW  Elec       q    Type
REMARK                         _______ _______ _______ _____ _____    ______ ____
ROOT
ATOM      1  N   UNL     1      -1.735  -1.001  -1.368  0.00  0.00    -0.236 N 
ATOM      2  C   UNL     1      -2.524  -0.143  -2.027  0.00  0.00    +0.224 C 
ATOM      3  O   UNL     1      -2.957   0.897  -1.580  0.00  0.00    -0.275 OA
ATOM      4  C   UNL     1      -2.788  -0.677  -3.418  0.00  0.00    +0.124 C 
ATOM      5  C   UNL     1      -2.007  -2.006  -3.449  0.00  0.00    +0.152 C 
ATOM      6  C   UNL     1      -1.379  -2.081  -2.074  0.00  0.00    +0.240 C 
ATOM      7  O   UNL     1      -0.668  -2.978  -1.675  0.00  0.00    -0.273 OA
ENDROOT
BRANCH   5   8
ATOM      8  N   UNL     1      -2.919  -3.136  -3.672  0.00  0.00    -0.295 NA
ATOM      9  C   UNL     1      -3.695  -2.952  -4.906  0.00  0.00    +0.066 C 
ATOM     10  C   UNL     1      -4.672  -4.118  -5.070  0.00  0.00    -0.063 C 
ATOM     11  N   UNL     1      -3.923  -5.380  -5.126  0.00  0.00    +0.384 N 
ATOM     12  C   UNL     1      -3.173  -5.562  -3.877  0.00  0.00    -0.063 C 
ATOM     13  C   UNL     1      -2.183  -4.408  -3.703  0.00  0.00    +0.066 C 
ATOM     14  H   UNL     1      -3.280  -5.356  -5.904  0.00  0.00    -0.081 HD
BRANCH  11  15
ATOM     15  C   UNL     1      -4.860  -6.498  -5.301  0.00  0.00    -0.043 C 
BRANCH  15  16
ATOM     16  C   UNL     1      -4.087  -7.778  -5.482  0.00  0.00    -0.060 A 
ATOM     17  C   UNL     1      -3.715  -8.187  -6.749  0.00  0.00    +0.005 A 
ATOM     18  C   UNL     1      -3.005  -9.360  -6.920  0.00  0.00    +0.050 A 
ATOM     19  C   UNL     1      -2.665 -10.131  -5.820  0.00  0.00    +0.166 A 
ATOM     20  C   UNL     1      -3.040  -9.720  -4.544  0.00  0.00    +0.166 A 
ATOM     21  C   UNL     1      -3.746  -8.540  -4.380  0.00  0.00    +0.051 A 
ATOM     22  O   UNL     1      -2.592 -10.640  -3.640  0.00  0.00    -0.453 OA
ATOM     23  C   UNL     1      -2.296 -11.821  -4.408  0.00  0.00    +0.466 C 
ATOM     24  O   UNL     1      -1.982 -11.309  -5.716  0.00  0.00    -0.453 OA
ENDBRANCH  15  16
ENDBRANCH  11  15
ENDBRANCH   5   8
BRANCH   1  25
ATOM     25  C   UNL     1      -1.294  -0.774   0.010  0.00  0.00    +0.151 C 
BRANCH  25  31
ATOM     26  C   UNL     1      -0.017   1.379   0.024  0.00  0.00    +0.007 A 
ATOM     27  C   UNL     1       1.169   2.087   0.017  0.00  0.00    +0.024 A 
ATOM     28  C   UNL     1       2.381   1.409  -0.013  0.00  0.00    +0.036 A 
ATOM     29  C   UNL     1       2.396   0.020  -0.035  0.00  0.00    +0.024 A 
ATOM     30  C   UNL     1       1.207  -0.682  -0.028  0.00  0.00    +0.007 A 
ATOM     31  C   UNL     1       0.002  -0.004   0.002  0.00  0.00    -0.030 A 
BRANCH  28  32
ATOM     32  N   UNL     1       3.584   2.123  -0.021  0.00  0.00    -0.271 N 
ATOM     33  C   UNL     1       4.913   1.508   0.062  0.00  0.00    +0.114 C 
ATOM     34  C   UNL     1       5.902   2.595  -0.414  0.00  0.00    +0.029 C 
ATOM     35  C   UNL     1       5.121   3.892  -0.098  0.00  0.00    +0.098 C 
ATOM     36  C   UNL     1       3.671   3.462  -0.112  0.00  0.00    +0.220 C 
ATOM     37  O   UNL     1       2.724   4.215  -0.191  0.00  0.00    -0.275 OA
ENDBRANCH  28  32
ENDBRANCH  25  31
ENDBRANCH   1  25
TORSDOF 6
