REMARK  Name = ZINC12447568
REMARK  10 active torsions:
REMARK  status: ('A' for Active; 'I' for Inactive)
REMARK    1  A    between atoms: C_1  and  C_2
REMARK    2  A    between atoms: C_5  and  C_8
REMARK    3  A    between atoms: C_8  and  C_10
REMARK    4  A    between atoms: C_12  and  C_31
REMARK    5  A    between atoms: C_14  and  C_26
REMARK    6  A    between atoms: C_14  and  C_28
REMARK    7  A    between atoms: C_34  and  O_39
REMARK    8  A    between atoms: C_35  and  O_37
REMARK    9  A    between atoms: O_37  and  C_38
REMARK   10  A    between atoms: O_39  and  C_40
REMARK                            x       y       z     vdW  Elec       q    Type
REMARK                         _______ _______ _______ _____ _____    ______ ____
ROOT
ATOM      1  C   UNL     1       1.061   6.000   0.434  0.00  0.00    +0.155 C 
ATOM      2  C   UNL     1       0.478   7.410   0.723  0.00  0.00    +0.078 C 
ATOM      3  C   UNL     1      -1.013   7.162   1.071  0.00  0.00    +0.163 C 
ATOM      4  C   UNL     1      -1.158   5.639   1.027  0.00  0.00    +0.127 C 
ATOM      5  N   UNL     1      -0.119   5.217   0.050  0.00  0.00    -0.310 N 
ATOM      6  C   UNL     1      -0.030   3.846   0.035  0.00  0.00    +0.038 A 
ATOM      7  C   UNL     1       1.166   3.156   0.018  0.00  0.00    +0.024 A 
ATOM      8  C   UNL     1       1.164   1.772   0.013  0.00  0.00    +0.002 A 
ATOM      9  C   UNL     1      -0.029   1.071   0.025  0.00  0.00    +0.001 A 
ATOM     10  C   UNL     1      -1.236   1.744   0.035  0.00  0.00    +0.010 A 
ATOM     11  C   UNL     1      -1.249   3.132   0.043  0.00  0.00    -0.004 A 
ATOM     12  C   UNL     1      -2.518   3.898   0.048  0.00  0.00    +0.007 C 
ATOM     13  C   UNL     1      -2.488   5.150   0.537  0.00  0.00    -0.002 C 
ENDROOT
BRANCH   2  14
ATOM     14  C   UNL     1       1.190   8.043   1.891  0.00  0.00    -0.036 A 
ATOM     15  C   UNL     1       1.189   7.414   3.122  0.00  0.00    +0.008 A 
ATOM     16  C   UNL     1       1.846   7.988   4.195  0.00  0.00    +0.049 A 
ATOM     17  C   UNL     1       2.498   9.201   4.040  0.00  0.00    +0.161 A 
ATOM     18  C   UNL     1       2.494   9.836   2.802  0.00  0.00    +0.162 A 
ATOM     19  C   UNL     1       1.838   9.253   1.730  0.00  0.00    +0.053 A 
BRANCH  18  20
ATOM     20  O   UNL     1       3.132  11.027   2.645  0.00  0.00    -0.491 OA
ATOM     21  C   UNL     1       3.086  11.621   1.346  0.00  0.00    +0.277 C 
ENDBRANCH  18  20
BRANCH  17  22
ATOM     22  O   UNL     1       3.140   9.769   5.096  0.00  0.00    -0.491 OA
ATOM     23  C   UNL     1       3.103   9.060   6.336  0.00  0.00    +0.277 C 
ENDBRANCH  17  22
ENDBRANCH   2  14
BRANCH   3  24
ATOM     24  C   UNL     1      -1.909   7.808   0.045  0.00  0.00    +0.233 C 
ATOM     25  O   UNL     1      -2.830   8.512   0.402  0.00  0.00    -0.274 OA
ATOM     26  N   UNL     1      -1.687   7.603  -1.268  0.00  0.00    -0.328 N 
ATOM     27  H   UNL     1      -0.997   6.983  -1.552  0.00  0.00    +0.145 HD
ATOM     28  H   UNL     1      -2.216   8.076  -1.929  0.00  0.00    +0.145 HD
ENDBRANCH   3  24
BRANCH   1  29
ATOM     29  C   UNL     1       2.054   6.053  -0.698  0.00  0.00    +0.184 C 
ATOM     30  O   UNL     1       1.699   5.798  -1.828  0.00  0.00    -0.290 OA
BRANCH  29  35
ATOM     31  C   UNL     1       7.527   7.471   0.346  0.00  0.00    +0.044 C 
ATOM     32  C   UNL     1       6.092   7.100   0.073  0.00  0.00    -0.050 A 
ATOM     33  C   UNL     1       5.691   6.808  -1.220  0.00  0.00    +0.004 A 
ATOM     34  C   UNL     1       4.380   6.467  -1.478  0.00  0.00    +0.012 A 
ATOM     35  C   UNL     1       3.455   6.416  -0.430  0.00  0.00    +0.019 A 
ATOM     36  C   UNL     1       3.867   6.718   0.872  0.00  0.00    +0.012 A 
ATOM     37  C   UNL     1       5.183   7.052   1.115  0.00  0.00    +0.004 A 
ENDBRANCH  29  35
ENDBRANCH   1  29
BRANCH   3  38
ATOM     38  C   UNL     1      -1.320   7.670   2.418  0.00  0.00    +0.082 C 
ATOM     39  N   UNL     1      -1.557   8.063   3.458  0.00  0.00    -0.195 NA
ENDBRANCH   3  38
TORSDOF 7
