REMARK  Name = ZINC09727039
REMARK  8 active torsions:
REMARK  status: ('A' for Active; 'I' for Inactive)
REMARK    1  A    between atoms: C_1  and  O_2
REMARK    2  A    between atoms: O_2  and  C_3
REMARK    3  A    between atoms: C_3  and  C_5
REMARK    4  A    between atoms: C_5  and  N_6
REMARK    5  A    between atoms: C_10  and  S_24
REMARK    6  A    between atoms: N_15  and  C_16
REMARK    7  A    between atoms: C_16  and  C_18
REMARK    8  A    between atoms: S_24  and  N_27
REMARK                            x       y       z     vdW  Elec       q    Type
REMARK                         _______ _______ _______ _____ _____    ______ ____
ROOT
ATOM      1  N   UNL     1      -1.570   2.002   0.191  0.00  0.00    -0.310 N 
ATOM      2  C   UNL     1      -0.526   1.220   0.652  0.00  0.00    +0.058 A 
ATOM      3  C   UNL     1       0.761   1.644   1.024  0.00  0.00    +0.029 A 
ATOM      4  C   UNL     1       1.698   0.744   1.472  0.00  0.00    +0.030 A 
ATOM      5  C   UNL     1       1.407  -0.606   1.573  0.00  0.00    +0.106 A 
ATOM      6  C   UNL     1       0.147  -1.052   1.214  0.00  0.00    +0.045 A 
ATOM      7  C   UNL     1      -0.790  -0.152   0.766  0.00  0.00    +0.041 A 
ATOM      8  S   UNL     1      -2.475  -0.294   0.220  0.00  0.00    -0.052 S 
ATOM      9  C   UNL     1      -2.765   1.432  -0.133  0.00  0.00    +0.167 A 
ATOM     10  N   UNL     1      -3.867   2.013  -0.589  0.00  0.00    -0.152 NA
ENDROOT
BRANCH   5  11
ATOM     11  S   UNL     1       2.624  -1.741   2.151  0.00  0.00    +0.056 S 
ATOM     12  O   UNL     1       3.541  -0.990   2.935  0.00  0.00    -0.153 OA
ATOM     13  O   UNL     1       1.921  -2.863   2.667  0.00  0.00    -0.153 OA
BRANCH  11  14
ATOM     14  N   UNL     1       3.463  -2.276   0.827  0.00  0.00    -0.204 NA
ATOM     15  H   UNL     1       3.233  -1.951  -0.057  0.00  0.00    +0.144 HD
ATOM     16  H   UNL     1       4.185  -2.915   0.936  0.00  0.00    +0.144 HD
ENDBRANCH  11  14
ENDBRANCH   5  11
BRANCH  10  17
ATOM     17  C   UNL     1      -4.957   1.276  -0.848  0.00  0.00    +0.276 C 
ATOM     18  O   UNL     1      -4.935   0.070  -0.663  0.00  0.00    -0.267 OA
BRANCH  17  19
ATOM     19  C   UNL     1      -6.177   1.919  -1.353  0.00  0.00    +0.077 A 
ATOM     20  C   UNL     1      -7.393   1.346  -1.684  0.00  0.00    +0.022 A 
ATOM     21  C   UNL     1      -8.380   2.188  -2.135  0.00  0.00    +0.028 A 
ATOM     22  C   UNL     1      -8.119   3.518  -2.243  0.00  0.00    +0.079 A 
ATOM     23  S   UNL     1      -6.475   3.642  -1.708  0.00  0.00    -0.072 S 
ATOM     24 CL   UNL     1      -9.175   4.784  -2.786  0.00  0.00    -0.076 Cl
ENDBRANCH  17  19
ENDBRANCH  10  17
BRANCH   1  25
ATOM     25  C   UNL     1      -1.387   3.448   0.040  0.00  0.00    +0.244 C 
BRANCH  25  26
ATOM     26  C   UNL     1      -2.044   3.907  -1.236  0.00  0.00    +0.327 C 
ATOM     27  O   UNL     1      -2.460   3.094  -2.028  0.00  0.00    -0.249 OA
BRANCH  26  29
ATOM     28  C   UNL     1      -2.810   5.588  -2.742  0.00  0.00    +0.280 C 
ATOM     29  O   UNL     1      -2.166   5.218  -1.494  0.00  0.00    -0.467 OA
ENDBRANCH  26  29
ENDBRANCH  25  26
ENDBRANCH   1  25
TORSDOF 7
