REMARK  Name = ZINC24034398
REMARK  3 active torsions:
REMARK  status: ('A' for Active; 'I' for Inactive)
REMARK    1  A    between atoms: C_2  and  C_3
REMARK    2  A    between atoms: C_3  and  N_4
REMARK    3  A    between atoms: C_5  and  C_16
REMARK                            x       y       z     vdW  Elec       q    Type
REMARK                         _______ _______ _______ _____ _____    ______ ____
ROOT
ATOM      1  N   UNL     1      -3.685  -0.899   0.715  0.00  0.00    -0.271 N 
ATOM      2  C   UNL     1      -2.485  -0.429   0.023  0.00  0.00    +0.193 C 
ATOM      3  N   UNL     1      -1.282  -0.937   0.695  0.00  0.00    -0.321 N 
ATOM      4  C   UNL     1      -1.218  -0.884   2.079  0.00  0.00    +0.041 A 
ATOM      5  C   UNL     1      -0.018  -0.746   2.755  0.00  0.00    +0.024 A 
ATOM      6  C   UNL     1      -0.014  -0.688   4.136  0.00  0.00    +0.002 A 
ATOM      7  C   UNL     1      -1.200  -0.769   4.848  0.00  0.00    +0.001 A 
ATOM      8  C   UNL     1      -2.405  -0.909   4.190  0.00  0.00    +0.015 A 
ATOM      9  C   UNL     1      -2.424  -0.970   2.799  0.00  0.00    +0.058 A 
ATOM     10  C   UNL     1      -3.681  -1.124   2.046  0.00  0.00    +0.250 C 
ATOM     11  O   UNL     1      -4.704  -1.450   2.617  0.00  0.00    -0.270 OA
ATOM     12  H   UNL     1      -0.453  -1.349   0.101  0.00  0.00    +0.148 HD
ENDROOT
BRANCH   2  13
ATOM     13  C   UNL     1      -2.462   1.078   0.031  0.00  0.00    -0.002 A 
ATOM     14  C   UNL     1      -3.127   1.767   0.999  0.00  0.00    +0.008 A 
ATOM     15  C   UNL     1      -3.118   3.160   1.022  0.00  0.00    +0.001 A 
ATOM     16  C   UNL     1      -2.443   3.872   0.079  0.00  0.00    +0.008 A 
ATOM     17  C   UNL     1      -1.745   3.196  -0.936  0.00  0.00    -0.018 A 
ATOM     18  C   UNL     1      -1.759   1.779  -0.963  0.00  0.00    -0.011 A 
ATOM     19  C   UNL     1      -1.056   1.102  -1.974  0.00  0.00    +0.009 A 
ATOM     20  C   UNL     1      -0.381   1.814  -2.917  0.00  0.00    +0.001 A 
ATOM     21  C   UNL     1      -0.372   3.208  -2.894  0.00  0.00    +0.001 A 
ATOM     22  C   UNL     1      -1.037   3.897  -1.927  0.00  0.00    +0.008 A 
ENDBRANCH   2  13
BRANCH   1  23
ATOM     23  C   UNL     1      -4.912  -1.130  -0.050  0.00  0.00    +0.137 C 
BRANCH  23  25
ATOM     24  C   UNL     1      -5.960  -3.325  -0.262  0.00  0.00    +0.005 C 
ATOM     25  C   UNL     1      -4.938  -2.555  -0.541  0.00  0.00    -0.016 C 
ENDBRANCH  23  25
ENDBRANCH   1  23
TORSDOF 3
