REMARK  Name = ZINC14550084
REMARK  8 active torsions:
REMARK  status: ('A' for Active; 'I' for Inactive)
REMARK    1  A    between atoms: C_1  and  O_2
REMARK    2  A    between atoms: O_2  and  C_3
REMARK    3  A    between atoms: C_6  and  N_9
REMARK    4  A    between atoms: N_9  and  S_10
REMARK    5  A    between atoms: S_10  and  C_13
REMARK    6  A    between atoms: C_26  and  C_29
REMARK    7  A    between atoms: C_33  and  O_35
REMARK    8  A    between atoms: O_35  and  C_36
REMARK                            x       y       z     vdW  Elec       q    Type
REMARK                         _______ _______ _______ _____ _____    ______ ____
ROOT
ATOM      1  C   UNL     1       1.493   2.015   0.148  0.00  0.00    +0.109 A 
ATOM      2  C   UNL     1       0.201   1.521   0.185  0.00  0.00    +0.030 A 
ATOM      3  C   UNL     1      -0.862   2.395   0.287  0.00  0.00    +0.025 A 
ATOM      4  C   UNL     1      -0.634   3.763   0.363  0.00  0.00    +0.031 A 
ATOM      5  C   UNL     1       0.659   4.263   0.326  0.00  0.00    -0.018 A 
ATOM      6  C   UNL     1       1.720   3.374   0.218  0.00  0.00    +0.034 A 
ATOM      7  C   UNL     1       0.954   5.727   0.401  0.00  0.00    +0.049 C 
ATOM      8  C   UNL     1       1.349   6.280  -0.948  0.00  0.00    -0.023 C 
ATOM      9  C   UNL     1       0.878   7.494  -1.097  0.00  0.00    -0.030 C 
ATOM     10  C   UNL     1       0.107   7.920   0.138  0.00  0.00    +0.033 C 
ATOM     11  C   UNL     1      -0.272   6.567   0.810  0.00  0.00    +0.029 C 
ATOM     12  C   UNL     1      -1.525   6.043   0.103  0.00  0.00    +0.105 C 
ATOM     13  N   UNL     1      -1.722   4.636   0.468  0.00  0.00    -0.336 N 
ATOM     14  H   UNL     1      -2.586   4.319   0.776  0.00  0.00    +0.147 HD
ENDROOT
BRANCH  12  15
ATOM     15  C   UNL     1      -2.723   6.849   0.534  0.00  0.00    -0.024 A 
ATOM     16  C   UNL     1      -3.340   6.577   1.742  0.00  0.00    +0.006 A 
ATOM     17  C   UNL     1      -4.436   7.318   2.142  0.00  0.00    +0.004 A 
ATOM     18  C   UNL     1      -4.924   8.325   1.332  0.00  0.00    +0.045 A 
ATOM     19  C   UNL     1      -4.310   8.596   0.118  0.00  0.00    +0.120 A 
ATOM     20  C   UNL     1      -3.207   7.855  -0.279  0.00  0.00    +0.051 A 
BRANCH  19  21
ATOM     21  O   UNL     1      -4.788   9.587  -0.680  0.00  0.00    -0.495 OA
ATOM     22  C   UNL     1      -5.927  10.309  -0.207  0.00  0.00    +0.277 C 
ENDBRANCH  19  21
ENDBRANCH  12  15
BRANCH   1  23
ATOM     23  S   UNL     1       2.853   0.904   0.009  0.00  0.00    +0.072 S 
ATOM     24  O   UNL     1       4.007   1.621   0.427  0.00  0.00    -0.150 OA
ATOM     25  O   UNL     1       2.449  -0.312   0.623  0.00  0.00    -0.150 OA
BRANCH  23  26
ATOM     26  N   UNL     1       3.056   0.577  -1.601  0.00  0.00    -0.216 N 
ATOM     27  H   UNL     1       2.935  -0.327  -1.931  0.00  0.00    +0.174 HD
BRANCH  26  31
ATOM     28  C   UNL     1       4.088   3.637  -4.237  0.00  0.00    +0.120 A 
ATOM     29  C   UNL     1       5.036   3.125  -3.364  0.00  0.00    +0.047 A 
ATOM     30  C   UNL     1       4.695   2.111  -2.491  0.00  0.00    +0.028 A 
ATOM     31  C   UNL     1       3.402   1.604  -2.486  0.00  0.00    +0.048 A 
ATOM     32  C   UNL     1       2.455   2.115  -3.363  0.00  0.00    +0.028 A 
ATOM     33  C   UNL     1       2.796   3.132  -4.232  0.00  0.00    +0.047 A 
BRANCH  28  35
ATOM     34  C   UNL     1       3.398   5.115  -5.967  0.00  0.00    +0.277 C 
ATOM     35  O   UNL     1       4.424   4.635  -5.097  0.00  0.00    -0.495 OA
ENDBRANCH  28  35
ENDBRANCH  26  31
ENDBRANCH  23  26
ENDBRANCH   1  23
TORSDOF 6
