REMARK  Name = ZINC65713045
REMARK  9 active torsions:
REMARK  status: ('A' for Active; 'I' for Inactive)
REMARK    1  A    between atoms: C_1  and  C_2
REMARK    2  A    between atoms: C_3  and  C_28
REMARK    3  A    between atoms: C_9  and  C_12
REMARK    4  A    between atoms: C_12  and  N_13
REMARK    5  A    between atoms: C_14  and  C_16
REMARK    6  A    between atoms: N_18  and  C_19
REMARK    7  A    between atoms: C_24  and  C_25
REMARK    8  A    between atoms: C_25  and  C_26
REMARK    9  A    between atoms: C_25  and  C_27
REMARK                            x       y       z     vdW  Elec       q    Type
REMARK                         _______ _______ _______ _____ _____    ______ ____
ROOT
ATOM      1  N   UNL     1      -1.308  -1.403   5.392  0.00  0.00    -0.303 N 
ATOM      2  C   UNL     1      -1.546  -1.197   6.703  0.00  0.00    +0.300 C 
ATOM      3  O   UNL     1      -0.619  -1.051   7.472  0.00  0.00    -0.265 OA
ATOM      4  H   UNL     1      -2.049  -1.519   4.777  0.00  0.00    +0.149 HD
ENDROOT
BRANCH   2   5
ATOM      5  C   UNL     1      -2.950  -1.149   7.209  0.00  0.00    +0.303 C 
ATOM      6  O   UNL     1      -3.878  -1.295   6.439  0.00  0.00    -0.265 OA
ATOM      7  N   UNL     1      -3.188  -0.944   8.519  0.00  0.00    -0.277 N 
ATOM      8  H   UNL     1      -2.449  -0.907   9.146  0.00  0.00    +0.155 HD
BRANCH   7   9
ATOM      9  C   UNL     1      -4.500  -0.784   8.975  0.00  0.00    +0.037 A 
ATOM     10  C   UNL     1      -5.486  -0.324   8.111  0.00  0.00    +0.023 A 
ATOM     11  C   UNL     1      -6.780  -0.168   8.564  0.00  0.00    +0.002 A 
ATOM     12  C   UNL     1      -7.096  -0.468   9.877  0.00  0.00    +0.000 A 
ATOM     13  C   UNL     1      -6.117  -0.925  10.740  0.00  0.00    +0.006 A 
ATOM     14  C   UNL     1      -4.821  -1.090  10.291  0.00  0.00    -0.024 A 
BRANCH  14  15
ATOM     15  C   UNL     1      -3.756  -1.595  11.230  0.00  0.00    +0.015 C 
ATOM     16  C   UNL     1      -3.708  -0.705  12.473  0.00  0.00    +0.012 C 
ATOM     17  C   UNL     1      -4.082  -3.032  11.644  0.00  0.00    +0.012 C 
ENDBRANCH  14  15
ENDBRANCH   7   9
ENDBRANCH   2   5
BRANCH   1  18
ATOM     18  C   UNL     1       0.069  -1.450   4.896  0.00  0.00    +0.140 C 
BRANCH  18  27
ATOM     19  C   UNL     1      -0.046   1.537   0.010  0.00  0.00    +0.046 C 
ATOM     20  C   UNL     1      -0.013   0.031   0.001  0.00  0.00    -0.022 A 
ATOM     21  C   UNL     1      -0.001  -0.761  -1.083  0.00  0.00    +0.017 A 
ATOM     22  N   UNL     1       0.030  -2.075  -0.701  0.00  0.00    -0.358 N 
ATOM     23  H   UNL     1       0.044  -2.831  -1.308  0.00  0.00    +0.166 HD
ATOM     24  C   UNL     1       0.039  -2.162   0.673  0.00  0.00    +0.047 A 
ATOM     25  C   UNL     1       0.019  -0.847   1.173  0.00  0.00    +0.003 A 
ATOM     26  C   UNL     1       0.028  -0.626   2.551  0.00  0.00    +0.015 A 
ATOM     27  C   UNL     1       0.060  -1.689   3.409  0.00  0.00    -0.030 A 
ATOM     28  C   UNL     1       0.084  -2.988   2.920  0.00  0.00    +0.007 A 
ATOM     29  C   UNL     1       0.067  -3.230   1.564  0.00  0.00    +0.026 A 
ATOM     30  C   UNL     1      -0.019  -0.275  -2.510  0.00  0.00    +0.063 C 
ENDBRANCH  18  27
ENDBRANCH   1  18
TORSDOF 5
