REMARK  Name = ZINC21190985
REMARK  4 active torsions:
REMARK  status: ('A' for Active; 'I' for Inactive)
REMARK    1  A    between atoms: C_3  and  C_10
REMARK    2  A    between atoms: C_5  and  N_7
REMARK    3  A    between atoms: C_11  and  C_12
REMARK    4  A    between atoms: C_17  and  C_22
REMARK                            x       y       z     vdW  Elec       q    Type
REMARK                         _______ _______ _______ _____ _____    ______ ____
ROOT
ATOM      1  C   UNL     1      -1.267   7.387  -0.158  0.00  0.00    +0.154 A 
ATOM      2  N   UNL     1      -2.465   8.038  -0.245  0.00  0.00    -0.190 NA
ATOM      3  C   UNL     1      -2.518   9.381  -0.341  0.00  0.00    +0.282 A 
ATOM      4  O   UNL     1      -3.587   9.958  -0.419  0.00  0.00    -0.265 OA
ATOM      5  C   UNL     1      -1.245  10.136  -0.349  0.00  0.00    +0.080 A 
ATOM      6  C   UNL     1      -1.047  11.520  -0.440  0.00  0.00    +0.010 A 
ATOM      7  C   UNL     1       0.345  11.994  -0.425  0.00  0.00    +0.057 A 
ATOM      8  S   UNL     1       1.262  10.531  -0.290  0.00  0.00    -0.078 S 
ATOM      9  C   UNL     1      -0.066   9.355  -0.254  0.00  0.00    +0.092 A 
ATOM     10  N   UNL     1      -0.112   8.048  -0.159  0.00  0.00    -0.333 N 
ATOM     11  H   UNL     1       0.837   7.498  -0.078  0.00  0.00    +0.168 HD
ENDROOT
BRANCH   6  12
ATOM     12  C   UNL     1      -2.127  12.414  -0.540  0.00  0.00    +0.021 A 
ATOM     13  C   UNL     1      -2.392  13.578   0.217  0.00  0.00    +0.016 A 
ATOM     14  C   UNL     1      -3.519  14.268  -0.092  0.00  0.00    +0.008 A 
ATOM     15  C   UNL     1      -4.339  13.797  -1.106  0.00  0.00    +0.046 A 
ATOM     16  S   UNL     1      -3.524  12.367  -1.649  0.00  0.00    -0.097 S 
ENDBRANCH   6  12
BRANCH   1  18
ATOM     17  C   UNL     1      -0.070   5.314   0.030  0.00  0.00    +0.031 C 
ATOM     18  C   UNL     1      -1.254   5.978  -0.058  0.00  0.00    +0.084 C 
ATOM     19 CL   UNL     1      -2.748   5.095  -0.048  0.00  0.00    -0.080 Cl
BRANCH  17  22
ATOM     20  C   UNL     1      -1.037   1.933   1.327  0.00  0.00    +0.003 A 
ATOM     21  C   UNL     1      -1.054   3.290   1.090  0.00  0.00    +0.008 A 
ATOM     22  C   UNL     1      -0.057   3.870   0.294  0.00  0.00    -0.021 A 
ATOM     23  C   UNL     1       0.953   3.064  -0.249  0.00  0.00    +0.040 A 
ATOM     24  C   UNL     1       0.957   1.709   0.004  0.00  0.00    +0.127 A 
ATOM     25  C   UNL     1      -0.033   1.145   0.791  0.00  0.00    +0.033 A 
BRANCH  24  26
ATOM     26  N   UNL     1       2.022   0.855  -0.568  0.00  0.00    +0.056 N 
ATOM     27  O   UNL     1       2.028  -0.440  -0.328  0.00  0.00    -0.126 OA
ATOM     28  O   UNL     1       2.964   1.390  -1.316  0.00  0.00    -0.126 OA
ENDBRANCH  24  26
ENDBRANCH  17  22
ENDBRANCH   1  18
TORSDOF 4
