REMARK  Name = ZINC55458982
REMARK  5 active torsions:
REMARK  status: ('A' for Active; 'I' for Inactive)
REMARK    1  A    between atoms: C_1  and  O_2
REMARK    2  A    between atoms: O_2  and  C_3
REMARK    3  A    between atoms: C_3  and  C_5
REMARK    4  A    between atoms: C_17  and  C_19
REMARK    5  A    between atoms: C_19  and  C_20
REMARK                            x       y       z     vdW  Elec       q    Type
REMARK                         _______ _______ _______ _____ _____    ______ ____
ROOT
ATOM      1  C   UNL     1       0.657  -2.104  -1.120  0.00  0.00    +0.185 C 
ATOM      2  C   UNL     1      -0.781  -2.688  -1.180  0.00  0.00    +0.039 C 
ATOM      3  C   UNL     1      -0.606  -3.851  -2.168  0.00  0.00    +0.012 C 
ATOM      4  C   UNL     1      -1.861  -4.253  -2.924  0.00  0.00    +0.005 C 
ATOM      5  C   UNL     1      -1.455  -5.329  -3.944  0.00  0.00    +0.000 C 
ATOM      6  C   UNL     1      -0.379  -4.818  -4.898  0.00  0.00    +0.002 C 
ATOM      7  C   UNL     1       0.841  -4.282  -4.131  0.00  0.00    +0.023 C 
ATOM      8  C   UNL     1       0.364  -3.200  -3.191  0.00  0.00    +0.080 C 
ATOM      9  N   UNL     1       1.352  -2.519  -2.362  0.00  0.00    -0.284 N 
ATOM     10  C   UNL     1       2.648  -2.305  -2.664  0.00  0.00    +0.221 C 
ATOM     11  O   UNL     1       3.097  -2.697  -3.720  0.00  0.00    -0.275 OA
ENDROOT
BRANCH   1  12
ATOM     12  C   UNL     1       0.598  -0.600  -1.043  0.00  0.00    +0.328 C 
ATOM     13  O   UNL     1       1.088   0.070  -1.921  0.00  0.00    -0.249 OA
BRANCH  12  15
ATOM     14  C   UNL     1      -0.017   1.425   0.010  0.00  0.00    +0.280 C 
ATOM     15  O   UNL     1       0.002  -0.004   0.002  0.00  0.00    -0.467 OA
ENDBRANCH  12  15
ENDBRANCH   1  12
BRANCH  10  16
ATOM     16  C   UNL     1       3.539  -1.580  -1.689  0.00  0.00    +0.133 C 
BRANCH  16  17
ATOM     17  C   UNL     1       4.929  -1.473  -2.263  0.00  0.00    -0.013 A 
ATOM     18  C   UNL     1       5.873  -2.400  -1.943  0.00  0.00    +0.006 A 
ATOM     19  C   UNL     1       7.163  -2.320  -2.462  0.00  0.00    +0.001 A 
ATOM     20  C   UNL     1       7.516  -1.311  -3.305  0.00  0.00    +0.010 A 
ATOM     21  C   UNL     1       6.568  -0.338  -3.657  0.00  0.00    +0.001 A 
ATOM     22  C   UNL     1       5.253  -0.419  -3.135  0.00  0.00    +0.075 A 
ATOM     23  N   UNL     1       4.345   0.502  -3.471  0.00  0.00    -0.255 NA
ATOM     24  C   UNL     1       4.643   1.487  -4.283  0.00  0.00    +0.111 A 
ATOM     25  C   UNL     1       5.914   1.623  -4.836  0.00  0.00    +0.020 A 
ATOM     26  C   UNL     1       6.892   0.722  -4.526  0.00  0.00    +0.011 A 
ENDBRANCH  16  17
ENDBRANCH  10  16
TORSDOF 4
