REMARK  Name = ZINC23549919
REMARK  12 active torsions:
REMARK  status: ('A' for Active; 'I' for Inactive)
REMARK    1  A    between atoms: C_1  and  C_2
REMARK    2  A    between atoms: C_2  and  O_3
REMARK    3  A    between atoms: O_3  and  C_4
REMARK    4  A    between atoms: C_4  and  C_6
REMARK    5  A    between atoms: C_7  and  C_39
REMARK    6  A    between atoms: C_14  and  O_15
REMARK    7  A    between atoms: O_15  and  C_16
REMARK    8  A    between atoms: C_16  and  C_17
REMARK    9  A    between atoms: C_17  and  C_19
REMARK   10  A    between atoms: C_17  and  O_38
REMARK   11  A    between atoms: C_19  and  N_20
REMARK   12  A    between atoms: C_27  and  C_37
REMARK                            x       y       z     vdW  Elec       q    Type
REMARK                         _______ _______ _______ _____ _____    ______ ____
ROOT
ATOM      1  C   UNL     1       0.084  -6.882   1.026  0.00  0.00    +0.135 C 
ENDROOT
BRANCH   1   2
ATOM      2  O   UNL     1       0.143  -6.586   2.423  0.00  0.00    -0.390 OA
ATOM      3  H   UNL     1       0.520  -5.610   2.763  0.00  0.00    +0.210 HD
ENDBRANCH   1   2
BRANCH   1   4
ATOM      4  C   UNL     1      -0.472  -8.293   0.827  0.00  0.00    +0.258 C 
BRANCH   4   5
ATOM      5  O   UNL     1       0.439  -9.247   1.377  0.00  0.00    -0.489 OA
BRANCH   5  14
ATOM      6  C   UNL     1       2.524 -12.813   2.729  0.00  0.00    +0.216 A 
ATOM      7  C   UNL     1       2.191 -11.523   2.463  0.00  0.00    +0.013 A 
ATOM      8  C   UNL     1       0.942 -11.550   1.795  0.00  0.00    +0.065 A 
ATOM      9  C   UNL     1       0.573 -12.904   1.698  0.00  0.00    +0.140 A 
ATOM     10  O   UNL     1       1.553 -13.633   2.269  0.00  0.00    -0.448 OA
ATOM     11  C   UNL     1      -0.626 -13.243   1.084  0.00  0.00    +0.047 A 
ATOM     12  C   UNL     1      -1.448 -12.257   0.580  0.00  0.00    +0.007 A 
ATOM     13  C   UNL     1      -1.094 -10.920   0.676  0.00  0.00    +0.046 A 
ATOM     14  C   UNL     1       0.093 -10.556   1.283  0.00  0.00    +0.132 A 
ATOM     15  C   UNL     1       2.998 -10.298   2.809  0.00  0.00    +0.048 C 
BRANCH   6  16
ATOM     16  C   UNL     1       3.748 -13.248   3.409  0.00  0.00    +0.375 C 
ATOM     17  O   UNL     1       4.561 -12.425   3.785  0.00  0.00    -0.241 OA
BRANCH  16  18
ATOM     18  O   UNL     1       3.973 -14.562   3.619  0.00  0.00    -0.459 OA
BRANCH  18  20
ATOM     19  C   UNL     1       5.283 -16.441   4.444  0.00  0.00    +0.048 C 
ATOM     20  C   UNL     1       5.205 -14.920   4.298  0.00  0.00    +0.229 C 
ENDBRANCH  18  20
ENDBRANCH  16  18
ENDBRANCH   6  16
ENDBRANCH   5  14
ENDBRANCH   4   5
ENDBRANCH   1   4
BRANCH   1  21
ATOM     21  C   UNL     1      -0.829  -5.871   0.329  0.00  0.00    -0.043 C 
BRANCH  21  22
ATOM     22  N   UNL     1      -0.233  -4.531   0.417  0.00  0.00    +0.388 N 
ATOM     23  C   UNL     1       1.015  -4.457  -0.357  0.00  0.00    -0.056 C 
ATOM     24  C   UNL     1       1.835  -3.219   0.025  0.00  0.00    +0.103 C 
ATOM     25  N   UNL     1       0.943  -2.050  -0.008  0.00  0.00    -0.347 N 
ATOM     26  C   UNL     1       1.237  -0.720  -0.011  0.00  0.00    +0.049 A 
ATOM     27  C   UNL     1       2.449  -0.034  -0.020  0.00  0.00    +0.026 A 
ATOM     28  C   UNL     1       2.395   1.348  -0.014  0.00  0.00    +0.005 A 
ATOM     29  C   UNL     1       1.194   2.039   0.002  0.00  0.00    -0.050 A 
ATOM     30  C   UNL     1      -0.017   1.395   0.010  0.00  0.00    +0.013 A 
ATOM     31  C   UNL     1       0.002  -0.004   0.002  0.00  0.00    +0.003 A 
ATOM     32  C   UNL     1      -1.035  -1.000   0.002  0.00  0.00    -0.020 A 
ATOM     33  C   UNL     1      -0.416  -2.197  -0.019  0.00  0.00    +0.009 A 
ATOM     34  C   UNL     1      -1.188  -3.497  -0.030  0.00  0.00    -0.020 C 
ATOM     35  C   UNL     1      -2.343  -3.370   0.950  0.00  0.00    -0.009 C 
ATOM     36  C   UNL     1      -3.046  -2.036   0.985  0.00  0.00    +0.003 C 
ATOM     37  C   UNL     1      -2.538  -0.960   0.036  0.00  0.00    +0.037 C 
ATOM     38  C   UNL     1       1.219   3.546   0.009  0.00  0.00    +0.044 C 
ATOM     39  H   UNL     1       0.011  -4.345   1.473  0.00  0.00    -0.081 HD
ENDBRANCH  21  22
ENDBRANCH   1  21
TORSDOF 9
