REMARK  Name = ZINC39665816
REMARK  10 active torsions:
REMARK  status: ('A' for Active; 'I' for Inactive)
REMARK    1  A    between atoms: C_1  and  C_2
REMARK    2  A    between atoms: C_2  and  C_4
REMARK    3  A    between atoms: C_2  and  O_32
REMARK    4  A    between atoms: C_4  and  N_5
REMARK    5  A    between atoms: C_6  and  C_8
REMARK    6  A    between atoms: C_19  and  C_21
REMARK    7  A    between atoms: C_24  and  C_26
REMARK    8  A    between atoms: O_32  and  C_33
REMARK    9  A    between atoms: C_36  and  O_39
REMARK   10  A    between atoms: O_39  and  C_40
REMARK                            x       y       z     vdW  Elec       q    Type
REMARK                         _______ _______ _______ _____ _____    ______ ____
ROOT
ATOM      1  C   UNL     1       0.690  -4.273  -1.916  0.00  0.00    +0.100 C 
ATOM      2  C   UNL     1       1.232  -4.814  -0.574  0.00  0.00    +0.121 C 
ATOM      3  N   UNL     1       1.787  -6.148  -0.905  0.00  0.00    -0.294 N 
ATOM      4  C   UNL     1       2.439  -5.960  -2.223  0.00  0.00    +0.115 C 
ATOM      5  C   UNL     1       1.485  -5.027  -2.995  0.00  0.00    -0.004 C 
ATOM      6  C   UNL     1       0.541  -5.845  -3.872  0.00  0.00    -0.010 C 
ATOM      7  C   UNL     1       1.348  -6.540  -4.972  0.00  0.00    -0.082 C 
ATOM      8  N   UNL     1       2.047  -5.532  -5.779  0.00  0.00    +0.379 N 
ATOM      9  C   UNL     1       3.020  -4.812  -4.948  0.00  0.00    -0.082 C 
ATOM     10  C   UNL     1       2.284  -4.044  -3.847  0.00  0.00    -0.010 C 
ATOM     11  C   UNL     1       1.715  -7.277  -0.173  0.00  0.00    +0.282 C 
ATOM     12  O   UNL     1       2.226  -8.303  -0.584  0.00  0.00    -0.267 OA
ATOM     13  H   UNL     1       2.529  -5.988  -6.540  0.00  0.00    -0.086 HD
ATOM     14  H   UNL     1       1.376  -4.878  -6.153  0.00  0.00    -0.086 HD
ENDROOT
BRANCH  11  15
ATOM     15  C   UNL     1       1.022  -7.271   1.118  0.00  0.00    +0.190 A 
ATOM     16  C   UNL     1       0.880  -8.348   1.966  0.00  0.00    +0.055 A 
ATOM     17  C   UNL     1       0.156  -7.897   3.074  0.00  0.00    +0.050 A 
ATOM     18  C   UNL     1      -0.115  -6.575   2.865  0.00  0.00    +0.136 A 
ATOM     19  O   UNL     1       0.416  -6.207   1.687  0.00  0.00    -0.450 OA
BRANCH  18  20
ATOM     20  C   UNL     1      -0.863  -5.694   3.785  0.00  0.00    +0.017 A 
ATOM     21  C   UNL     1      -1.357  -6.196   4.990  0.00  0.00    +0.011 A 
ATOM     22  C   UNL     1      -2.054  -5.367   5.845  0.00  0.00    +0.001 A 
ATOM     23  C   UNL     1      -2.265  -4.041   5.509  0.00  0.00    +0.000 A 
ATOM     24  C   UNL     1      -1.778  -3.538   4.316  0.00  0.00    +0.001 A 
ATOM     25  C   UNL     1      -1.074  -4.354   3.455  0.00  0.00    +0.011 A 
ENDBRANCH  18  20
ENDBRANCH  11  15
BRANCH   1  27
ATOM     26  N   UNL     1       0.124  -2.024  -2.774  0.00  0.00    -0.312 N 
ATOM     27  C   UNL     1       0.937  -2.790  -2.022  0.00  0.00    +0.218 C 
ATOM     28  O   UNL     1       1.868  -2.287  -1.429  0.00  0.00    -0.275 OA
ATOM     29  H   UNL     1      -0.621  -2.426  -3.248  0.00  0.00    +0.149 HD
BRANCH  26  30
ATOM     30  C   UNL     1       0.364  -0.582  -2.877  0.00  0.00    +0.148 C 
BRANCH  30  32
ATOM     31  C   UNL     1      -0.372   1.529  -3.993  0.00  0.00    +0.053 C 
ATOM     32  C   UNL     1      -0.695   0.048  -3.785  0.00  0.00    +0.187 C 
BRANCH  32  33
ATOM     33  O   UNL     1      -1.981  -0.079  -3.176  0.00  0.00    -0.488 OA
BRANCH  33  34
ATOM     34  C   UNL     1      -3.061  -0.054  -4.002  0.00  0.00    +0.121 A 
ATOM     35  C   UNL     1      -4.330  -0.280  -3.492  0.00  0.00    +0.049 A 
ATOM     36  C   UNL     1      -5.427  -0.255  -4.331  0.00  0.00    +0.049 A 
ATOM     37  C   UNL     1      -5.258  -0.004  -5.685  0.00  0.00    +0.120 A 
ATOM     38  C   UNL     1      -3.989   0.223  -6.196  0.00  0.00    +0.049 A 
ATOM     39  C   UNL     1      -2.893   0.202  -5.355  0.00  0.00    +0.049 A 
BRANCH  37  40
ATOM     40  O   UNL     1      -6.338   0.020  -6.512  0.00  0.00    -0.495 OA
ATOM     41  C   UNL     1      -6.090   0.284  -7.894  0.00  0.00    +0.277 C 
ENDBRANCH  37  40
ENDBRANCH  33  34
ENDBRANCH  32  33
ENDBRANCH  30  32
ENDBRANCH  26  30
ENDBRANCH   1  27
TORSDOF 8
