REMARK  Name = ZINC19873938
REMARK  12 active torsions:
REMARK  status: ('A' for Active; 'I' for Inactive)
REMARK    1  A    between atoms: C_1  and  C_2
REMARK    2  A    between atoms: C_2  and  C_3
REMARK    3  A    between atoms: C_2  and  C_4
REMARK    4  A    between atoms: C_2  and  C_5
REMARK    5  A    between atoms: C_7  and  C_16
REMARK    6  A    between atoms: C_9  and  C_12
REMARK    7  A    between atoms: C_10  and  O_11
REMARK    8  A    between atoms: C_12  and  C_13
REMARK    9  A    between atoms: C_12  and  C_14
REMARK   10  A    between atoms: C_12  and  C_15
REMARK   11  A    between atoms: C_17  and  N_28
REMARK   12  A    between atoms: N_28  and  C_29
REMARK                            x       y       z     vdW  Elec       q    Type
REMARK                         _______ _______ _______ _____ _____    ______ ____
ROOT
ATOM      1  C   UNL     1       0.529  -2.069  -1.105  0.00  0.00    +0.000 A 
ATOM      2  C   UNL     1       0.512  -0.692  -1.102  0.00  0.00    +0.016 A 
ATOM      3  C   UNL     1       0.002  -0.004   0.002  0.00  0.00    -0.012 A 
ATOM      4  C   UNL     1      -0.483  -0.717   1.101  0.00  0.00    +0.016 A 
ATOM      5  C   UNL     1      -0.467  -2.095   1.088  0.00  0.00    +0.000 A 
ATOM      6  C   UNL     1       0.041  -2.775  -0.013  0.00  0.00    +0.124 A 
ENDROOT
BRANCH   3   7
ATOM      7  C   UNL     1      -0.018   1.474   0.010  0.00  0.00    +0.054 C 
ATOM      8  C   UNL     1      -1.221   2.140   0.019  0.00  0.00    +0.086 C 
ATOM      9  C   UNL     1      -1.259   3.616   0.034  0.00  0.00    +0.208 C 
ATOM     10  O   UNL     1      -2.325   4.198   0.047  0.00  0.00    -0.285 OA
ATOM     11  C   UNL     1       0.005   4.385   0.026  0.00  0.00    +0.034 A 
ATOM     12  C   UNL     1      -0.012   5.775   0.034  0.00  0.00    +0.012 A 
ATOM     13  C   UNL     1       1.181   6.479   0.027  0.00  0.00    +0.001 A 
ATOM     14  C   UNL     1       2.389   5.808   0.011  0.00  0.00    +0.001 A 
ATOM     15  C   UNL     1       2.422   4.422   0.003  0.00  0.00    +0.012 A 
ATOM     16  C   UNL     1       1.234   3.702   0.010  0.00  0.00    +0.033 A 
ATOM     17  C   UNL     1       1.250   2.222   0.002  0.00  0.00    +0.196 C 
ATOM     18  O   UNL     1       2.309   1.625  -0.011  0.00  0.00    -0.287 OA
BRANCH   8  19
ATOM     19  N   UNL     1      -2.402   1.424   0.021  0.00  0.00    -0.343 N 
ATOM     20  C   UNL     1      -3.686   2.129   0.031  0.00  0.00    +0.125 C 
ATOM     21  H   UNL     1      -2.378   0.324   0.014  0.00  0.00    +0.146 HD
ENDBRANCH   8  19
ENDBRANCH   3   7
BRANCH   1  23
ATOM     22  C   UNL     1       1.547  -1.808  -3.351  0.00  0.00    +0.015 C 
ATOM     23  C   UNL     1       1.079  -2.812  -2.296  0.00  0.00    -0.009 C 
ATOM     24  C   UNL     1       2.261  -3.678  -1.855  0.00  0.00    +0.015 C 
ATOM     25  C   UNL     1      -0.013  -3.704  -2.889  0.00  0.00    +0.015 C 
ENDBRANCH   1  23
BRANCH   5  26
ATOM     26  C   UNL     1      -0.994  -2.865   2.271  0.00  0.00    -0.009 C 
ATOM     27  C   UNL     1      -1.490  -1.886   3.337  0.00  0.00    +0.015 C 
ATOM     28  C   UNL     1      -2.151  -3.760   1.822  0.00  0.00    +0.015 C 
ATOM     29  C   UNL     1       0.124  -3.732   2.854  0.00  0.00    +0.015 C 
ENDBRANCH   5  26
BRANCH   6  30
ATOM     30  O   UNL     1       0.060  -4.133  -0.020  0.00  0.00    -0.506 OA
ATOM     31  H   UNL     1      -0.326  -4.693   0.845  0.00  0.00    +0.292 HD
ENDBRANCH   6  30
TORSDOF 5
