REMARK  Name = ZINC39953322
REMARK  4 active torsions:
REMARK  status: ('A' for Active; 'I' for Inactive)
REMARK    1  A    between atoms: C_6  and  O_7
REMARK    2  A    between atoms: O_7  and  C_8
REMARK    3  A    between atoms: C_8  and  C_9
REMARK    4  A    between atoms: N_11  and  C_12
REMARK                            x       y       z     vdW  Elec       q    Type
REMARK                         _______ _______ _______ _____ _____    ______ ____
ROOT
ATOM      1  C   UNL     1      -0.007   1.353   0.197  0.00  0.00    +0.046 A 
ATOM      2  C   UNL     1       1.169   2.047   0.208  0.00  0.00    +0.018 A 
ATOM      3  C   UNL     1       2.379   1.362   0.347  0.00  0.00    +0.059 A 
ATOM      4  C   UNL     1       2.390  -0.038   0.481  0.00  0.00    +0.135 A 
ATOM      5  C   UNL     1       1.189  -0.728   0.463  0.00  0.00    +0.092 A 
ATOM      6  C   UNL     1      -0.004  -0.034   0.322  0.00  0.00    +0.125 A 
ATOM      7  O   UNL     1       3.555  -0.712   0.631  0.00  0.00    -0.484 OA
ATOM      8  C   UNL     1       4.762  -0.100   0.178  0.00  0.00    +0.118 C 
ATOM      9  C   UNL     1       5.960  -0.946   0.613  0.00  0.00    +0.048 C 
ATOM     10  C   UNL     1       5.844  -2.344   0.003  0.00  0.00    +0.004 C 
ATOM     11  C   UNL     1       5.822  -2.236  -1.523  0.00  0.00    +0.000 C 
ATOM     12  C   UNL     1       4.624  -1.388  -1.957  0.00  0.00    +0.004 C 
ATOM     13  C   UNL     1       4.741   0.010  -1.347  0.00  0.00    +0.048 C 
ATOM     14  C   UNL     1       4.883   1.304   0.787  0.00  0.00    +0.127 C 
ATOM     15  C   UNL     1       3.658   2.089   0.354  0.00  0.00    +0.170 C 
ATOM     16  O   UNL     1       3.729   3.256   0.031  0.00  0.00    -0.292 OA
ENDROOT
BRANCH   6  17
ATOM     17  O   UNL     1      -1.179  -0.713   0.305  0.00  0.00    -0.483 OA
BRANCH  17  18
ATOM     18  C   UNL     1      -2.372   0.059   0.157  0.00  0.00    +0.324 C 
BRANCH  18  19
ATOM     19  C   UNL     1      -3.568  -0.859   0.160  0.00  0.00    +0.255 C 
ATOM     20  O   UNL     1      -3.413  -2.056   0.278  0.00  0.00    -0.272 OA
ATOM     21  N   UNL     1      -4.809  -0.349   0.032  0.00  0.00    -0.283 N 
ATOM     22  H   UNL     1      -4.939   0.612   0.012  0.00  0.00    +0.155 HD
BRANCH  21  23
ATOM     23  C   UNL     1      -5.901  -1.199  -0.070  0.00  0.00    +0.034 C 
ATOM     24  C   UNL     1      -6.940  -1.098   0.829  0.00  0.00    +0.029 C 
ATOM     25  C   UNL     1      -7.960  -2.043   0.666  0.00  0.00    -0.016 C 
ATOM     26  C   UNL     1      -9.286  -2.009   0.907  0.00  0.00    +0.025 C 
ATOM     27  C   UNL     1      -9.899  -3.123   0.301  0.00  0.00    +0.106 C 
ATOM     28  N   UNL     1      -9.028  -3.931  -0.240  0.00  0.00    -0.279 NA
ATOM     29  C   UNL     1      -7.702  -3.417   0.070  0.00  0.00    +0.158 C 
ATOM     30  C   UNL     1      -6.797  -3.238  -1.112  0.00  0.00    +0.006 C 
ATOM     31  C   UNL     1      -5.954  -2.201  -1.137  0.00  0.00    +0.021 C 
ENDBRANCH  21  23
ENDBRANCH  18  19
ENDBRANCH  17  18
ENDBRANCH   6  17
TORSDOF 4
