REMARK  Name = ZINC39733052
REMARK  8 active torsions:
REMARK  status: ('A' for Active; 'I' for Inactive)
REMARK    1  A    between atoms: C_1  and  S_2
REMARK    2  A    between atoms: S_2  and  C_3
REMARK    3  A    between atoms: C_7  and  C_14
REMARK    4  A    between atoms: N_8  and  C_9
REMARK    5  A    between atoms: C_14  and  C_15
REMARK    6  A    between atoms: C_15  and  C_16
REMARK    7  A    between atoms: C_16  and  N_17
REMARK    8  A    between atoms: C_18  and  C_20
REMARK                            x       y       z     vdW  Elec       q    Type
REMARK                         _______ _______ _______ _____ _____    ______ ____
ROOT
ATOM      1  C   UNL     1      -6.257   3.358   1.595  0.00  0.00    +0.105 C 
ENDROOT
BRANCH   1   2
ATOM      2  N   UNL     1      -7.167   4.141   0.755  0.00  0.00    -0.312 N 
ATOM      3  C   UNL     1      -8.085   4.946   1.325  0.00  0.00    +0.241 C 
ATOM      4  O   UNL     1      -8.159   5.023   2.535  0.00  0.00    -0.271 OA
ATOM      5  H   UNL     1      -7.109   4.079  -0.211  0.00  0.00    +0.149 HD
BRANCH   3   6
ATOM      6  C   UNL     1      -9.003   5.736   0.477  0.00  0.00    +0.032 C 
ATOM      7  C   UNL     1     -10.030   6.477   1.024  0.00  0.00    +0.005 A 
ATOM      8  C   UNL     1     -10.249   6.509   2.470  0.00  0.00    +0.010 A 
ATOM      9  C   UNL     1     -11.271   7.253   2.960  0.00  0.00    +0.001 A 
ATOM     10  C   UNL     1     -12.114   7.984   2.114  0.00  0.00    +0.002 A 
ATOM     11  C   UNL     1     -11.967   7.998   0.766  0.00  0.00    +0.024 A 
ATOM     12  C   UNL     1     -10.933   7.258   0.152  0.00  0.00    +0.041 A 
ATOM     13  N   UNL     1     -10.795   7.276  -1.165  0.00  0.00    -0.285 N 
ATOM     14  C   UNL     1      -9.847   6.605  -1.808  0.00  0.00    +0.222 C 
ATOM     15  O   UNL     1      -9.775   6.665  -3.020  0.00  0.00    -0.275 OA
ATOM     16  C   UNL     1      -8.853   5.771  -1.032  0.00  0.00    +0.137 C 
ATOM     17  H   UNL     1     -11.418   7.807  -1.686  0.00  0.00    +0.155 HD
ENDBRANCH   3   6
ENDBRANCH   1   2
BRANCH   1  18
ATOM     18  C   UNL     1      -5.323   2.535   0.706  0.00  0.00    +0.026 C 
BRANCH  18  19
ATOM     19  C   UNL     1      -4.373   1.718   1.584  0.00  0.00    +0.075 C 
BRANCH  19  23
ATOM     20  C   UNL     1      -1.807  -0.531   0.017  0.00  0.00    +0.236 C 
ATOM     21  N   UNL     1      -2.516   0.074  -1.125  0.00  0.00    -0.238 N 
ATOM     22  N   UNL     1      -3.485   0.922  -0.574  0.00  0.00    -0.174 NA
ATOM     23  C   UNL     1      -3.452   0.907   0.708  0.00  0.00    +0.118 C 
ATOM     24  N   UNL     1      -2.469   0.055   1.195  0.00  0.00    -0.286 N 
ATOM     25  H   UNL     1      -2.346  -0.083  -2.067  0.00  0.00    +0.171 HD
BRANCH  24  26
ATOM     26  C   UNL     1      -2.151  -0.210   2.600  0.00  0.00    +0.077 C 
ATOM     27  C   UNL     1      -3.404  -0.729   3.337  0.00  0.00    +0.022 C 
ATOM     28  C   UNL     1      -3.309  -0.089   4.744  0.00  0.00    +0.002 C 
ATOM     29  C   UNL     1      -2.753   1.324   4.441  0.00  0.00    +0.002 C 
ATOM     30  C   UNL     1      -1.738   1.095   3.302  0.00  0.00    +0.022 C 
ENDBRANCH  24  26
BRANCH  20  32
ATOM     31  C   UNL     1      -0.059   1.731  -0.021  0.00  0.00    +0.088 C 
ATOM     32  S   UNL     1      -0.049  -0.083  -0.015  0.00  0.00    -0.121 S 
ENDBRANCH  20  32
ENDBRANCH  19  23
ENDBRANCH  18  19
ENDBRANCH   1  18
TORSDOF 7
