REMARK  Name = ZINC36567830
REMARK  17 active torsions:
REMARK  status: ('A' for Active; 'I' for Inactive)
REMARK    1  A    between atoms: C_1  and  C_2
REMARK    2  A    between atoms: C_2  and  C_3
REMARK    3  A    between atoms: C_3  and  N_4
REMARK    4  A    between atoms: N_4  and  C_5
REMARK    5  A    between atoms: C_5  and  C_7
REMARK    6  A    between atoms: C_5  and  C_17
REMARK    7  A    between atoms: C_9  and  N_14
REMARK    8  A    between atoms: N_19  and  C_20
REMARK    9  A    between atoms: C_20  and  C_21
REMARK   10  A    between atoms: C_20  and  C_22
REMARK   11  A    between atoms: C_20  and  C_23
REMARK   12  A    between atoms: C_23  and  C_24
REMARK   13  A    between atoms: C_24  and  C_25
REMARK   14  A    between atoms: C_24  and  C_26
REMARK   15  A    between atoms: C_24  and  C_27
REMARK   16  A    between atoms: C_28  and  C_30
REMARK   17  A    between atoms: C_35  and  O_36
REMARK                            x       y       z     vdW  Elec       q    Type
REMARK                         _______ _______ _______ _____ _____    ______ ____
ROOT
ATOM      1  C   UNL     1      -0.968  -4.586  -1.233  0.00  0.00    +0.194 C 
ENDROOT
BRANCH   1   2
ATOM      2  C   UNL     1      -0.549  -4.624   0.214  0.00  0.00    +0.002 A 
ATOM      3  C   UNL     1       0.433  -3.766   0.672  0.00  0.00    +0.040 A 
ATOM      4  C   UNL     1       0.817  -3.801   2.000  0.00  0.00    +0.127 A 
ATOM      5  C   UNL     1       0.220  -4.694   2.870  0.00  0.00    +0.034 A 
ATOM      6  C   UNL     1      -0.762  -5.552   2.413  0.00  0.00    +0.022 A 
ATOM      7  C   UNL     1      -1.151  -5.514   1.086  0.00  0.00    +0.047 A 
ATOM      8 CL   UNL     1      -2.390  -6.587   0.513  0.00  0.00    -0.083 Cl
BRANCH   4   9
ATOM      9  N   UNL     1       1.869  -2.882   2.490  0.00  0.00    +0.056 N 
ATOM     10  O   UNL     1       2.391  -2.101   1.729  0.00  0.00    -0.126 OA
ATOM     11  O   UNL     1       2.206  -2.912   3.650  0.00  0.00    -0.126 OA
ENDBRANCH   4   9
ENDBRANCH   1   2
BRANCH   1  12
ATOM     12  C   UNL     1       0.164  -4.049  -2.070  0.00  0.00    +0.239 C 
ATOM     13  O   UNL     1       0.147  -2.896  -2.444  0.00  0.00    -0.273 OA
ATOM     14  N   UNL     1       1.196  -4.850  -2.402  0.00  0.00    -0.308 N 
ATOM     15  H   UNL     1       1.183  -5.787  -2.150  0.00  0.00    +0.149 HD
BRANCH  14  16
ATOM     16  C   UNL     1       2.337  -4.306  -3.143  0.00  0.00    +0.030 C 
ATOM     17  C   UNL     1       1.912  -4.001  -4.581  0.00  0.00    +0.031 C 
ATOM     18  C   UNL     1       2.816  -3.019  -2.469  0.00  0.00    +0.031 C 
BRANCH  16  19
ATOM     19  C   UNL     1       3.473  -5.330  -3.153  0.00  0.00    +0.031 C 
BRANCH  19  20
ATOM     20  C   UNL     1       4.307  -5.180  -1.879  0.00  0.00    -0.036 C 
ATOM     21  C   UNL     1       3.384  -5.209  -0.659  0.00  0.00    +0.010 C 
ATOM     22  C   UNL     1       5.310  -6.331  -1.787  0.00  0.00    +0.010 C 
ATOM     23  C   UNL     1       5.061  -3.849  -1.917  0.00  0.00    +0.010 C 
ENDBRANCH  19  20
ENDBRANCH  16  19
ENDBRANCH  14  16
ENDBRANCH   1  12
BRANCH   1  24
ATOM     24  N   UNL     1      -2.139  -3.718  -1.380  0.00  0.00    -0.282 N 
ATOM     25  C   UNL     1      -3.185  -4.118  -2.129  0.00  0.00    +0.251 C 
ATOM     26  O   UNL     1      -4.214  -3.470  -2.132  0.00  0.00    -0.270 OA
BRANCH  25  27
ATOM     27  C   UNL     1      -3.082  -5.343  -2.946  0.00  0.00    +0.078 A 
ATOM     28  C   UNL     1      -1.829  -5.836  -3.318  0.00  0.00    +0.017 A 
ATOM     29  C   UNL     1      -1.739  -6.980  -4.080  0.00  0.00    +0.001 A 
ATOM     30  C   UNL     1      -2.887  -7.646  -4.479  0.00  0.00    +0.004 A 
ATOM     31  C   UNL     1      -4.131  -7.170  -4.118  0.00  0.00    +0.046 A 
ATOM     32  C   UNL     1      -4.240  -6.022  -3.347  0.00  0.00    +0.129 A 
BRANCH  32  33
ATOM     33  O   UNL     1      -5.462  -5.556  -2.987  0.00  0.00    -0.506 OA
ATOM     34  H   UNL     1      -5.847  -4.934  -3.619  0.00  0.00    +0.292 HD
ENDBRANCH  32  33
ENDBRANCH  25  27
BRANCH  24  35
ATOM     35  C   UNL     1      -2.172  -2.414  -0.712  0.00  0.00    +0.109 C 
BRANCH  35  37
ATOM     36  C   UNL     1      -1.851   0.043  -1.030  0.00  0.00    +0.005 C 
ATOM     37  C   UNL     1      -1.695  -1.332  -1.683  0.00  0.00    +0.016 C 
ENDBRANCH  35  37
ENDBRANCH  24  35
ENDBRANCH   1  24
TORSDOF 11
