REMARK  Name = ZINC39243043
REMARK  7 active torsions:
REMARK  status: ('A' for Active; 'I' for Inactive)
REMARK    1  A    between atoms: C_1  and  C_2
REMARK    2  A    between atoms: C_5  and  O_35
REMARK    3  A    between atoms: C_17  and  C_34
REMARK    4  A    between atoms: C_22  and  C_23
REMARK    5  A    between atoms: C_26  and  O_29
REMARK    6  A    between atoms: O_29  and  C_30
REMARK    7  A    between atoms: C_31  and  O_33
REMARK                            x       y       z     vdW  Elec       q    Type
REMARK                         _______ _______ _______ _____ _____    ______ ____
ROOT
ATOM      1  C   UNL     1      -1.237   1.756  -0.813  0.00  0.00    +0.016 C 
ATOM      2  C   UNL     1      -0.937   0.269  -0.614  0.00  0.00    -0.008 C 
ATOM      3  C   UNL     1      -2.276  -0.465  -0.513  0.00  0.00    +0.014 C 
ATOM      4  C   UNL     1      -3.044   0.055   0.705  0.00  0.00    +0.032 C 
ATOM      5  C   UNL     1      -2.261  -0.249   1.983  0.00  0.00    +0.119 C 
ATOM      6  C   UNL     1      -0.925   0.500   1.958  0.00  0.00    +0.062 C 
ATOM      7  C   UNL     1      -0.194   0.123   0.681  0.00  0.00    -0.065 C 
ATOM      8  C   UNL     1       1.026  -0.319   0.771  0.00  0.00    -0.027 C 
ATOM      9  C   UNL     1       1.816  -0.750  -0.432  0.00  0.00    +0.031 C 
ATOM     10  C   UNL     1       0.845  -1.283  -1.493  0.00  0.00    +0.001 C 
ATOM     11  C   UNL     1      -0.169  -0.211  -1.824  0.00  0.00    +0.003 C 
ATOM     12  C   UNL     1       0.577   0.943  -2.497  0.00  0.00    +0.005 C 
ATOM     13  C   UNL     1       1.109   0.453  -3.837  0.00  0.00    +0.010 C 
ATOM     14  C   UNL     1       2.032  -0.742  -3.699  0.00  0.00    +0.001 C 
ATOM     15  C   UNL     1       1.604  -1.730  -2.711  0.00  0.00    +0.005 C 
ATOM     16  C   UNL     1       0.802  -2.740  -3.560  0.00  0.00    +0.037 C 
ATOM     17  C   UNL     1       1.614  -2.788  -4.853  0.00  0.00    -0.040 C 
ATOM     18  C   UNL     1       1.858  -3.845  -5.615  0.00  0.00    +0.009 C 
ATOM     19  C   UNL     1       2.066  -1.479  -5.061  0.00  0.00    +0.147 C 
ATOM     20  C   UNL     1       3.441  -0.263  -3.341  0.00  0.00    +0.014 C 
ENDROOT
BRANCH  18  21
ATOM     21  C   UNL     1       1.181  -5.128  -5.338  0.00  0.00    -0.025 A 
ATOM     22  C   UNL     1      -0.009  -5.148  -4.608  0.00  0.00    +0.011 A 
ATOM     23  C   UNL     1      -0.638  -6.348  -4.351  0.00  0.00    +0.046 A 
ATOM     24  C   UNL     1      -0.089  -7.535  -4.817  0.00  0.00    +0.120 A 
ATOM     25  C   UNL     1       1.094  -7.520  -5.543  0.00  0.00    +0.046 A 
ATOM     26  C   UNL     1       1.726  -6.324  -5.809  0.00  0.00    +0.011 A 
BRANCH  24  27
ATOM     27  O   UNL     1      -0.712  -8.715  -4.562  0.00  0.00    -0.495 OA
ATOM     28  C   UNL     1      -0.094  -9.899  -5.071  0.00  0.00    +0.277 C 
ENDBRANCH  24  27
ENDBRANCH  18  21
BRANCH  19  29
ATOM     29  O   UNL     1       3.399  -1.501  -5.573  0.00  0.00    -0.387 OA
ATOM     30  H   UNL     1       3.486  -1.949  -6.425  0.00  0.00    +0.210 HD
ENDBRANCH  19  29
BRANCH   5  31
ATOM     31  O   UNL     1      -3.021   0.170   3.118  0.00  0.00    -0.391 OA
ATOM     32  H   UNL     1      -2.585   0.007   3.965  0.00  0.00    +0.210 HD
ENDBRANCH   5  31
TORSDOF 4
