REMARK  Name = ZINC49982047
REMARK  7 active torsions:
REMARK  status: ('A' for Active; 'I' for Inactive)
REMARK    1  A    between atoms: C_1  and  C_2
REMARK    2  A    between atoms: C_2  and  C_4
REMARK    3  A    between atoms: C_2  and  N_15
REMARK    4  A    between atoms: N_6  and  C_7
REMARK    5  A    between atoms: C_8  and  C_12
REMARK    6  A    between atoms: N_18  and  C_21
REMARK    7  A    between atoms: C_21  and  C_22
REMARK                            x       y       z     vdW  Elec       q    Type
REMARK                         _______ _______ _______ _____ _____    ______ ____
ROOT
ATOM      1  C   UNL     1      -2.062  -0.320   0.244  0.00  0.00    +0.034 C 
ATOM      2  C   UNL     1      -0.579  -0.007   0.038  0.00  0.00    +0.140 C 
ENDROOT
BRANCH   2   3
ATOM      3  N   UNL     1       0.225  -0.814   0.966  0.00  0.00    -0.295 NA
ATOM      4  C   UNL     1       0.305  -2.210   0.515  0.00  0.00    +0.066 C 
ATOM      5  C   UNL     1       1.198  -3.002   1.474  0.00  0.00    -0.063 C 
ATOM      6  N   UNL     1       0.638  -2.938   2.830  0.00  0.00    +0.382 N 
ATOM      7  C   UNL     1       0.587  -1.539   3.275  0.00  0.00    -0.063 C 
ATOM      8  C   UNL     1      -0.311  -0.736   2.332  0.00  0.00    +0.066 C 
ATOM      9  H   UNL     1      -0.295  -3.324   2.828  0.00  0.00    -0.082 HD
BRANCH   6  10
ATOM     10  C   UNL     1       1.485  -3.713   3.747  0.00  0.00    -0.075 C 
BRANCH  10  11
ATOM     11  C   UNL     1       1.404  -5.197   3.384  0.00  0.00    -0.028 C 
ATOM     12  C   UNL     1      -0.031  -5.692   3.580  0.00  0.00    +0.002 C 
ATOM     13  C   UNL     1      -0.112  -7.176   3.218  0.00  0.00    +0.000 C 
ATOM     14  C   UNL     1       0.830  -7.974   4.122  0.00  0.00    +0.000 C 
ATOM     15  C   UNL     1       2.264  -7.479   3.926  0.00  0.00    +0.000 C 
ATOM     16  C   UNL     1       2.346  -5.995   4.288  0.00  0.00    +0.002 C 
ENDBRANCH  10  11
ENDBRANCH   6  10
ENDBRANCH   2   3
BRANCH   2  17
ATOM     17  C   UNL     1      -0.333   1.456   0.302  0.00  0.00    +0.235 C 
ATOM     18  O   UNL     1       0.288   1.799   1.286  0.00  0.00    -0.274 OA
ATOM     19  N   UNL     1      -0.803   2.384  -0.555  0.00  0.00    -0.278 N 
ATOM     20  H   UNL     1      -1.300   2.110  -1.342  0.00  0.00    +0.155 HD
BRANCH  19  21
ATOM     21  C   UNL     1      -0.577   3.731  -0.312  0.00  0.00    +0.084 A 
ATOM     22  C   UNL     1      -0.986   4.815  -1.074  0.00  0.00    +0.065 A 
ATOM     23  C   UNL     1      -0.612   6.124  -0.588  0.00  0.00    +0.022 A 
ATOM     24  C   UNL     1       0.096   6.144   0.556  0.00  0.00    +0.048 A 
ATOM     25  S   UNL     1       0.248   4.422   0.975  0.00  0.00    -0.081 S 
BRANCH  22  26
ATOM     26  C   UNL     1      -1.758   4.643  -2.308  0.00  0.00    +0.244 C 
ATOM     27  O   UNL     1      -2.056   3.526  -2.689  0.00  0.00    -0.270 OA
ATOM     28  N   UNL     1      -2.138   5.721  -3.022  0.00  0.00    -0.325 N 
ATOM     29  H   UNL     1      -1.901   6.611  -2.719  0.00  0.00    +0.145 HD
ATOM     30  H   UNL     1      -2.648   5.607  -3.839  0.00  0.00    +0.145 HD
ENDBRANCH  22  26
ENDBRANCH  19  21
ENDBRANCH   2  17
TORSDOF 6
