REMARK  Name = ZINC15076731
REMARK  10 active torsions:
REMARK  status: ('A' for Active; 'I' for Inactive)
REMARK    1  A    between atoms: C_1  and  C_2
REMARK    2  A    between atoms: C_2  and  O_3
REMARK    3  A    between atoms: O_3  and  C_4
REMARK    4  A    between atoms: C_6  and  C_11
REMARK    5  A    between atoms: C_9  and  O_10
REMARK    6  A    between atoms: C_11  and  N_57
REMARK    7  A    between atoms: C_12  and  N_57
REMARK    8  A    between atoms: N_21  and  C_22
REMARK    9  A    between atoms: C_26  and  C_29
REMARK   10  A    between atoms: C_27  and  C_28
REMARK                            x       y       z     vdW  Elec       q    Type
REMARK                         _______ _______ _______ _____ _____    ______ ____
ROOT
ATOM      1  C   UNL     1       1.389   4.725  -0.170  0.00  0.00    -0.037 C 
ATOM      2  C   UNL     1       2.779   4.298  -0.656  0.00  0.00    -0.011 C 
ATOM      3  C   UNL     1       3.268   3.108   0.174  0.00  0.00    +0.005 C 
ATOM      4  C   UNL     1       2.444   1.864  -0.179  0.00  0.00    +0.056 C 
ATOM      5  C   UNL     1       0.982   2.226  -0.107  0.00  0.00    +0.047 A 
ATOM      6  C   UNL     1       0.512   3.499  -0.101  0.00  0.00    -0.020 A 
ATOM      7  C   UNL     1      -0.879   3.445  -0.023  0.00  0.00    +0.137 A 
ATOM      8  N   UNL     1      -1.236   2.184   0.010  0.00  0.00    -0.174 NA
ATOM      9  N   UNL     1      -0.076   1.396  -0.038  0.00  0.00    -0.236 N 
ENDROOT
BRANCH   9  10
ATOM     10  C   UNL     1      -0.027  -0.005  -0.021  0.00  0.00    +0.069 A 
ATOM     11  C   UNL     1       0.746  -0.685  -0.953  0.00  0.00    +0.028 A 
ATOM     12  C   UNL     1       0.792  -2.065  -0.934  0.00  0.00    +0.002 A 
ATOM     13  C   UNL     1       0.070  -2.770   0.011  0.00  0.00    +0.004 A 
ATOM     14  C   UNL     1      -0.701  -2.095   0.940  0.00  0.00    -0.046 A 
ATOM     15  C   UNL     1      -0.747  -0.715   0.929  0.00  0.00    -0.022 A 
ATOM     16  C   UNL     1      -1.583   0.019   1.946  0.00  0.00    +0.046 C 
ATOM     17  C   UNL     1      -1.488  -2.867   1.968  0.00  0.00    +0.044 C 
ENDBRANCH   9  10
BRANCH   1  18
ATOM     18  N   UNL     1       0.814   5.695  -1.121  0.00  0.00    +0.386 N 
ATOM     19  H   UNL     1       1.565   6.283  -1.500  0.00  0.00    -0.085 HD
ATOM     20  H   UNL     1       0.357   5.187  -1.887  0.00  0.00    -0.085 HD
BRANCH  18  21
ATOM     21  C   UNL     1      -0.179   6.550  -0.443  0.00  0.00    -0.046 C 
BRANCH  21  24
ATOM     22  C   UNL     1      -0.667   9.662  -2.528  0.00  0.00    +0.162 A 
ATOM     23  C   UNL     1      -0.148   8.762  -1.611  0.00  0.00    +0.051 A 
ATOM     24  C   UNL     1      -0.748   7.529  -1.438  0.00  0.00    -0.061 A 
ATOM     25  C   UNL     1      -1.872   7.194  -2.170  0.00  0.00    +0.005 A 
ATOM     26  C   UNL     1      -2.398   8.088  -3.083  0.00  0.00    +0.049 A 
ATOM     27  C   UNL     1      -1.798   9.325  -3.266  0.00  0.00    +0.158 A 
BRANCH  27  28
ATOM     28  O   UNL     1      -2.315  10.206  -4.163  0.00  0.00    -0.503 OA
ATOM     29  H   UNL     1      -2.978  10.803  -3.791  0.00  0.00    +0.292 HD
ENDBRANCH  27  28
BRANCH  22  30
ATOM     30  O   UNL     1      -0.076  10.874  -2.704  0.00  0.00    -0.489 OA
BRANCH  30  32
ATOM     31  C   UNL     1       1.603  12.550  -2.247  0.00  0.00    +0.048 C 
ATOM     32  C   UNL     1       1.081  11.152  -1.913  0.00  0.00    +0.226 C 
ENDBRANCH  30  32
ENDBRANCH  22  30
ENDBRANCH  21  24
ENDBRANCH  18  21
ENDBRANCH   1  18
TORSDOF 7
