REMARK  Name = ZINC39533342
REMARK  10 active torsions:
REMARK  status: ('A' for Active; 'I' for Inactive)
REMARK    1  A    between atoms: C_1  and  C_2
REMARK    2  A    between atoms: C_2  and  C_3
REMARK    3  A    between atoms: C_2  and  C_4
REMARK    4  A    between atoms: C_4  and  C_5
REMARK    5  A    between atoms: C_8  and  C_11
REMARK    6  A    between atoms: C_11  and  C_13
REMARK    7  A    between atoms: C_11  and  N_16
REMARK    8  A    between atoms: C_13  and  N_14
REMARK    9  A    between atoms: C_20  and  C_23
REMARK   10  A    between atoms: C_28  and  O_29
REMARK                            x       y       z     vdW  Elec       q    Type
REMARK                         _______ _______ _______ _____ _____    ______ ____
ROOT
ATOM      1  N   UNL     1      -2.408  -0.172   6.829  0.00  0.00    -0.297 NA
ATOM      2  C   UNL     1      -3.549  -0.968   6.353  0.00  0.00    +0.066 C 
ATOM      3  C   UNL     1      -3.690  -2.221   7.219  0.00  0.00    -0.066 C 
ATOM      4  N   UNL     1      -3.897  -1.827   8.619  0.00  0.00    +0.385 N 
ATOM      5  C   UNL     1      -2.739  -1.055   9.088  0.00  0.00    -0.023 C 
ATOM      6  C   UNL     1      -2.589   0.208   8.237  0.00  0.00    +0.074 C 
ATOM      7  H   UNL     1      -4.729  -1.262   8.690  0.00  0.00    -0.085 HD
ATOM      8  H   UNL     1      -4.003  -2.654   9.188  0.00  0.00    -0.085 HD
ENDROOT
BRANCH   5   9
ATOM      9  C   UNL     1      -2.945  -0.668  10.530  0.00  0.00    -0.019 A 
ATOM     10  C   UNL     1      -4.215  -0.674  11.073  0.00  0.00    +0.005 A 
ATOM     11  C   UNL     1      -4.404  -0.319  12.396  0.00  0.00    +0.000 A 
ATOM     12  C   UNL     1      -3.323   0.044  13.178  0.00  0.00    +0.004 A 
ATOM     13  C   UNL     1      -2.051   0.052  12.640  0.00  0.00    +0.045 A 
ATOM     14  C   UNL     1      -1.858  -0.310  11.315  0.00  0.00    +0.118 A 
BRANCH  14  15
ATOM     15  O   UNL     1      -0.607  -0.309  10.784  0.00  0.00    -0.507 OA
ATOM     16  H   UNL     1      -0.348   0.535  10.389  0.00  0.00    +0.292 HD
ENDBRANCH  14  15
ENDBRANCH   5   9
BRANCH   1  17
ATOM     17  C   UNL     1      -2.204   1.013   5.986  0.00  0.00    +0.101 C 
BRANCH  17  21
ATOM     18  C   UNL     1       0.166  -0.045   2.594  0.00  0.00    -0.047 A 
ATOM     19  C   UNL     1       0.059   1.279   2.976  0.00  0.00    +0.004 A 
ATOM     20  C   UNL     1      -0.708   1.621   4.074  0.00  0.00    +0.005 A 
ATOM     21  C   UNL     1      -1.368   0.640   4.789  0.00  0.00    -0.029 A 
ATOM     22  C   UNL     1      -1.262  -0.684   4.406  0.00  0.00    +0.005 A 
ATOM     23  C   UNL     1      -0.498  -1.026   3.305  0.00  0.00    +0.004 A 
BRANCH  18  24
ATOM     24  C   UNL     1       1.003  -0.419   1.397  0.00  0.00    +0.038 C 
BRANCH  24  26
ATOM     25  C   UNL     1      -0.329   1.050  -0.124  0.00  0.00    +0.007 C 
ATOM     26  C   UNL     1       0.135  -0.385   0.137  0.00  0.00    -0.013 C 
ATOM     27  C   UNL     1       0.950  -0.883  -1.058  0.00  0.00    +0.007 C 
ENDBRANCH  24  26
ENDBRANCH  18  24
ENDBRANCH  17  21
BRANCH  17  28
ATOM     28  C   UNL     1      -3.559   1.544   5.516  0.00  0.00    +0.115 C 
BRANCH  28  29
ATOM     29  N   UNL     1      -4.372   1.913   6.683  0.00  0.00    -0.259 NA
ATOM     30  I   UNL     1      -6.097   2.860   6.108  0.00  0.00    +0.018 I 
ATOM     31  H   UNL     1      -4.575   1.105   7.252  0.00  0.00    +0.134 HD
ENDBRANCH  28  29
ENDBRANCH  17  28
ENDBRANCH   1  17
TORSDOF 8
