REMARK  Name = ZINC59309581
REMARK  2 active torsions:
REMARK  status: ('A' for Active; 'I' for Inactive)
REMARK    1  A    between atoms: C_6  and  C_7
REMARK    2  A    between atoms: C_7  and  C_8
REMARK                            x       y       z     vdW  Elec       q    Type
REMARK                         _______ _______ _______ _____ _____    ______ ____
ROOT
ATOM      1  C   UNL     1      -1.733  -1.028  -1.411  0.00  0.00    +0.220 C 
ATOM      2  O   UNL     1      -1.064  -0.618  -2.336  0.00  0.00    -0.275 OA
ATOM      3  N   UNL     1      -2.872  -1.707  -1.652  0.00  0.00    -0.294 N 
ATOM      4  C   UNL     1      -3.707  -2.211  -0.550  0.00  0.00    +0.136 C 
ATOM      5  C   UNL     1      -3.997  -3.695  -0.794  0.00  0.00    +0.179 C 
ATOM      6  O   UNL     1      -4.513  -3.867  -2.118  0.00  0.00    -0.373 OA
ATOM      7  C   UNL     1      -3.607  -3.473  -3.148  0.00  0.00    +0.139 C 
ATOM      8  C   UNL     1      -3.329  -1.967  -3.031  0.00  0.00    +0.105 C 
ATOM      9  C   UNL     1      -4.623  -1.182  -3.263  0.00  0.00    +0.025 C 
ATOM     10  C   UNL     1      -5.179  -1.502  -4.652  0.00  0.00    +0.002 C 
ATOM     11  C   UNL     1      -5.484  -2.999  -4.742  0.00  0.00    +0.003 C 
ATOM     12  C   UNL     1      -4.192  -3.787  -4.521  0.00  0.00    +0.033 C 
ENDROOT
BRANCH   1  13
ATOM     13  C   UNL     1      -1.291  -0.778   0.008  0.00  0.00    +0.131 C 
BRANCH  13  19
ATOM     14  C   UNL     1      -0.017   1.378   0.010  0.00  0.00    +0.004 A 
ATOM     15  C   UNL     1       1.171   2.079   0.002  0.00  0.00    +0.004 A 
ATOM     16  C   UNL     1       2.387   1.408  -0.012  0.00  0.00    -0.044 A 
ATOM     17  C   UNL     1       2.406   0.031  -0.014  0.00  0.00    -0.044 A 
ATOM     18  C   UNL     1       1.209  -0.673  -0.010  0.00  0.00    +0.008 A 
ATOM     19  C   UNL     1       0.002  -0.004   0.002  0.00  0.00    -0.038 A 
ATOM     20  C   UNL     1       3.686  -0.762  -0.012  0.00  0.00    +0.035 C 
ATOM     21  C   UNL     1       4.861   0.113  -0.446  0.00  0.00    +0.005 C 
ATOM     22  C   UNL     1       4.847   1.394   0.396  0.00  0.00    +0.005 C 
ATOM     23  C   UNL     1       3.645   2.236  -0.027  0.00  0.00    +0.035 C 
ENDBRANCH  13  19
ENDBRANCH   1  13
TORSDOF 2
