REMARK  Name = ZINC38081748
REMARK  7 active torsions:
REMARK  status: ('A' for Active; 'I' for Inactive)
REMARK    1  A    between atoms: C_1  and  C_2
REMARK    2  A    between atoms: C_5  and  N_20
REMARK    3  A    between atoms: C_7  and  O_8
REMARK    4  A    between atoms: O_8  and  C_9
REMARK    5  A    between atoms: C_12  and  C_16
REMARK    6  A    between atoms: C_16  and  C_18
REMARK    7  A    between atoms: C_16  and  N_19
REMARK                            x       y       z     vdW  Elec       q    Type
REMARK                         _______ _______ _______ _____ _____    ______ ____
ROOT
ATOM      1  C   UNL     1       0.054  -0.848   3.469  0.00  0.00    +0.163 A 
ATOM      2  C   UNL     1       0.136  -2.223   3.306  0.00  0.00    +0.049 A 
ATOM      3  C   UNL     1       0.166  -3.048   4.414  0.00  0.00    +0.006 A 
ATOM      4  C   UNL     1       0.113  -2.506   5.685  0.00  0.00    -0.059 A 
ATOM      5  C   UNL     1       0.031  -1.135   5.851  0.00  0.00    +0.044 A 
ATOM      6  C   UNL     1       0.007  -0.304   4.747  0.00  0.00    +0.166 A 
ATOM      7  F   UNL     1      -0.067   1.035   4.909  0.00  0.00    -0.202 F 
ENDROOT
BRANCH   4   8
ATOM      8  C   UNL     1       0.145  -3.409   6.890  0.00  0.00    -0.047 C 
ATOM      9  C   UNL     1       1.560  -3.434   7.472  0.00  0.00    -0.009 C 
BRANCH   8  10
ATOM     10  N   UNL     1      -0.793  -2.907   7.903  0.00  0.00    +0.382 N 
ATOM     11  H   UNL     1      -1.726  -2.891   7.519  0.00  0.00    -0.089 HD
ATOM     12  H   UNL     1      -0.772  -3.513   8.710  0.00  0.00    -0.089 HD
ATOM     13  H   UNL     1      -0.525  -1.974   8.176  0.00  0.00    -0.089 HD
ENDBRANCH   8  10
ENDBRANCH   4   8
BRANCH   1  14
ATOM     14  O   UNL     1       0.025  -0.034   2.381  0.00  0.00    -0.453 OA
BRANCH  14  21
ATOM     15  C   UNL     1      -0.086   1.824   0.255  0.00  0.00    +0.047 C 
ATOM     16  C   UNL     1       1.209   1.408   0.904  0.00  0.00    -0.008 A 
ATOM     17  C   UNL     1       2.405   1.944   0.467  0.00  0.00    +0.009 A 
ATOM     18  C   UNL     1       3.593   1.563   1.062  0.00  0.00    +0.033 A 
ATOM     19  C   UNL     1       3.588   0.644   2.096  0.00  0.00    +0.130 A 
ATOM     20  C   UNL     1       2.395   0.105   2.536  0.00  0.00    +0.079 A 
ATOM     21  C   UNL     1       1.200   0.491   1.945  0.00  0.00    +0.134 A 
BRANCH  19  22
ATOM     22  N   UNL     1       4.862   0.238   2.730  0.00  0.00    +0.057 N 
ATOM     23  O   UNL     1       5.907   0.710   2.344  0.00  0.00    -0.126 OA
ATOM     24  O   UNL     1       4.859  -0.564   3.634  0.00  0.00    -0.126 OA
ENDBRANCH  19  22
ENDBRANCH  14  21
ENDBRANCH   1  14
TORSDOF 5
