REMARK  Name = ZINC34574245
REMARK  14 active torsions:
REMARK  status: ('A' for Active; 'I' for Inactive)
REMARK    1  A    between atoms: C_1  and  C_2
REMARK    2  A    between atoms: C_2  and  N_3
REMARK    3  A    between atoms: C_6  and  C_7
REMARK    4  A    between atoms: C_10  and  O_15
REMARK    5  A    between atoms: C_11  and  O_13
REMARK    6  A    between atoms: O_13  and  C_14
REMARK    7  A    between atoms: O_15  and  C_16
REMARK    8  A    between atoms: C_20  and  C_28
REMARK    9  A    between atoms: C_22  and  C_26
REMARK   10  A    between atoms: C_23  and  N_25
REMARK   11  A    between atoms: C_31  and  O_36
REMARK   12  A    between atoms: C_32  and  O_34
REMARK   13  A    between atoms: O_34  and  C_35
REMARK   14  A    between atoms: O_36  and  C_37
REMARK                            x       y       z     vdW  Elec       q    Type
REMARK                         _______ _______ _______ _____ _____    ______ ____
ROOT
ATOM      1  N   UNL     1       1.135  -0.206  -1.163  0.00  0.00    -0.294 NA
ATOM      2  C   UNL     1       0.223   0.081  -2.286  0.00  0.00    +0.123 C 
ATOM      3  C   UNL     1       0.905  -0.411  -3.545  0.00  0.00    +0.010 C 
ATOM      4  C   UNL     1       0.861   0.300  -4.686  0.00  0.00    +0.016 C 
ATOM      5  C   UNL     1       1.622  -1.702  -3.474  0.00  0.00    +0.136 C 
ATOM      6  C   UNL     1       1.826  -2.279  -2.289  0.00  0.00    -0.001 C 
ATOM      7  C   UNL     1       1.331  -1.649  -1.012  0.00  0.00    +0.120 C 
ATOM      8  C   UNL     1       2.564  -3.593  -2.198  0.00  0.00    +0.095 C 
ATOM      9  C   UNL     1       2.585  -4.276  -3.535  0.00  0.00    +0.098 C 
ATOM     10  C   UNL     1       2.331  -3.580  -4.672  0.00  0.00    +0.199 C 
ATOM     11  O   UNL     1       2.055  -2.265  -4.628  0.00  0.00    -0.441 OA
ENDROOT
BRANCH   4  12
ATOM     12  C   UNL     1       0.003   1.494  -4.777  0.00  0.00    -0.021 A 
ATOM     13  C   UNL     1       0.390   2.576  -5.573  0.00  0.00    +0.012 A 
ATOM     14  C   UNL     1      -0.414   3.692  -5.656  0.00  0.00    +0.050 A 
ATOM     15  C   UNL     1      -1.609   3.745  -4.952  0.00  0.00    +0.162 A 
ATOM     16  C   UNL     1      -2.001   2.671  -4.156  0.00  0.00    +0.162 A 
ATOM     17  C   UNL     1      -1.203   1.545  -4.072  0.00  0.00    +0.057 A 
BRANCH  16  18
ATOM     18  O   UNL     1      -3.172   2.727  -3.466  0.00  0.00    -0.491 OA
ATOM     19  C   UNL     1      -3.511   1.590  -2.671  0.00  0.00    +0.277 C 
ENDBRANCH  16  18
BRANCH  15  20
ATOM     20  O   UNL     1      -2.398   4.849  -5.038  0.00  0.00    -0.491 OA
ATOM     21  C   UNL     1      -1.935   5.914  -5.871  0.00  0.00    +0.277 C 
ENDBRANCH  15  20
ENDBRANCH   4  12
BRANCH   8  22
ATOM     22  C   UNL     1       3.981  -3.338  -1.750  0.00  0.00    -0.031 A 
ATOM     23  C   UNL     1       4.809  -2.531  -2.509  0.00  0.00    +0.008 A 
ATOM     24  C   UNL     1       6.109  -2.295  -2.102  0.00  0.00    +0.050 A 
ATOM     25  C   UNL     1       6.585  -2.866  -0.933  0.00  0.00    +0.162 A 
ATOM     26  C   UNL     1       5.751  -3.677  -0.169  0.00  0.00    +0.162 A 
ATOM     27  C   UNL     1       4.447  -3.906  -0.580  0.00  0.00    +0.054 A 
BRANCH  26  28
ATOM     28  O   UNL     1       6.213  -4.240   0.979  0.00  0.00    -0.491 OA
ATOM     29  C   UNL     1       5.301  -5.061   1.712  0.00  0.00    +0.277 C 
ENDBRANCH  26  28
BRANCH  25  30
ATOM     30  O   UNL     1       7.863  -2.634  -0.532  0.00  0.00    -0.491 OA
ATOM     31  C   UNL     1       8.662  -1.792  -1.365  0.00  0.00    +0.277 C 
ENDBRANCH  25  30
ENDBRANCH   8  22
BRANCH  10  32
ATOM     32  N   UNL     1       2.356  -4.227  -5.882  0.00  0.00    -0.328 N 
ATOM     33  H   UNL     1       2.555  -5.176  -5.921  0.00  0.00    +0.145 HD
ATOM     34  H   UNL     1       2.175  -3.736  -6.699  0.00  0.00    +0.145 HD
ENDBRANCH  10  32
BRANCH   1  36
ATOM     35  C   UNL     1       0.682   1.917  -0.029  0.00  0.00    +0.020 C 
ATOM     36  C   UNL     1       0.639   0.392   0.084  0.00  0.00    +0.082 C 
ENDBRANCH   1  36
BRANCH   9  37
ATOM     37  C   UNL     1       2.877  -5.676  -3.612  0.00  0.00    +0.101 C 
ATOM     38  N   UNL     1       3.109  -6.786  -3.672  0.00  0.00    -0.191 NA
ENDBRANCH   9  37
TORSDOF 9
