REMARK  Name = ZINC60349531
REMARK  6 active torsions:
REMARK  status: ('A' for Active; 'I' for Inactive)
REMARK    1  A    between atoms: C_1  and  C_2
REMARK    2  A    between atoms: C_2  and  C_3
REMARK    3  A    between atoms: C_3  and  C_4
REMARK    4  A    between atoms: C_3  and  C_5
REMARK    5  A    between atoms: C_3  and  O_20
REMARK    6  A    between atoms: C_5  and  N_6
REMARK                            x       y       z     vdW  Elec       q    Type
REMARK                         _______ _______ _______ _____ _____    ______ ____
ROOT
ATOM      1  N   UNL     1       1.316  -2.496  -2.534  0.00  0.00    -0.326 N 
ATOM      2  C   UNL     1       1.369  -3.849  -2.814  0.00  0.00    +0.131 A 
ATOM      3  C   UNL     1       1.944  -4.312  -4.030  0.00  0.00    +0.051 A 
ATOM      4  C   UNL     1       2.533  -3.532  -5.120  0.00  0.00    -0.025 A 
ATOM      5  C   UNL     1       3.014  -4.222  -6.175  0.00  0.00    -0.004 A 
ATOM      6  S   UNL     1       2.716  -5.926  -5.788  0.00  0.00    -0.073 S 
ATOM      7  C   UNL     1       1.942  -5.710  -4.207  0.00  0.00    +0.114 A 
ATOM      8  N   UNL     1       1.437  -6.519  -3.296  0.00  0.00    -0.228 NA
ATOM      9  C   UNL     1       0.916  -6.031  -2.187  0.00  0.00    +0.224 A 
ATOM     10  N   UNL     1       0.890  -4.731  -1.952  0.00  0.00    -0.220 NA
ATOM     11  C   UNL     1       3.659  -3.663  -7.407  0.00  0.00    +0.043 C 
ATOM     12  C   UNL     1       3.362  -2.158  -7.470  0.00  0.00    +0.005 C 
ATOM     13  C   UNL     1       3.656  -1.543  -6.098  0.00  0.00    +0.005 C 
ATOM     14  C   UNL     1       2.610  -2.009  -5.085  0.00  0.00    +0.037 C 
ATOM     15  H   UNL     1       1.596  -1.851  -3.202  0.00  0.00    +0.148 HD
ENDROOT
BRANCH   1  16
ATOM     16  C   UNL     1       0.837  -2.036  -1.228  0.00  0.00    +0.137 C 
BRANCH  16  17
ATOM     17  C   UNL     1       0.879  -0.507  -1.178  0.00  0.00    +0.078 C 
ATOM     18  C   UNL     1      -0.016   0.064  -2.280  0.00  0.00    +0.043 C 
BRANCH  17  20
ATOM     19  C   UNL     1       0.303   1.501   0.192  0.00  0.00    +0.007 C 
ATOM     20  C   UNL     1       0.379  -0.027   0.186  0.00  0.00    +0.032 C 
ENDBRANCH  17  20
BRANCH  17  21
ATOM     21  O   UNL     1       2.222  -0.061  -1.377  0.00  0.00    -0.387 OA
ATOM     22  H   UNL     1       2.847  -0.386  -0.714  0.00  0.00    +0.210 HD
ENDBRANCH  17  21
ENDBRANCH  16  17
ENDBRANCH   1  16
TORSDOF 4
