REMARK  Name = ZINC09578818
REMARK  5 active torsions:
REMARK  status: ('A' for Active; 'I' for Inactive)
REMARK    1  A    between atoms: C_1  and  C_2
REMARK    2  A    between atoms: C_5  and  C_28
REMARK    3  A    between atoms: C_9  and  C_10
REMARK    4  A    between atoms: C_9  and  N_50
REMARK    5  A    between atoms: C_15  and  C_18
REMARK                            x       y       z     vdW  Elec       q    Type
REMARK                         _______ _______ _______ _____ _____    ______ ____
ROOT
ATOM      1  C   UNL     1      -0.564   1.746   3.635  0.00  0.00    +0.202 C 
ATOM      2  O   UNL     1      -1.391   2.626   3.515  0.00  0.00    -0.277 OA
ATOM      3  N   UNL     1      -0.062   1.456   4.852  0.00  0.00    -0.266 N 
ATOM      4  C   UNL     1      -0.491   2.163   5.968  0.00  0.00    +0.165 A 
ATOM      5  N   UNL     1      -0.120   2.026   7.225  0.00  0.00    -0.225 NA
ATOM      6  C   UNL     1      -0.632   2.790   8.179  0.00  0.00    +0.082 A 
ATOM      7  C   UNL     1      -1.559   3.729   7.822  0.00  0.00    +0.077 A 
ATOM      8  S   UNL     1      -1.644   3.457   6.058  0.00  0.00    -0.060 S 
ATOM      9  H   UNL     1       0.599   0.752   4.948  0.00  0.00    +0.157 HD
ENDROOT
BRANCH   6  10
ATOM     10  C   UNL     1      -0.212   2.631   9.593  0.00  0.00    +0.026 A 
ATOM     11  C   UNL     1      -0.658   3.344  10.654  0.00  0.00    +0.093 A 
ATOM     12  N   UNL     1      -0.040   2.911  11.795  0.00  0.00    -0.360 N 
ATOM     13  H   UNL     1      -0.197   3.270  12.682  0.00  0.00    +0.165 HD
ATOM     14  C   UNL     1       0.836   1.889  11.500  0.00  0.00    +0.047 A 
ATOM     15  C   UNL     1       0.766   1.663  10.115  0.00  0.00    +0.009 A 
ATOM     16  C   UNL     1       1.559   0.677   9.529  0.00  0.00    +0.010 A 
ATOM     17  C   UNL     1       2.396  -0.073  10.307  0.00  0.00    +0.001 A 
ATOM     18  C   UNL     1       2.465   0.142  11.676  0.00  0.00    +0.002 A 
ATOM     19  C   UNL     1       1.693   1.114  12.274  0.00  0.00    +0.026 A 
ENDBRANCH   6  10
BRANCH   1  20
ATOM     20  C   UNL     1      -0.099   0.979   2.425  0.00  0.00    +0.019 C 
BRANCH  20  28
ATOM     21  C   UNL     1      -4.578   1.068   0.394  0.00  0.00    +0.005 C 
ATOM     22  C   UNL     1      -3.123   1.518   0.247  0.00  0.00    -0.031 C 
ATOM     23  C   UNL     1      -2.556   0.992  -1.075  0.00  0.00    +0.003 C 
ATOM     24  C   UNL     1      -1.083   1.396  -1.185  0.00  0.00    -0.031 C 
ATOM     25  C   UNL     1      -0.315   0.844   0.018  0.00  0.00    -0.075 C 
ATOM     26  C   UNL     1      -2.296   0.962   1.409  0.00  0.00    -0.075 C 
ATOM     27  C   UNL     1      -0.492   0.824  -2.475  0.00  0.00    +0.005 C 
ATOM     28  N   UNL     1      -0.895   1.407   1.256  0.00  0.00    +0.386 N 
ATOM     29  H   UNL     1      -0.875   2.432   1.197  0.00  0.00    -0.081 HD
ENDBRANCH  20  28
ENDBRANCH   1  20
TORSDOF 3
