REMARK  Name = ZINC39685936
REMARK  10 active torsions:
REMARK  status: ('A' for Active; 'I' for Inactive)
REMARK    1  A    between atoms: C_1  and  C_2
REMARK    2  A    between atoms: C_2  and  C_3
REMARK    3  A    between atoms: C_3  and  C_4
REMARK    4  A    between atoms: C_4  and  C_6
REMARK    5  A    between atoms: C_4  and  C_7
REMARK    6  A    between atoms: C_11  and  C_20
REMARK    7  A    between atoms: N_22  and  C_23
REMARK    8  A    between atoms: C_29  and  C_31
REMARK    9  A    between atoms: C_31  and  C_32
REMARK   10  A    between atoms: C_31  and  C_33
REMARK                            x       y       z     vdW  Elec       q    Type
REMARK                         _______ _______ _______ _____ _____    ______ ____
ROOT
ATOM      1  C   UNL     1       1.496  -2.569  -4.668  0.00  0.00    +0.218 C 
ATOM      2  O   UNL     1       2.148  -1.982  -5.505  0.00  0.00    -0.275 OA
ATOM      3  N   UNL     1       1.505  -3.916  -4.629  0.00  0.00    -0.300 N 
ATOM      4  C   UNL     1       0.691  -4.806  -3.768  0.00  0.00    +0.121 C 
ATOM      5  C   UNL     1       0.302  -5.988  -4.684  0.00  0.00    +0.100 C 
ATOM      6  C   UNL     1       1.383  -6.008  -5.778  0.00  0.00    -0.004 C 
ATOM      7  C   UNL     1       2.326  -4.843  -5.444  0.00  0.00    +0.115 C 
ATOM      8  C   UNL     1       0.752  -5.792  -7.149  0.00  0.00    -0.010 C 
ATOM      9  C   UNL     1       1.838  -5.873  -8.225  0.00  0.00    -0.082 C 
ATOM     10  N   UNL     1       2.490  -7.187  -8.166  0.00  0.00    +0.379 N 
ATOM     11  C   UNL     1       3.174  -7.350  -6.878  0.00  0.00    -0.082 C 
ATOM     12  C   UNL     1       2.144  -7.330  -5.745  0.00  0.00    -0.010 C 
ATOM     13  H   UNL     1       1.795  -7.911  -8.271  0.00  0.00    -0.086 HD
ATOM     14  H   UNL     1       3.163  -7.261  -8.915  0.00  0.00    -0.086 HD
ENDROOT
BRANCH   5  15
ATOM     15  C   UNL     1       0.314  -7.279  -3.907  0.00  0.00    +0.218 C 
ATOM     16  O   UNL     1       1.076  -7.419  -2.974  0.00  0.00    -0.275 OA
ATOM     17  N   UNL     1      -0.522  -8.280  -4.250  0.00  0.00    -0.312 N 
ATOM     18  H   UNL     1      -1.131  -8.168  -4.997  0.00  0.00    +0.149 HD
BRANCH  17  19
ATOM     19  C   UNL     1      -0.510  -9.535  -3.495  0.00  0.00    +0.076 C 
ATOM     20  C   UNL     1       0.582 -10.453  -4.048  0.00  0.00    +0.041 C 
ATOM     21  C   UNL     1       0.614 -11.750  -3.234  0.00  0.00    +0.109 C 
ATOM     22  N   UNL     1      -0.731 -12.343  -3.236  0.00  0.00    -0.301 N 
ATOM     23  C   UNL     1      -1.867 -11.516  -2.808  0.00  0.00    +0.109 C 
ATOM     24  C   UNL     1      -1.872 -10.222  -3.627  0.00  0.00    +0.041 C 
ATOM     25  C   UNL     1      -0.917 -13.620  -3.623  0.00  0.00    +0.218 C 
ATOM     26  O   UNL     1       0.038 -14.322  -3.879  0.00  0.00    -0.275 OA
BRANCH  25  27
ATOM     27  C   UNL     1      -2.313 -14.176  -3.738  0.00  0.00    +0.069 C 
ATOM     28  C   UNL     1      -2.257 -15.572  -4.362  0.00  0.00    +0.017 C 
ATOM     29  C   UNL     1      -2.943 -14.265  -2.346  0.00  0.00    +0.017 C 
ENDBRANCH  25  27
ENDBRANCH  17  19
ENDBRANCH   5  15
BRANCH   1  30
ATOM     30  C   UNL     1       0.676  -1.792  -3.670  0.00  0.00    +0.072 C 
ATOM     31  C   UNL     1      -0.728  -1.561  -4.233  0.00  0.00    +0.017 C 
BRANCH  30  32
ATOM     32  C   UNL     1       1.346  -0.443  -3.400  0.00  0.00    +0.012 C 
BRANCH  32  34
ATOM     33  C   UNL     1       1.253   1.642  -2.026  0.00  0.00    +0.004 C 
ATOM     34  C   UNL     1       0.584   0.293  -2.296  0.00  0.00    -0.003 C 
ENDBRANCH  32  34
ENDBRANCH  30  32
ENDBRANCH   1  30
TORSDOF 6
