REMARK  Name = ZINC08157118
REMARK  6 active torsions:
REMARK  status: ('A' for Active; 'I' for Inactive)
REMARK    1  A    between atoms: C_1  and  C_2
REMARK    2  A    between atoms: C_9  and  N_14
REMARK    3  A    between atoms: N_14  and  C_15
REMARK    4  A    between atoms: C_15  and  C_17
REMARK    5  A    between atoms: C_15  and  C_23
REMARK    6  A    between atoms: C_23  and  C_25
REMARK                            x       y       z     vdW  Elec       q    Type
REMARK                         _______ _______ _______ _____ _____    ______ ____
ROOT
ATOM      1  C   UNL     1       0.002  -0.004   0.002  0.00  0.00    +0.173 C 
ENDROOT
BRANCH   1   2
ATOM      2  C   UNL     1      -0.018   1.503   0.010  0.00  0.00    -0.020 A 
ATOM      3  C   UNL     1      -1.225   2.178   0.020  0.00  0.00    +0.006 A 
ATOM      4  C   UNL     1      -1.244   3.560   0.032  0.00  0.00    +0.000 A 
ATOM      5  C   UNL     1      -0.056   4.267   0.025  0.00  0.00    +0.000 A 
ATOM      6  C   UNL     1       1.151   3.592   0.010  0.00  0.00    +0.000 A 
ATOM      7  C   UNL     1       1.169   2.210   0.003  0.00  0.00    +0.006 A 
ENDBRANCH   1   2
BRANCH   1   8
ATOM      8  N   UNL     1      -1.058  -0.502  -0.878  0.00  0.00    -0.330 N 
ATOM      9  H   UNL     1      -1.921  -0.746  -0.509  0.00  0.00    +0.147 HD
BRANCH   8  17
ATOM     10  C   UNL     1      -0.728  -1.861  -8.488  0.00  0.00    +0.062 C 
ATOM     11  C   UNL     1      -0.809  -2.066  -6.974  0.00  0.00    +0.256 C 
ATOM     12  C   UNL     1      -2.255  -2.096  -6.549  0.00  0.00    +0.258 C 
ATOM     13  O   UNL     1      -3.108  -2.482  -7.319  0.00  0.00    -0.271 OA
ATOM     14  N   UNL     1      -2.596  -1.692  -5.306  0.00  0.00    -0.279 N 
ATOM     15  C   UNL     1      -1.595  -1.218  -4.446  0.00  0.00    +0.077 A 
ATOM     16  C   UNL     1      -1.828  -1.102  -3.086  0.00  0.00    +0.050 A 
ATOM     17  C   UNL     1      -0.825  -0.625  -2.253  0.00  0.00    +0.030 A 
ATOM     18  C   UNL     1       0.410  -0.275  -2.782  0.00  0.00    +0.026 A 
ATOM     19  C   UNL     1       0.644  -0.395  -4.139  0.00  0.00    +0.049 A 
ATOM     20  C   UNL     1      -0.354  -0.866  -4.974  0.00  0.00    +0.143 A 
ATOM     21  O   UNL     1      -0.136  -0.992  -6.312  0.00  0.00    -0.478 OA
ATOM     22  H   UNL     1      -3.520  -1.730  -5.012  0.00  0.00    +0.155 HD
ENDBRANCH   8  17
ENDBRANCH   1   8
BRANCH   1  23
ATOM     23  C   UNL     1      -0.224  -0.517   1.401  0.00  0.00    +0.190 C 
ATOM     24  O   UNL     1      -1.299  -0.992   1.706  0.00  0.00    -0.290 OA
BRANCH  23  25
ATOM     25  C   UNL     1       0.817  -0.445   2.359  0.00  0.00    +0.045 A 
ATOM     26  C   UNL     1       2.084   0.063   2.169  0.00  0.00    +0.095 A 
ATOM     27  N   UNL     1       2.790  -0.040   3.311  0.00  0.00    -0.360 N 
ATOM     28  H   UNL     1       3.709   0.251   3.420  0.00  0.00    +0.165 HD
ATOM     29  C   UNL     1       2.027  -0.619   4.305  0.00  0.00    +0.047 A 
ATOM     30  C   UNL     1       0.761  -0.893   3.765  0.00  0.00    +0.010 A 
ATOM     31  C   UNL     1      -0.224  -1.479   4.554  0.00  0.00    +0.011 A 
ATOM     32  C   UNL     1       0.048  -1.785   5.870  0.00  0.00    +0.001 A 
ATOM     33  C   UNL     1       1.297  -1.512   6.407  0.00  0.00    +0.002 A 
ATOM     34  C   UNL     1       2.284  -0.939   5.634  0.00  0.00    +0.026 A 
ENDBRANCH  23  25
ENDBRANCH   1  23
TORSDOF 5
