REMARK  Name = ZINC33459477
REMARK  3 active torsions:
REMARK  status: ('A' for Active; 'I' for Inactive)
REMARK    1  A    between atoms: C_8  and  N_28
REMARK    2  A    between atoms: C_9  and  C_12
REMARK    3  A    between atoms: N_16  and  C_20
REMARK                            x       y       z     vdW  Elec       q    Type
REMARK                         _______ _______ _______ _____ _____    ______ ____
ROOT
ATOM      1  C   UNL     1      -4.378  -3.517   1.420  0.00  0.00    +0.005 A 
ATOM      2  C   UNL     1      -4.712  -3.405   2.776  0.00  0.00    +0.018 A 
ATOM      3  C   UNL     1      -4.294  -2.336   3.491  0.00  0.00    +0.096 A 
ATOM      4  N   UNL     1      -3.543  -1.358   2.910  0.00  0.00    -0.268 N 
ATOM      5  C   UNL     1      -3.201  -1.440   1.589  0.00  0.00    +0.142 A 
ATOM      6  C   UNL     1      -3.628  -2.543   0.829  0.00  0.00    +0.047 A 
ATOM      7  N   UNL     1      -2.469  -0.492   1.003  0.00  0.00    -0.214 NA
ATOM      8  C   UNL     1      -2.040   0.569   1.671  0.00  0.00    +0.136 A 
ATOM      9  C   UNL     1      -2.359   0.704   3.043  0.00  0.00    +0.081 A 
ATOM     10  C   UNL     1      -3.142  -0.304   3.654  0.00  0.00    +0.267 A 
ATOM     11  O   UNL     1      -3.442  -0.227   4.832  0.00  0.00    -0.267 OA
ENDROOT
BRANCH   9  12
ATOM     12  C   UNL     1      -1.910   1.823   3.784  0.00  0.00    +0.037 C 
ATOM     13  C   UNL     1      -2.813   2.712   4.291  0.00  0.00    +0.077 C 
ATOM     14  C   UNL     1      -4.224   2.775   4.107  0.00  0.00    +0.259 C 
ATOM     15  O   UNL     1      -4.802   1.958   3.412  0.00  0.00    -0.269 OA
ATOM     16  N   UNL     1      -4.889   3.741   4.716  0.00  0.00    -0.251 N 
ATOM     17  C   UNL     1      -4.246   4.652   5.480  0.00  0.00    +0.121 C 
ATOM     18  S   UNL     1      -4.897   5.979   6.345  0.00  0.00    -0.027 S 
ATOM     19  S   UNL     1      -2.545   4.120   5.359  0.00  0.00    -0.061 S 
BRANCH  16  20
ATOM     20  C   UNL     1      -6.342   3.831   4.553  0.00  0.00    +0.105 C 
ATOM     21  C   UNL     1      -6.700   5.174   3.894  0.00  0.00    +0.047 C 
ATOM     22  C   UNL     1      -8.237   5.380   4.020  0.00  0.00    +0.168 C 
ATOM     23  S   UNL     1      -8.520   4.773   5.736  0.00  0.00    -0.029 S 
ATOM     24  O   UNL     1      -8.441   5.872   6.634  0.00  0.00    -0.174 OA
ATOM     25  O   UNL     1      -9.671   3.941   5.748  0.00  0.00    -0.174 OA
ATOM     26  C   UNL     1      -7.021   3.728   5.940  0.00  0.00    +0.188 C 
ENDBRANCH  16  20
ENDBRANCH   9  12
BRANCH   8  27
ATOM     27  N   UNL     1      -1.285   1.530   1.036  0.00  0.00    -0.315 N 
ATOM     28  C   UNL     1      -0.873   1.076  -0.312  0.00  0.00    +0.106 C 
ATOM     29  C   UNL     1      -1.921   1.338  -1.359  0.00  0.00    +0.019 C 
ATOM     30  C   UNL     1      -1.617   2.694  -2.028  0.00  0.00    +0.002 C 
ATOM     31  C   UNL     1      -2.042   3.822  -1.206  0.00  0.00    +0.002 C 
ATOM     32  C   UNL     1      -1.319   3.855   0.156  0.00  0.00    +0.019 C 
ATOM     33  C   UNL     1      -1.964   2.844   1.064  0.00  0.00    +0.106 C 
ENDBRANCH   8  27
TORSDOF 3
