REMARK  Name = ZINC12871868
REMARK  9 active torsions:
REMARK  status: ('A' for Active; 'I' for Inactive)
REMARK    1  A    between atoms: C_1  and  C_2
REMARK    2  A    between atoms: C_2  and  C_3
REMARK    3  A    between atoms: C_2  and  C_4
REMARK    4  A    between atoms: C_4  and  C_6
REMARK    5  A    between atoms: C_4  and  N_19
REMARK    6  A    between atoms: N_8  and  N_9
REMARK    7  A    between atoms: C_10  and  C_12
REMARK    8  A    between atoms: N_19  and  S_20
REMARK    9  A    between atoms: S_20  and  C_23
REMARK                            x       y       z     vdW  Elec       q    Type
REMARK                         _______ _______ _______ _____ _____    ______ ____
ROOT
ATOM      1  C   UNL     1      -0.714   0.980   1.270  0.00  0.00    +0.248 C 
ATOM      2  O   UNL     1      -1.905   1.209   1.246  0.00  0.00    -0.273 OA
ATOM      3  N   UNL     1      -0.116   0.645   2.430  0.00  0.00    -0.233 N 
ATOM      4  H   UNL     1       0.837   0.462   2.450  0.00  0.00    +0.173 HD
ENDROOT
BRANCH   3   5
ATOM      5  N   UNL     1      -0.869   0.561   3.609  0.00  0.00    -0.230 N 
ATOM      6  C   UNL     1      -0.271   0.226   4.769  0.00  0.00    +0.260 C 
ATOM      7  O   UNL     1       0.923  -0.003   4.793  0.00  0.00    -0.269 OA
ATOM      8  H   UNL     1      -1.822   0.744   3.589  0.00  0.00    +0.173 HD
BRANCH   6   9
ATOM      9  C   UNL     1      -1.066   0.137   6.011  0.00  0.00    +0.038 A 
ATOM     10  C   UNL     1      -2.436   0.405   5.988  0.00  0.00    +0.014 A 
ATOM     11  C   UNL     1      -3.173   0.315   7.150  0.00  0.00    +0.021 A 
ATOM     12  C   UNL     1      -2.555  -0.030   8.341  0.00  0.00    +0.041 A 
ATOM     13  C   UNL     1      -1.195  -0.291   8.371  0.00  0.00    +0.021 A 
ATOM     14  C   UNL     1      -0.449  -0.210   7.215  0.00  0.00    +0.014 A 
ATOM     15 CL   UNL     1      -3.489  -0.134   9.800  0.00  0.00    -0.084 Cl
ENDBRANCH   6   9
ENDBRANCH   3   5
BRANCH   1  16
ATOM     16  C   UNL     1       0.096   1.071   0.003  0.00  0.00    +0.166 C 
BRANCH  16  18
ATOM     17  C   UNL     1       2.084   2.138  -1.070  0.00  0.00    +0.009 C 
ATOM     18  C   UNL     1       1.191   2.126   0.172  0.00  0.00    +0.010 C 
ATOM     19  C   UNL     1       0.549   3.503   0.353  0.00  0.00    +0.009 C 
ENDBRANCH  16  18
BRANCH  16  20
ATOM     20  N   UNL     1      -0.778   1.448  -1.110  0.00  0.00    -0.177 NA
ATOM     21  H   UNL     1      -1.213   2.315  -1.112  0.00  0.00    +0.149 HD
BRANCH  20  22
ATOM     22  S   UNL     1      -1.024   0.395  -2.364  0.00  0.00    +0.065 S 
ATOM     23  O   UNL     1      -1.951   1.019  -3.243  0.00  0.00    -0.153 OA
ATOM     24  O   UNL     1       0.261  -0.034  -2.792  0.00  0.00    -0.153 OA
BRANCH  22  25
ATOM     25  C   UNL     1      -1.834  -1.023  -1.702  0.00  0.00    +0.142 A 
ATOM     26  C   UNL     1      -3.161  -1.265  -1.572  0.00  0.00    +0.036 A 
ATOM     27  C   UNL     1      -3.573  -2.462  -1.018  0.00  0.00    +0.010 A 
ATOM     28  C   UNL     1      -2.638  -3.359  -0.622  0.00  0.00    +0.047 A 
ATOM     29  S   UNL     1      -1.119  -2.517  -1.037  0.00  0.00    -0.077 S 
ENDBRANCH  22  25
ENDBRANCH  20  22
ENDBRANCH  16  20
ENDBRANCH   1  16
TORSDOF 7
