REMARK  Name = ZINC65013389
REMARK  4 active torsions:
REMARK  status: ('A' for Active; 'I' for Inactive)
REMARK    1  A    between atoms: C_10  and  C_12
REMARK    2  A    between atoms: C_14  and  N_22
REMARK    3  A    between atoms: C_17  and  O_18
REMARK    4  A    between atoms: O_18  and  C_19
REMARK                            x       y       z     vdW  Elec       q    Type
REMARK                         _______ _______ _______ _____ _____    ______ ____
ROOT
ATOM      1  C   UNL     1      -0.017   1.375   0.010  0.00  0.00    +0.001 A 
ATOM      2  C   UNL     1       1.168   2.095   0.002  0.00  0.00    +0.002 A 
ATOM      3  C   UNL     1       2.386   1.444  -0.012  0.00  0.00    +0.024 A 
ATOM      4  C   UNL     1       2.422   0.060  -0.018  0.00  0.00    +0.041 A 
ATOM      5  C   UNL     1       1.223  -0.674  -0.014  0.00  0.00    +0.058 A 
ATOM      6  C   UNL     1       0.002  -0.004   0.002  0.00  0.00    +0.015 A 
ATOM      7  C   UNL     1       1.301  -2.146  -0.031  0.00  0.00    +0.247 C 
ATOM      8  O   UNL     1       0.313  -2.811  -0.277  0.00  0.00    -0.270 OA
ATOM      9  N   UNL     1       2.480  -2.747   0.230  0.00  0.00    -0.289 N 
ATOM     10  C   UNL     1       3.660  -1.968   0.607  0.00  0.00    +0.193 C 
ATOM     11  N   UNL     1       3.621  -0.645  -0.027  0.00  0.00    -0.322 N 
ATOM     12  H   UNL     1       2.547  -3.712   0.167  0.00  0.00    +0.151 HD
ATOM     13  H   UNL     1       4.413  -0.271  -0.443  0.00  0.00    +0.148 HD
ENDROOT
BRANCH  10  14
ATOM     14  C   UNL     1       3.691  -1.803   2.105  0.00  0.00    +0.035 A 
ATOM     15  C   UNL     1       4.167  -0.631   2.661  0.00  0.00    +0.043 A 
ATOM     16  C   UNL     1       4.196  -0.479   4.035  0.00  0.00    +0.127 A 
ATOM     17  C   UNL     1       3.749  -1.499   4.856  0.00  0.00    +0.036 A 
ATOM     18  C   UNL     1       3.273  -2.672   4.304  0.00  0.00    +0.048 A 
ATOM     19  C   UNL     1       3.237  -2.825   2.925  0.00  0.00    +0.133 A 
BRANCH  16  20
ATOM     20  N   UNL     1       4.706   0.777   4.629  0.00  0.00    +0.056 N 
ATOM     21  O   UNL     1       5.097   1.669   3.912  0.00  0.00    -0.126 OA
ATOM     22  O   UNL     1       4.732   0.911   5.830  0.00  0.00    -0.126 OA
ENDBRANCH  16  20
BRANCH  19  23
ATOM     23  O   UNL     1       2.764  -3.976   2.380  0.00  0.00    -0.434 OA
BRANCH  23  24
ATOM     24  C   UNL     1       2.313  -4.986   3.286  0.00  0.00    +0.541 C 
ATOM     25  F   UNL     1       3.369  -5.370   4.119  0.00  0.00    -0.166 F 
ATOM     26  F   UNL     1       1.266  -4.480   4.064  0.00  0.00    -0.166 F 
ENDBRANCH  23  24
ENDBRANCH  19  23
ENDBRANCH  10  14
TORSDOF 4
