REMARK  Name = ZINC29255368
REMARK  4 active torsions:
REMARK  status: ('A' for Active; 'I' for Inactive)
REMARK    1  A    between atoms: C_1  and  C_2
REMARK    2  A    between atoms: C_2  and  C_4
REMARK    3  A    between atoms: C_2  and  N_14
REMARK    4  A    between atoms: C_15  and  C_17
REMARK                            x       y       z     vdW  Elec       q    Type
REMARK                         _______ _______ _______ _____ _____    ______ ____
ROOT
ATOM      1  N   UNL     1       0.688  -0.476  -1.203  0.00  0.00    -0.302 N 
ATOM      2  C   UNL     1       0.006  -0.608  -2.358  0.00  0.00    +0.244 C 
ATOM      3  O   UNL     1      -1.179  -0.335  -2.400  0.00  0.00    -0.270 OA
ATOM      4  H   UNL     1       1.632  -0.695  -1.170  0.00  0.00    +0.150 HD
ENDROOT
BRANCH   2   5
ATOM      5  C   UNL     1       0.691  -1.080  -3.562  0.00  0.00    +0.052 C 
ATOM      6  C   UNL     1       0.009  -1.208  -4.727  0.00  0.00    +0.023 C 
ATOM      7  C   UNL     1       0.742  -1.706  -5.901  0.00  0.00    +0.017 A 
ATOM      8  C   UNL     1       0.235  -1.560  -7.192  0.00  0.00    +0.011 A 
ATOM      9  C   UNL     1       0.958  -2.041  -8.264  0.00  0.00    +0.001 A 
ATOM     10  C   UNL     1       2.178  -2.666  -8.063  0.00  0.00    +0.004 A 
ATOM     11  C   UNL     1       2.690  -2.816  -6.787  0.00  0.00    +0.046 A 
ATOM     12  C   UNL     1       1.980  -2.340  -5.699  0.00  0.00    +0.128 A 
ATOM     13  O   UNL     1       2.455  -2.472  -4.436  0.00  0.00    -0.487 OA
ATOM     14  C   UNL     1       2.158  -1.419  -3.514  0.00  0.00    +0.269 C 
ENDBRANCH   2   5
BRANCH   1  16
ATOM     15  C   UNL     1      -0.019   1.526   0.010  0.00  0.00    +0.036 C 
ATOM     16  C   UNL     1       0.002  -0.004   0.002  0.00  0.00    +0.138 C 
BRANCH  16  17
ATOM     17  C   UNL     1       0.731  -0.503   1.223  0.00  0.00    +0.154 A 
ATOM     18  N   UNL     1       2.023  -0.484   1.417  0.00  0.00    -0.132 NA
ATOM     19  N   UNL     1       2.296  -0.982   2.573  0.00  0.00    -0.134 NA
ATOM     20  C   UNL     1       1.191  -1.337   3.166  0.00  0.00    +0.134 A 
ATOM     21  N   UNL     1       0.171  -1.050   2.325  0.00  0.00    -0.313 N 
ATOM     22  C   UNL     1      -1.251  -1.302   2.562  0.00  0.00    +0.125 C 
ATOM     23  C   UNL     1      -1.528  -1.268   4.068  0.00  0.00    +0.022 C 
ATOM     24  C   UNL     1      -1.339  -2.665   4.658  0.00  0.00    +0.002 C 
ATOM     25  C   UNL     1       0.098  -3.138   4.462  0.00  0.00    +0.008 C 
ATOM     26  C   UNL     1       1.048  -1.946   4.537  0.00  0.00    +0.076 C 
ENDBRANCH  16  17
ENDBRANCH   1  16
TORSDOF 3
