REMARK  Name = ZINC35745957
REMARK  7 active torsions:
REMARK  status: ('A' for Active; 'I' for Inactive)
REMARK    1  A    between atoms: C_1  and  C_2
REMARK    2  A    between atoms: C_3  and  C_30
REMARK    3  A    between atoms: C_4  and  C_13
REMARK    4  A    between atoms: C_17  and  N_19
REMARK    5  A    between atoms: C_20  and  C_22
REMARK    6  A    between atoms: C_23  and  C_24
REMARK    7  A    between atoms: N_32  and  C_33
REMARK                            x       y       z     vdW  Elec       q    Type
REMARK                         _______ _______ _______ _____ _____    ______ ____
ROOT
ATOM      1  C   UNL     1       0.100   1.728   0.253  0.00  0.00    +0.064 C 
ATOM      2  C   UNL     1       0.049   0.229   0.110  0.00  0.00    +0.025 C 
ATOM      3  C   UNL     1      -1.150  -0.412   0.187  0.00  0.00    +0.058 C 
ATOM      4  C   UNL     1      -1.193  -1.918   0.106  0.00  0.00    +0.143 C 
ATOM      5  N   UNL     1      -0.014  -2.383  -0.649  0.00  0.00    -0.300 N 
ATOM      6  C   UNL     1      -0.185  -3.477  -1.587  0.00  0.00    +0.109 C 
ATOM      7  C   UNL     1       0.994  -4.404  -1.757  0.00  0.00    +0.030 C 
ATOM      8  C   UNL     1       2.262  -3.647  -2.157  0.00  0.00    +0.078 C 
ATOM      9  S   UNL     1       2.697  -2.547  -0.771  0.00  0.00    -0.092 S 
ATOM     10  C   UNL     1       1.166  -1.718  -0.468  0.00  0.00    +0.135 C 
ATOM     11  N   UNL     1       1.175  -0.450  -0.096  0.00  0.00    -0.341 N 
ATOM     12  H   UNL     1       2.026  -0.003   0.034  0.00  0.00    +0.167 HD
ENDROOT
BRANCH   4  13
ATOM     13  C   UNL     1      -1.169  -2.500   1.496  0.00  0.00    -0.021 A 
ATOM     14  C   UNL     1       0.028  -2.600   2.183  0.00  0.00    +0.006 A 
ATOM     15  C   UNL     1       0.054  -3.134   3.458  0.00  0.00    +0.002 A 
ATOM     16  C   UNL     1      -1.115  -3.568   4.051  0.00  0.00    +0.023 A 
ATOM     17  C   UNL     1      -2.319  -3.468   3.365  0.00  0.00    +0.034 A 
ATOM     18  C   UNL     1      -2.342  -2.926   2.086  0.00  0.00    +0.029 A 
BRANCH  17  19
ATOM     19  N   UNL     1      -3.504  -3.906   3.962  0.00  0.00    -0.282 N 
ATOM     20  C   UNL     1      -3.672  -3.789   5.294  0.00  0.00    +0.241 C 
ATOM     21  O   UNL     1      -2.832  -3.218   5.965  0.00  0.00    -0.270 OA
ATOM     22  H   UNL     1      -4.207  -4.296   3.418  0.00  0.00    +0.155 HD
BRANCH  20  23
ATOM     23  C   UNL     1      -4.863  -4.348   5.935  0.00  0.00    +0.068 C 
ATOM     24  C   UNL     1      -5.031  -4.230   7.267  0.00  0.00    +0.013 C 
BRANCH  24  25
ATOM     25  C   UNL     1      -6.229  -4.793   7.911  0.00  0.00    -0.025 A 
ATOM     26  C   UNL     1      -7.193  -5.455   7.145  0.00  0.00    +0.008 A 
ATOM     27  C   UNL     1      -8.313  -5.979   7.755  0.00  0.00    +0.001 A 
ATOM     28  C   UNL     1      -8.484  -5.851   9.123  0.00  0.00    +0.000 A 
ATOM     29  C   UNL     1      -7.534  -5.197   9.888  0.00  0.00    +0.001 A 
ATOM     30  C   UNL     1      -6.406  -4.673   9.293  0.00  0.00    +0.008 A 
ENDBRANCH  24  25
ENDBRANCH  20  23
ENDBRANCH  17  19
ENDBRANCH   4  13
BRANCH   3  31
ATOM     31  C   UNL     1      -2.340   0.324   0.341  0.00  0.00    +0.248 C 
ATOM     32  O   UNL     1      -2.300   1.540   0.405  0.00  0.00    -0.270 OA
ATOM     33  N   UNL     1      -3.523  -0.316   0.416  0.00  0.00    -0.282 N 
ATOM     34  H   UNL     1      -3.550  -1.286   0.431  0.00  0.00    +0.155 HD
BRANCH  33  35
ATOM     35  C   UNL     1      -4.712   0.417   0.473  0.00  0.00    +0.034 A 
ATOM     36  C   UNL     1      -5.857  -0.064  -0.150  0.00  0.00    +0.023 A 
ATOM     37  C   UNL     1      -7.030   0.663  -0.092  0.00  0.00    +0.002 A 
ATOM     38  C   UNL     1      -7.065   1.869   0.585  0.00  0.00    +0.000 A 
ATOM     39  C   UNL     1      -5.928   2.350   1.206  0.00  0.00    +0.002 A 
ATOM     40  C   UNL     1      -4.753   1.625   1.158  0.00  0.00    +0.023 A 
ENDBRANCH  33  35
ENDBRANCH   3  31
TORSDOF 6
