REMARK  Name = ZINC03276829
REMARK  5 active torsions:
REMARK  status: ('A' for Active; 'I' for Inactive)
REMARK    1  A    between atoms: C_1  and  C_2
REMARK    2  A    between atoms: C_5  and  S_8
REMARK    3  A    between atoms: S_8  and  C_11
REMARK    4  A    between atoms: C_11  and  C_13
REMARK    5  A    between atoms: C_11  and  C_15
REMARK                            x       y       z     vdW  Elec       q    Type
REMARK                         _______ _______ _______ _____ _____    ______ ____
ROOT
ATOM      1  C   UNL     1      -0.018   1.468   0.010  0.00  0.00    +0.288 C 
ENDROOT
BRANCH   1   2
ATOM      2  C   UNL     1      -0.747   1.967  -1.211  0.00  0.00    +0.117 A 
ATOM      3  C   UNL     1      -0.022   2.515  -2.274  0.00  0.00    +0.154 A 
ATOM      4  N   UNL     1      -0.636   2.951  -3.350  0.00  0.00    -0.232 NA
ATOM      5  C   UNL     1      -1.970   2.881  -3.426  0.00  0.00    +0.091 A 
ATOM      6  C   UNL     1      -2.658   3.344  -4.561  0.00  0.00    +0.030 A 
ATOM      7  C   UNL     1      -4.015   3.260  -4.609  0.00  0.00    +0.002 A 
ATOM      8  C   UNL     1      -4.738   2.718  -3.547  0.00  0.00    +0.002 A 
ATOM      9  C   UNL     1      -4.106   2.260  -2.432  0.00  0.00    +0.030 A 
ATOM     10  C   UNL     1      -2.705   2.330  -2.346  0.00  0.00    +0.090 A 
ATOM     11  N   UNL     1      -2.056   1.888  -1.263  0.00  0.00    -0.244 NA
ATOM     12 CL   UNL     1       1.709   2.614  -2.173  0.00  0.00    -0.060 Cl
ENDBRANCH   1   2
BRANCH   1  13
ATOM     13  S   UNL     1      -0.867   2.053   1.503  0.00  0.00    +0.018 S 
ATOM     14  O   UNL     1      -0.740   3.463   1.617  0.00  0.00    -0.168 OA
ATOM     15  O   UNL     1      -2.138   1.428   1.619  0.00  0.00    -0.168 OA
BRANCH  13  20
ATOM     16  C   UNL     1       2.364  -0.161   6.093  0.00  0.00    +0.044 C 
ATOM     17  C   UNL     1       1.556   0.392   4.947  0.00  0.00    -0.050 A 
ATOM     18  C   UNL     1       1.865   1.632   4.419  0.00  0.00    +0.005 A 
ATOM     19  C   UNL     1       1.124   2.140   3.368  0.00  0.00    +0.027 A 
ATOM     20  C   UNL     1       0.076   1.406   2.843  0.00  0.00    +0.090 A 
ATOM     21  C   UNL     1      -0.235   0.169   3.374  0.00  0.00    +0.027 A 
ATOM     22  C   UNL     1       0.508  -0.340   4.423  0.00  0.00    +0.005 A 
ENDBRANCH  13  20
ENDBRANCH   1  13
BRANCH   1  23
ATOM     23  C   UNL     1       0.002  -0.004   0.002  0.00  0.00    +0.096 C 
ATOM     24  N   UNL     1       0.018  -1.140  -0.004  0.00  0.00    -0.194 NA
ENDBRANCH   1  23
TORSDOF 4
