REMARK  Name = ZINC60356546
REMARK  9 active torsions:
REMARK  status: ('A' for Active; 'I' for Inactive)
REMARK    1  A    between atoms: C_1  and  N_2
REMARK    2  A    between atoms: N_2  and  C_3
REMARK    3  A    between atoms: N_2  and  C_16
REMARK    4  A    between atoms: C_3  and  C_4
REMARK    5  A    between atoms: C_9  and  C_10
REMARK    6  A    between atoms: C_16  and  C_17
REMARK    7  A    between atoms: N_19  and  C_20
REMARK    8  A    between atoms: C_25  and  S_26
REMARK    9  A    between atoms: S_26  and  C_29
REMARK                            x       y       z     vdW  Elec       q    Type
REMARK                         _______ _______ _______ _____ _____    ______ ____
ROOT
ATOM      1  C   UNL     1       0.974  -0.395  -0.551  0.00  0.00    +0.019 C 
ENDROOT
BRANCH   1   2
ATOM      2  C   UNL     1       2.420  -0.125  -0.881  0.00  0.00    +0.201 C 
ATOM      3  O   UNL     1       3.103   0.530  -0.123  0.00  0.00    -0.278 OA
ATOM      4  N   UNL     1       2.953  -0.613  -2.019  0.00  0.00    -0.285 N 
ATOM      5  H   UNL     1       2.391  -1.081  -2.656  0.00  0.00    +0.155 HD
BRANCH   4   6
ATOM      6  C   UNL     1       4.316  -0.442  -2.282  0.00  0.00    +0.059 A 
ATOM      7  C   UNL     1       5.001   0.637  -1.736  0.00  0.00    +0.025 A 
ATOM      8  C   UNL     1       6.346   0.803  -1.998  0.00  0.00    +0.002 A 
ATOM      9  C   UNL     1       7.013  -0.103  -2.803  0.00  0.00    +0.002 A 
ATOM     10  C   UNL     1       6.335  -1.177  -3.348  0.00  0.00    +0.029 A 
ATOM     11  C   UNL     1       4.990  -1.353  -3.085  0.00  0.00    +0.116 A 
BRANCH  11  12
ATOM     12  S   UNL     1       4.128  -2.727  -3.774  0.00  0.00    +0.060 S 
ATOM     13  O   UNL     1       2.983  -2.162  -4.396  0.00  0.00    -0.164 OA
ATOM     14  O   UNL     1       5.103  -3.418  -4.542  0.00  0.00    -0.164 OA
BRANCH  12  15
ATOM     15  C   UNL     1       3.632  -3.729  -2.345  0.00  0.00    +0.485 C 
ATOM     16  F   UNL     1       4.772  -4.133  -1.641  0.00  0.00    -0.183 F 
ATOM     17  F   UNL     1       2.810  -2.971  -1.506  0.00  0.00    -0.183 F 
ENDBRANCH  12  15
ENDBRANCH  11  12
ENDBRANCH   4   6
ENDBRANCH   1   2
BRANCH   1  19
ATOM     18  C   UNL     1       0.742   1.698   0.598  0.00  0.00    -0.095 C 
ATOM     19  N   UNL     1       0.639   0.239   0.731  0.00  0.00    +0.386 N 
ATOM     20  H   UNL     1       1.280  -0.080   1.442  0.00  0.00    -0.081 HD
BRANCH  19  21
ATOM     21  C   UNL     1      -0.733  -0.123   1.112  0.00  0.00    -0.042 C 
BRANCH  21  22
ATOM     22  C   UNL     1      -1.028   0.408   2.491  0.00  0.00    -0.056 A 
ATOM     23  C   UNL     1      -1.853   1.504   2.649  0.00  0.00    +0.002 A 
ATOM     24  C   UNL     1      -2.124   1.992   3.914  0.00  0.00    +0.000 A 
ATOM     25  C   UNL     1      -1.572   1.386   5.028  0.00  0.00    +0.001 A 
ATOM     26  C   UNL     1      -0.747   0.289   4.882  0.00  0.00    +0.009 A 
ATOM     27  C   UNL     1      -0.474  -0.210   3.610  0.00  0.00    -0.017 A 
BRANCH  27  28
ATOM     28  C   UNL     1       0.409  -1.391   3.447  0.00  0.00    -0.018 A 
ATOM     29  C   UNL     1      -0.051  -2.519   2.771  0.00  0.00    +0.008 A 
ATOM     30  C   UNL     1       0.775  -3.616   2.622  0.00  0.00    +0.001 A 
ATOM     31  C   UNL     1       2.056  -3.596   3.143  0.00  0.00    +0.000 A 
ATOM     32  C   UNL     1       2.517  -2.479   3.817  0.00  0.00    +0.001 A 
ATOM     33  C   UNL     1       1.702  -1.375   3.966  0.00  0.00    +0.008 A 
ENDBRANCH  27  28
ENDBRANCH  21  22
ENDBRANCH  19  21
ENDBRANCH   1  19
TORSDOF 8
