REMARK  Name = ZINC51484984
REMARK  9 active torsions:
REMARK  status: ('A' for Active; 'I' for Inactive)
REMARK    1  A    between atoms: C_1  and  C_2
REMARK    2  A    between atoms: C_2  and  C_3
REMARK    3  A    between atoms: C_2  and  N_4
REMARK    4  A    between atoms: N_4  and  C_5
REMARK    5  A    between atoms: C_5  and  C_6
REMARK    6  A    between atoms: C_10  and  N_12
REMARK    7  A    between atoms: N_12  and  C_13
REMARK    8  A    between atoms: N_12  and  C_14
REMARK    9  A    between atoms: C_14  and  C_15
REMARK                            x       y       z     vdW  Elec       q    Type
REMARK                         _______ _______ _______ _____ _____    ______ ____
ROOT
ATOM      1  C   UNL     1      -2.773  -2.497  -0.106  0.00  0.00    +0.045 A 
ATOM      2  C   UNL     1      -3.367  -2.833   1.096  0.00  0.00    +0.060 A 
ATOM      3  C   UNL     1      -4.671  -3.313   1.099  0.00  0.00    +0.025 A 
ATOM      4  C   UNL     1      -5.331  -3.439  -0.110  0.00  0.00    +0.045 A 
ATOM      5  C   UNL     1      -4.671  -3.082  -1.282  0.00  0.00    +0.122 A 
ATOM      6  N   UNL     1      -3.430  -2.623  -1.243  0.00  0.00    -0.237 NA
ATOM      7 CL   UNL     1      -2.494  -2.657   2.586  0.00  0.00    -0.082 Cl
ENDROOT
BRANCH   5   8
ATOM      8  N   UNL     1      -5.323  -3.204  -2.504  0.00  0.00    -0.313 N 
ATOM      9  C   UNL     1      -6.732  -3.601  -2.546  0.00  0.00    +0.131 C 
BRANCH   8  10
ATOM     10  C   UNL     1      -4.600  -2.935  -3.750  0.00  0.00    +0.148 C 
BRANCH  10  11
ATOM     11  C   UNL     1      -3.966  -4.208  -4.247  0.00  0.00    +0.008 A 
ATOM     12  C   UNL     1      -4.474  -5.145  -5.085  0.00  0.00    +0.028 A 
ATOM     13  C   UNL     1      -3.702  -6.246  -5.407  0.00  0.00    +0.025 A 
ATOM     14  C   UNL     1      -2.460  -6.356  -4.875  0.00  0.00    +0.060 A 
ATOM     15  S   UNL     1      -2.346  -4.870  -3.892  0.00  0.00    -0.099 S 
ATOM     16 BR   UNL     1      -4.370  -7.578  -6.571  0.00  0.00    -0.050 Br
ENDBRANCH  10  11
ENDBRANCH   8  10
ENDBRANCH   5   8
BRANCH   1  17
ATOM     17  C   UNL     1      -1.359  -1.976  -0.116  0.00  0.00    -0.024 C 
BRANCH  17  18
ATOM     18  N   UNL     1      -1.376  -0.512   0.012  0.00  0.00    +0.384 N 
ATOM     19  H   UNL     1      -1.823  -0.256   0.880  0.00  0.00    -0.085 HD
ATOM     20  H   UNL     1      -1.888  -0.113  -0.760  0.00  0.00    -0.085 HD
BRANCH  18  22
ATOM     21  C   UNL     1      -0.019   1.526   0.010  0.00  0.00    -0.014 C 
ATOM     22  C   UNL     1       0.002  -0.004   0.002  0.00  0.00    -0.078 C 
ATOM     23  C   UNL     1       0.742  -0.511   1.242  0.00  0.00    -0.014 C 
ENDBRANCH  18  22
ENDBRANCH  17  18
ENDBRANCH   1  17
TORSDOF 6
