REMARK  Name = ZINC04328358
REMARK  3 active torsions:
REMARK  status: ('A' for Active; 'I' for Inactive)
REMARK    1  A    between atoms: C_4  and  C_7
REMARK    2  A    between atoms: C_9  and  C_25
REMARK    3  A    between atoms: C_12  and  C_18
REMARK                            x       y       z     vdW  Elec       q    Type
REMARK                         _______ _______ _______ _____ _____    ______ ____
ROOT
ATOM      1  C   UNL     1       2.490   1.048  -0.016  0.00  0.00    +0.113 C 
ATOM      2  C   UNL     1       3.059   1.040   1.389  0.00  0.00    +0.160 C 
ATOM      3  C   UNL     1       1.906   0.905   2.372  0.00  0.00    +0.094 C 
ATOM      4  C   UNL     1       2.552   3.091   2.469  0.00  0.00    +0.278 C 
ATOM      5  C   UNL     1       3.724   2.359   1.802  0.00  0.00    +0.181 C 
ATOM      6  C   UNL     1       4.266   3.138   0.643  0.00  0.00    -0.025 C 
ATOM      7  C   UNL     1       4.090   2.805  -0.626  0.00  0.00    -0.011 C 
ATOM      8  C   UNL     1       4.762   3.787  -1.550  0.00  0.00    +0.049 C 
ATOM      9  C   UNL     1       5.747   4.564  -0.647  0.00  0.00    +0.010 C 
ATOM     10  C   UNL     1       5.089   4.405   0.741  0.00  0.00    +0.034 C 
ATOM     11  O   UNL     1       1.903   3.971   1.544  0.00  0.00    -0.328 OA
ATOM     12  C   UNL     1       1.219   4.933   2.377  0.00  0.00    +0.193 C 
ATOM     13  C   UNL     1       1.964   4.895   3.727  0.00  0.00    +0.193 C 
ATOM     14  O   UNL     1       3.010   3.914   3.549  0.00  0.00    -0.328 OA
ATOM     15  N   UNL     1       1.230  -0.259   2.625  0.00  0.00    -0.347 N 
ATOM     16  H   UNL     1       0.503  -0.269   3.268  0.00  0.00    +0.143 HD
ATOM     17  H   UNL     1       1.477  -1.075   2.161  0.00  0.00    +0.143 HD
ATOM     18  N   UNL     1       1.642   2.041   2.947  0.00  0.00    -0.323 N 
ATOM     19  H   UNL     1       0.898   2.185   3.640  0.00  0.00    +0.166 HD
ATOM     20  N   UNL     1       3.369   1.653  -1.058  0.00  0.00    -0.401 NA
ATOM     21  H   UNL     1       2.783   1.923  -1.856  0.00  0.00    +0.124 HD
ATOM     22  H   UNL     1       4.049   0.944  -1.357  0.00  0.00    +0.124 HD
ENDROOT
BRANCH   1  26
ATOM     23  C   UNL     1      -1.238   3.132   0.030  0.00  0.00    +0.000 A 
ATOM     24  C   UNL     1      -1.164   1.837   0.508  0.00  0.00    +0.000 A 
ATOM     25  C   UNL     1       0.043   1.165   0.498  0.00  0.00    +0.005 A 
ATOM     26  C   UNL     1       1.175   1.783   0.000  0.00  0.00    -0.027 A 
ATOM     27  C   UNL     1       1.100   3.076  -0.482  0.00  0.00    +0.005 A 
ATOM     28  C   UNL     1      -0.106   3.751  -0.468  0.00  0.00    +0.000 A 
ENDBRANCH   1  26
BRANCH   5  29
ATOM     29  C   UNL     1       4.791   2.115   2.787  0.00  0.00    +0.083 C 
ATOM     30  N   UNL     1       5.614   1.927   3.547  0.00  0.00    -0.195 NA
ENDBRANCH   5  29
BRANCH   2  31
ATOM     31  C   UNL     1       4.011  -0.073   1.541  0.00  0.00    +0.081 C 
ATOM     32  N   UNL     1       4.745  -0.931   1.658  0.00  0.00    -0.195 NA
ENDBRANCH   2  31
TORSDOF 3
