REMARK  Name = ZINC12490193
REMARK  10 active torsions:
REMARK  status: ('A' for Active; 'I' for Inactive)
REMARK    1  A    between atoms: C_1  and  C_2
REMARK    2  A    between atoms: C_7  and  O_8
REMARK    3  A    between atoms: O_8  and  C_9
REMARK    4  A    between atoms: C_9  and  C_10
REMARK    5  A    between atoms: N_12  and  N_13
REMARK    6  A    between atoms: C_14  and  C_16
REMARK    7  A    between atoms: C_16  and  O_17
REMARK    8  A    between atoms: O_17  and  C_18
REMARK    9  A    between atoms: C_19  and  C_26
REMARK   10  A    between atoms: C_23  and  C_24
REMARK                            x       y       z     vdW  Elec       q    Type
REMARK                         _______ _______ _______ _____ _____    ______ ____
ROOT
ATOM      1  N   UNL     1       0.585  -0.664  -1.018  0.00  0.00    -0.231 N 
ATOM      2  C   UNL     1       0.002  -0.004   0.002  0.00  0.00    +0.267 C 
ATOM      3  O   UNL     1      -0.506  -0.622   0.913  0.00  0.00    -0.271 OA
ATOM      4  H   UNL     1       0.992  -0.170  -1.747  0.00  0.00    +0.173 HD
ENDROOT
BRANCH   1   7
ATOM      5  C   UNL     1       1.187  -2.726  -2.046  0.00  0.00    +0.267 C 
ATOM      6  O   UNL     1       1.695  -2.107  -2.957  0.00  0.00    -0.271 OA
ATOM      7  N   UNL     1       0.604  -2.065  -1.026  0.00  0.00    -0.231 N 
ATOM      8  H   UNL     1       0.198  -2.560  -0.297  0.00  0.00    +0.173 HD
BRANCH   5   9
ATOM      9  C   UNL     1       1.208  -4.233  -2.054  0.00  0.00    +0.326 C 
BRANCH   9  10
ATOM     10  O   UNL     1       1.876  -4.694  -3.230  0.00  0.00    -0.482 OA
BRANCH  10  17
ATOM     11  C   UNL     1       3.184  -5.625  -5.553  0.00  0.00    +0.047 C 
ATOM     12  C   UNL     1       2.614  -6.555  -4.513  0.00  0.00    -0.008 A 
ATOM     13  C   UNL     1       2.726  -7.923  -4.674  0.00  0.00    +0.022 A 
ATOM     14  C   UNL     1       2.197  -8.777  -3.723  0.00  0.00    +0.018 A 
ATOM     15  C   UNL     1       1.562  -8.264  -2.606  0.00  0.00    +0.019 A 
ATOM     16  C   UNL     1       1.453  -6.897  -2.439  0.00  0.00    +0.047 A 
ATOM     17  C   UNL     1       1.982  -6.039  -3.392  0.00  0.00    +0.124 A 
ATOM     18 BR   UNL     1       2.345 -10.649  -3.949  0.00  0.00    -0.050 Br
ENDBRANCH  10  17
ENDBRANCH   9  10
ENDBRANCH   5   9
ENDBRANCH   1   7
BRANCH   2  19
ATOM     19  C   UNL     1      -0.018   1.503   0.010  0.00  0.00    +0.326 C 
BRANCH  19  20
ATOM     20  O   UNL     1      -0.687   1.964   1.186  0.00  0.00    -0.482 OA
BRANCH  20  21
ATOM     21  C   UNL     1      -0.793   3.309   1.349  0.00  0.00    +0.127 A 
ATOM     22  C   UNL     1       0.196   4.006   2.027  0.00  0.00    -0.007 A 
ATOM     23  C   UNL     1       0.089   5.375   2.186  0.00  0.00    +0.022 A 
ATOM     24  C   UNL     1      -1.009   6.047   1.679  0.00  0.00    +0.019 A 
ATOM     25  C   UNL     1      -1.998   5.353   1.007  0.00  0.00    +0.022 A 
ATOM     26  C   UNL     1      -1.893   3.985   0.841  0.00  0.00    -0.007 A 
ATOM     27  C   UNL     1      -2.971   3.229   0.108  0.00  0.00    +0.047 C 
ATOM     28 BR   UNL     1      -1.156   7.919   1.905  0.00  0.00    -0.050 Br
ATOM     29  C   UNL     1       1.388   3.273   2.585  0.00  0.00    +0.047 C 
ENDBRANCH  20  21
ENDBRANCH  19  20
ENDBRANCH   2  19
TORSDOF 7
