REMARK  Name = ZINC03655321
REMARK  6 active torsions:
REMARK  status: ('A' for Active; 'I' for Inactive)
REMARK    1  A    between atoms: C_1  and  C_2
REMARK    2  A    between atoms: C_2  and  C_3
REMARK    3  A    between atoms: C_2  and  C_4
REMARK    4  A    between atoms: N_6  and  C_7
REMARK    5  A    between atoms: C_15  and  C_16
REMARK    6  A    between atoms: C_16  and  C_18
REMARK                            x       y       z     vdW  Elec       q    Type
REMARK                         _______ _______ _______ _____ _____    ______ ____
ROOT
ATOM      1  C   UNL     1      -2.371   1.147   0.090  0.00  0.00    +0.091 A 
ATOM      2  C   UNL     1      -3.722   1.634  -0.209  0.00  0.00    +0.042 A 
ATOM      3  C   UNL     1      -4.237   2.852  -0.655  0.00  0.00    +0.013 A 
ATOM      4  C   UNL     1      -5.582   2.990  -0.851  0.00  0.00    +0.001 A 
ATOM      5  C   UNL     1      -6.439   1.923  -0.614  0.00  0.00    +0.004 A 
ATOM      6  C   UNL     1      -5.949   0.710  -0.178  0.00  0.00    +0.047 A 
ATOM      7  C   UNL     1      -4.583   0.548   0.027  0.00  0.00    +0.138 A 
ATOM      8  O   UNL     1      -3.836  -0.496   0.439  0.00  0.00    -0.450 OA
ATOM      9  C   UNL     1      -2.526  -0.168   0.484  0.00  0.00    +0.197 A 
ENDROOT
BRANCH   1  12
ATOM     10  C   UNL     1      -1.164   3.176   0.296  0.00  0.00    +0.220 C 
ATOM     11  O   UNL     1      -2.200   3.757   0.544  0.00  0.00    -0.275 OA
ATOM     12  N   UNL     1      -1.183   1.861   0.001  0.00  0.00    -0.282 N 
ATOM     13  H   UNL     1      -0.368   1.413  -0.273  0.00  0.00    +0.155 HD
BRANCH  10  15
ATOM     14  C   UNL     1       0.802   3.849  -1.056  0.00  0.00    +0.017 C 
ATOM     15  C   UNL     1       0.144   3.923   0.323  0.00  0.00    +0.069 C 
ATOM     16  C   UNL     1      -0.112   5.386   0.688  0.00  0.00    +0.017 C 
ENDBRANCH  10  15
ENDBRANCH   1  12
BRANCH   9  17
ATOM     17  C   UNL     1      -1.476  -1.036   0.874  0.00  0.00    +0.230 C 
ATOM     18  O   UNL     1      -0.339  -0.612   0.971  0.00  0.00    -0.283 OA
BRANCH  17  19
ATOM     19  C   UNL     1      -1.762  -2.458   1.164  0.00  0.00    +0.026 A 
ATOM     20  C   UNL     1      -3.080  -2.917   1.188  0.00  0.00    +0.013 A 
ATOM     21  C   UNL     1      -3.340  -4.245   1.453  0.00  0.00    +0.021 A 
ATOM     22  C   UNL     1      -2.297  -5.121   1.706  0.00  0.00    +0.041 A 
ATOM     23  C   UNL     1      -0.988  -4.670   1.689  0.00  0.00    +0.021 A 
ATOM     24  C   UNL     1      -0.715  -3.345   1.420  0.00  0.00    +0.013 A 
ATOM     25 CL   UNL     1      -2.633  -6.790   2.046  0.00  0.00    -0.084 Cl
ENDBRANCH  17  19
ENDBRANCH   9  17
TORSDOF 4
