REMARK  Name = ZINC25529691
REMARK  12 active torsions:
REMARK  status: ('A' for Active; 'I' for Inactive)
REMARK    1  A    between atoms: C_1  and  C_2
REMARK    2  A    between atoms: C_5  and  C_30
REMARK    3  A    between atoms: C_6  and  O_8
REMARK    4  A    between atoms: O_8  and  C_9
REMARK    5  A    between atoms: C_9  and  C_10
REMARK    6  A    between atoms: N_12  and  N_13
REMARK    7  A    between atoms: C_14  and  C_16
REMARK    8  A    between atoms: C_17  and  C_29
REMARK    9  A    between atoms: C_19  and  C_28
REMARK   10  A    between atoms: C_21  and  C_25
REMARK   11  A    between atoms: C_30  and  C_31
REMARK   12  A    between atoms: C_30  and  C_32
REMARK                            x       y       z     vdW  Elec       q    Type
REMARK                         _______ _______ _______ _____ _____    ______ ____
ROOT
ATOM      1  N   UNL     1      -2.844  -0.464  -4.121  0.00  0.00    -0.230 N 
ATOM      2  C   UNL     1      -2.149  -0.500  -5.275  0.00  0.00    +0.267 C 
ATOM      3  O   UNL     1      -1.277  -1.333  -5.435  0.00  0.00    -0.268 OA
ATOM      4  H   UNL     1      -3.632   0.289  -3.976  0.00  0.00    +0.173 HD
ENDROOT
BRANCH   2   5
ATOM      5  C   UNL     1      -2.445   0.468  -6.341  0.00  0.00    +0.081 A 
ATOM      6  C   UNL     1      -1.855   0.592  -7.560  0.00  0.00    -0.020 A 
ATOM      7  C   UNL     1      -2.289   1.588  -8.448  0.00  0.00    +0.032 A 
ATOM      8  C   UNL     1      -1.827   1.891  -9.753  0.00  0.00    +0.050 A 
ATOM      9  N   UNL     1      -2.377   2.884 -10.417  0.00  0.00    -0.236 NA
ATOM     10  C   UNL     1      -3.353   3.619  -9.913  0.00  0.00    +0.134 A 
ATOM     11  N   UNL     1      -3.831   3.391  -8.705  0.00  0.00    -0.225 NA
ATOM     12  C   UNL     1      -3.339   2.417  -7.971  0.00  0.00    +0.113 A 
ATOM     13  S   UNL     1      -3.662   1.773  -6.351  0.00  0.00    -0.064 S 
ATOM     14  C   UNL     1      -0.716   1.084 -10.373  0.00  0.00    +0.066 C 
ATOM     15  C   UNL     1      -0.741  -0.342  -7.958  0.00  0.00    +0.046 C 
BRANCH  10  16
ATOM     16  C   UNL     1      -3.933   4.741 -10.736  0.00  0.00    +0.057 C 
ATOM     17  C   UNL     1      -4.915   5.690 -10.046  0.00  0.00    +0.012 C 
ATOM     18  C   UNL     1      -5.425   4.674 -11.070  0.00  0.00    +0.012 C 
ENDBRANCH  10  16
ENDBRANCH   2   5
BRANCH   1  21
ATOM     19  C   UNL     1      -3.256  -1.351  -1.950  0.00  0.00    +0.267 C 
ATOM     20  O   UNL     1      -4.125  -0.520  -1.791  0.00  0.00    -0.271 OA
ATOM     21  N   UNL     1      -2.562  -1.386  -3.104  0.00  0.00    -0.231 N 
ATOM     22  H   UNL     1      -1.773  -2.140  -3.249  0.00  0.00    +0.173 HD
BRANCH  19  23
ATOM     23  C   UNL     1      -2.952  -2.342  -0.857  0.00  0.00    +0.326 C 
BRANCH  23  24
ATOM     24  O   UNL     1      -3.815  -2.103   0.257  0.00  0.00    -0.482 OA
BRANCH  24  30
ATOM     25  C   UNL     1      -1.538  -5.847   2.406  0.00  0.00    +0.044 C 
ATOM     26  C   UNL     1      -2.572  -4.751   2.420  0.00  0.00    -0.047 A 
ATOM     27  C   UNL     1      -3.375  -4.573   3.532  0.00  0.00    +0.004 A 
ATOM     28  C   UNL     1      -4.325  -3.569   3.548  0.00  0.00    +0.008 A 
ATOM     29  C   UNL     1      -4.474  -2.740   2.452  0.00  0.00    -0.003 A 
ATOM     30  C   UNL     1      -3.670  -2.916   1.336  0.00  0.00    +0.125 A 
ATOM     31  C   UNL     1      -2.721  -3.929   1.320  0.00  0.00    +0.049 A 
BRANCH  29  32
ATOM     32  C   UNL     1      -5.510  -1.645   2.470  0.00  0.00    +0.016 C 
ATOM     33  C   UNL     1      -6.898  -2.259   2.660  0.00  0.00    +0.012 C 
ATOM     34  C   UNL     1      -5.215  -0.684   3.623  0.00  0.00    +0.012 C 
ENDBRANCH  29  32
ENDBRANCH  24  30
ENDBRANCH  23  24
ENDBRANCH  19  23
ENDBRANCH   1  21
TORSDOF 7
