REMARK  Name = ZINC05077215
REMARK  4 active torsions:
REMARK  status: ('A' for Active; 'I' for Inactive)
REMARK    1  A    between atoms: C_1  and  C_2
REMARK    2  A    between atoms: C_2  and  C_18
REMARK    3  A    between atoms: N_5  and  C_9
REMARK    4  A    between atoms: C_9  and  C_10
REMARK                            x       y       z     vdW  Elec       q    Type
REMARK                         _______ _______ _______ _____ _____    ______ ____
ROOT
ATOM      1  C   UNL     1       4.115   6.926  -3.714  0.00  0.00    +0.047 C 
ATOM      2  C   UNL     1       3.134   5.782  -3.446  0.00  0.00    +0.135 C 
ATOM      3  C   UNL     1       2.489   5.942  -2.083  0.00  0.00    +0.251 C 
ATOM      4  O   UNL     1       1.793   6.861  -1.706  0.00  0.00    -0.272 OA
ATOM      5  N   UNL     1       2.849   4.851  -1.379  0.00  0.00    -0.220 N 
ATOM      6  C   UNL     1       3.629   4.035  -2.098  0.00  0.00    +0.310 C 
ATOM      7  O   UNL     1       4.083   2.990  -1.676  0.00  0.00    -0.252 OA
ATOM      8  N   UNL     1       3.851   4.500  -3.341  0.00  0.00    -0.281 N 
ATOM      9  H   UNL     1       4.382   4.074  -4.032  0.00  0.00    +0.152 HD
ENDROOT
BRANCH   2  10
ATOM     10  C   UNL     1       2.085   5.721  -4.526  0.00  0.00    -0.012 A 
ATOM     11  C   UNL     1       0.886   6.389  -4.362  0.00  0.00    +0.010 A 
ATOM     12  C   UNL     1      -0.078   6.335  -5.350  0.00  0.00    +0.050 A 
ATOM     13  C   UNL     1       0.154   5.609  -6.509  0.00  0.00    +0.162 A 
ATOM     14  C   UNL     1       1.360   4.939  -6.674  0.00  0.00    +0.162 A 
ATOM     15  C   UNL     1       2.326   5.001  -5.681  0.00  0.00    +0.055 A 
ATOM     16  O   UNL     1       1.611   4.225  -7.806  0.00  0.00    -0.485 OA
ATOM     17  C   UNL     1       0.480   3.882  -8.614  0.00  0.00    +0.270 C 
ATOM     18  C   UNL     1      -0.393   5.134  -8.774  0.00  0.00    +0.270 C 
ATOM     19  O   UNL     1      -0.807   5.562  -7.471  0.00  0.00    -0.485 OA
ENDBRANCH   2  10
BRANCH   5  20
ATOM     20  C   UNL     1       2.442   4.593   0.004  0.00  0.00    +0.153 C 
BRANCH  20  21
ATOM     21  C   UNL     1       1.148   3.822   0.012  0.00  0.00    -0.028 A 
ATOM     22  C   UNL     1      -0.059   4.497   0.027  0.00  0.00    +0.007 A 
ATOM     23  C   UNL     1      -1.247   3.791   0.034  0.00  0.00    +0.022 A 
ATOM     24  C   UNL     1      -1.230   2.408   0.021  0.00  0.00    +0.059 A 
ATOM     25  C   UNL     1      -0.021   1.732   0.012  0.00  0.00    +0.060 A 
ATOM     26  C   UNL     1       1.167   2.440   0.004  0.00  0.00    +0.026 A 
ATOM     27 CL   UNL     1       0.002  -0.004   0.002  0.00  0.00    -0.082 Cl
ATOM     28 CL   UNL     1      -2.722   1.521   0.023  0.00  0.00    -0.082 Cl
ENDBRANCH  20  21
ENDBRANCH   5  20
TORSDOF 3
