REMARK  Name = ZINC01330461
REMARK  7 active torsions:
REMARK  status: ('A' for Active; 'I' for Inactive)
REMARK    1  A    between atoms: C_1  and  C_2
REMARK    2  A    between atoms: C_2  and  O_3
REMARK    3  A    between atoms: O_3  and  C_4
REMARK    4  A    between atoms: C_11  and  C_16
REMARK    5  A    between atoms: C_17  and  N_26
REMARK    6  A    between atoms: N_26  and  C_27
REMARK    7  A    between atoms: C_27  and  C_28
REMARK                            x       y       z     vdW  Elec       q    Type
REMARK                         _______ _______ _______ _____ _____    ______ ____
ROOT
ATOM      1  C   UNL     1      -2.163   1.498  -1.666  0.00  0.00    +0.117 A 
ATOM      2  C   UNL     1      -0.815   1.688  -1.431  0.00  0.00    +0.132 A 
ATOM      3  N   UNL     1      -0.353   2.507  -2.424  0.00  0.00    -0.286 N 
ATOM      4  C   UNL     1       0.889   3.018  -2.693  0.00  0.00    +0.114 A 
ATOM      5  C   UNL     1       1.085   3.819  -3.761  0.00  0.00    +0.058 A 
ATOM      6  C   UNL     1       0.013   4.141  -4.612  0.00  0.00    +0.025 A 
ATOM      7  C   UNL     1      -1.226   3.643  -4.358  0.00  0.00    +0.048 A 
ATOM      8  C   UNL     1      -1.420   2.805  -3.239  0.00  0.00    +0.140 A 
ATOM      9  N   UNL     1      -2.495   2.195  -2.768  0.00  0.00    -0.226 NA
ATOM     10 CL   UNL     1       2.667   4.456  -4.084  0.00  0.00    -0.082 Cl
ENDROOT
BRANCH   1  18
ATOM     11  C   UNL     1      -4.004  -2.017   3.030  0.00  0.00    +0.121 A 
ATOM     12  C   UNL     1      -5.310  -2.207   2.586  0.00  0.00    +0.047 A 
ATOM     13  C   UNL     1      -5.738  -1.639   1.406  0.00  0.00    +0.030 A 
ATOM     14  C   UNL     1      -4.865  -0.867   0.645  0.00  0.00    +0.049 A 
ATOM     15  C   UNL     1      -3.544  -0.671   1.089  0.00  0.00    +0.003 A 
ATOM     16  C   UNL     1      -3.122  -1.256   2.292  0.00  0.00    +0.055 A 
ATOM     17  C   UNL     1      -2.647   0.114   0.322  0.00  0.00    +0.025 A 
ATOM     18  C   UNL     1      -3.080   0.674  -0.848  0.00  0.00    +0.069 A 
ATOM     19  C   UNL     1      -4.465   0.457  -1.281  0.00  0.00    +0.259 A 
ATOM     20  O   UNL     1      -4.861   0.956  -2.319  0.00  0.00    -0.267 OA
ATOM     21  N   UNL     1      -5.296  -0.298  -0.538  0.00  0.00    -0.322 N 
ATOM     22  H   UNL     1      -6.209  -0.439  -0.834  0.00  0.00    +0.169 HD
BRANCH  11  23
ATOM     23  O   UNL     1      -3.596  -2.585   4.196  0.00  0.00    -0.492 OA
BRANCH  23  25
ATOM     24  C   UNL     1      -3.923  -3.915   6.187  0.00  0.00    +0.048 C 
ATOM     25  C   UNL     1      -4.560  -3.361   4.911  0.00  0.00    +0.225 C 
ENDBRANCH  23  25
ENDBRANCH  11  23
ENDBRANCH   1  18
BRANCH   2  26
ATOM     26  N   UNL     1      -0.068   1.145  -0.385  0.00  0.00    -0.324 N 
ATOM     27  H   UNL     1      -0.068   0.137  -0.427  0.00  0.00    +0.148 HD
BRANCH  26  28
ATOM     28  C   UNL     1       1.303   1.672  -0.389  0.00  0.00    +0.138 C 
BRANCH  28  29
ATOM     29  C   UNL     1       2.033   1.181   0.835  0.00  0.00    -0.027 A 
ATOM     30  C   UNL     1       2.002   1.924   2.001  0.00  0.00    +0.009 A 
ATOM     31  C   UNL     1       2.665   1.475   3.127  0.00  0.00    +0.050 A 
ATOM     32  C   UNL     1       3.373   0.284   3.087  0.00  0.00    +0.166 A 
ATOM     33  C   UNL     1       3.408  -0.461   1.911  0.00  0.00    +0.167 A 
ATOM     34  C   UNL     1       2.736  -0.008   0.788  0.00  0.00    +0.054 A 
ATOM     35  O   UNL     1       4.162  -1.579   2.126  0.00  0.00    -0.453 OA
ATOM     36  C   UNL     1       4.923  -1.307   3.317  0.00  0.00    +0.466 C 
ATOM     37  O   UNL     1       4.104  -0.366   4.038  0.00  0.00    -0.453 OA
ENDBRANCH  28  29
ENDBRANCH  26  28
ENDBRANCH   2  26
TORSDOF 6
