REMARK  Name = ZINC42266491
REMARK  7 active torsions:
REMARK  status: ('A' for Active; 'I' for Inactive)
REMARK    1  A    between atoms: C_1  and  C_2
REMARK    2  A    between atoms: C_2  and  C_3
REMARK    3  A    between atoms: C_2  and  N_4
REMARK    4  A    between atoms: N_4  and  C_5
REMARK    5  A    between atoms: N_4  and  S_9
REMARK    6  A    between atoms: C_5  and  C_6
REMARK    7  A    between atoms: S_9  and  C_12
REMARK                            x       y       z     vdW  Elec       q    Type
REMARK                         _______ _______ _______ _____ _____    ______ ____
ROOT
ATOM      1  S   UNL     1      -1.952  -1.359  -1.286  0.00  0.00    +0.062 S 
ATOM      2  O   UNL     1      -3.338  -1.172  -1.535  0.00  0.00    -0.153 OA
ATOM      3  O   UNL     1      -0.954  -1.009  -2.236  0.00  0.00    -0.153 OA
ENDROOT
BRANCH   1   4
ATOM      4  C   UNL     1      -1.731  -3.071  -0.931  0.00  0.00    +0.119 A 
ATOM      5  C   UNL     1      -2.825  -3.914  -0.882  0.00  0.00    +0.031 A 
ATOM      6  C   UNL     1      -2.653  -5.256  -0.605  0.00  0.00    +0.017 A 
ATOM      7  C   UNL     1      -1.384  -5.758  -0.375  0.00  0.00    +0.019 A 
ATOM      8  C   UNL     1      -0.288  -4.915  -0.424  0.00  0.00    +0.032 A 
ATOM      9  C   UNL     1      -0.461  -3.572  -0.708  0.00  0.00    +0.045 A 
ATOM     10 BR   UNL     1       1.037  -2.421  -0.782  0.00  0.00    -0.048 Br
ATOM     11 BR   UNL     1      -1.147  -7.595   0.006  0.00  0.00    -0.050 Br
ENDBRANCH   1   4
BRANCH   1  12
ATOM     12  N   UNL     1      -1.601  -0.523   0.099  0.00  0.00    -0.174 NA
BRANCH  12  14
ATOM     13  C   UNL     1      -0.424   1.611   0.308  0.00  0.00    +0.025 C 
ATOM     14  C   UNL     1      -0.281   0.088   0.272  0.00  0.00    +0.074 C 
ATOM     15  C   UNL     1       0.337  -0.397   1.585  0.00  0.00    +0.025 C 
ENDBRANCH  12  14
BRANCH  12  16
ATOM     16  C   UNL     1      -2.612  -0.393   1.152  0.00  0.00    +0.113 C 
BRANCH  16  17
ATOM     17  C   UNL     1      -3.363   0.928   0.979  0.00  0.00    +0.005 C 
ATOM     18  C   UNL     1      -3.232   1.967   2.095  0.00  0.00    +0.005 C 
ATOM     19  C   UNL     1      -4.543   1.198   1.914  0.00  0.00    +0.005 C 
ENDBRANCH  16  17
ENDBRANCH  12  16
ENDBRANCH   1  12
TORSDOF 5
