REMARK  Name = ZINC21323800
REMARK  8 active torsions:
REMARK  status: ('A' for Active; 'I' for Inactive)
REMARK    1  A    between atoms: C_1  and  C_2
REMARK    2  A    between atoms: C_8  and  C_10
REMARK    3  A    between atoms: C_10  and  S_11
REMARK    4  A    between atoms: S_11  and  C_12
REMARK    5  A    between atoms: N_16  and  N_17
REMARK    6  A    between atoms: N_18  and  N_19
REMARK    7  A    between atoms: C_20  and  C_21
REMARK    8  A    between atoms: C_20  and  C_22
REMARK                            x       y       z     vdW  Elec       q    Type
REMARK                         _______ _______ _______ _____ _____    ______ ____
ROOT
ATOM      1  C   UNL     1      -7.940   4.050   5.654  0.00  0.00    +0.210 A 
ATOM      2  N   UNL     1      -8.785   3.893   4.663  0.00  0.00    -0.119 NA
ATOM      3  N   UNL     1     -10.063   4.231   5.127  0.00  0.00    -0.109 NA
ATOM      4  C   UNL     1      -9.956   4.591   6.383  0.00  0.00    +0.254 A 
ATOM      5  N   UNL     1      -8.640   4.489   6.741  0.00  0.00    -0.211 N 
ATOM      6  N   UNL     1     -10.995   5.004   7.205  0.00  0.00    -0.204 N 
ATOM      7  H   UNL     1     -10.792   5.285   8.249  0.00  0.00    +0.178 HD
ENDROOT
BRANCH   5   8
ATOM      8  N   UNL     1      -8.118   4.775   7.970  0.00  0.00    -0.294 N 
ATOM      9  H   UNL     1      -8.776   5.124   8.780  0.00  0.00    +0.163 HD
ATOM     10  H   UNL     1      -7.039   4.658   8.151  0.00  0.00    +0.163 HD
ENDBRANCH   5   8
BRANCH   6  11
ATOM     11  N   UNL     1     -12.302   5.062   6.705  0.00  0.00    -0.184 NA
ATOM     12  C   UNL     1     -13.275   5.449   7.475  0.00  0.00    +0.063 C 
ATOM     13  C   UNL     1     -12.997   5.834   8.905  0.00  0.00    +0.068 C 
BRANCH  12  14
ATOM     14  C   UNL     1     -14.650   5.510   6.949  0.00  0.00    -0.002 A 
ATOM     15  C   UNL     1     -15.701   5.929   7.787  0.00  0.00    +0.010 A 
ATOM     16  C   UNL     1     -16.975   5.995   7.326  0.00  0.00    +0.009 A 
ATOM     17  C   UNL     1     -17.261   5.641   5.994  0.00  0.00    -0.018 A 
ATOM     18  C   UNL     1     -18.572   5.702   5.494  0.00  0.00    +0.008 A 
ATOM     19  C   UNL     1     -18.819   5.354   4.201  0.00  0.00    +0.001 A 
ATOM     20  C   UNL     1     -17.788   4.937   3.361  0.00  0.00    +0.001 A 
ATOM     21  C   UNL     1     -16.505   4.865   3.809  0.00  0.00    +0.008 A 
ATOM     22  C   UNL     1     -16.212   5.216   5.139  0.00  0.00    -0.017 A 
ATOM     23  C   UNL     1     -14.899   5.160   5.631  0.00  0.00    +0.018 A 
ENDBRANCH  12  14
ENDBRANCH   6  11
BRANCH   1  24
ATOM     24  S   UNL     1      -6.204   3.754   5.590  0.00  0.00    -0.075 S 
BRANCH  24  25
ATOM     25  C   UNL     1      -5.916   3.196   3.889  0.00  0.00    +0.173 C 
BRANCH  25  33
ATOM     26  C   UNL     1      -0.013   1.086   0.008  0.00  0.00    +0.066 C 
ATOM     27  C   UNL     1      -0.718   1.572   1.248  0.00  0.00    +0.047 A 
ATOM     28  C   UNL     1      -0.029   1.806   2.391  0.00  0.00    +0.071 A 
ATOM     29  S   UNL     1      -1.348   2.342   3.471  0.00  0.00    -0.060 S 
ATOM     30  C   UNL     1      -2.646   2.204   2.326  0.00  0.00    +0.165 A 
ATOM     31  N   UNL     1      -2.019   1.784   1.244  0.00  0.00    -0.230 NA
ATOM     32  N   UNL     1      -3.999   2.473   2.502  0.00  0.00    -0.264 N 
ATOM     33  C   UNL     1      -4.449   2.904   3.697  0.00  0.00    +0.229 C 
ATOM     34  O   UNL     1      -3.675   3.058   4.618  0.00  0.00    -0.275 OA
ATOM     35  H   UNL     1      -4.701   2.334   1.667  0.00  0.00    +0.157 HD
ENDBRANCH  25  33
ENDBRANCH  24  25
ENDBRANCH   1  24
TORSDOF 6
