REMARK  Name = ZINC12998258
REMARK  6 active torsions:
REMARK  status: ('A' for Active; 'I' for Inactive)
REMARK    1  A    between atoms: N_9  and  S_10
REMARK    2  A    between atoms: S_10  and  C_13
REMARK    3  A    between atoms: C_15  and  C_20
REMARK    4  A    between atoms: N_22  and  N_23
REMARK    5  A    between atoms: C_24  and  C_26
REMARK    6  A    between atoms: C_31  and  O_32
REMARK                            x       y       z     vdW  Elec       q    Type
REMARK                         _______ _______ _______ _____ _____    ______ ____
ROOT
ATOM      1  C   UNL     1       5.559  -0.085   1.624  0.00  0.00    +0.128 A 
ATOM      2  C   UNL     1       6.596  -0.806   2.177  0.00  0.00    +0.043 A 
ATOM      3  C   UNL     1       6.971  -0.580   3.503  0.00  0.00    +0.040 A 
ATOM      4  C   UNL     1       6.291   0.376   4.261  0.00  0.00    +0.014 A 
ATOM      5  C   UNL     1       5.256   1.090   3.697  0.00  0.00    +0.023 A 
ATOM      6  C   UNL     1       4.893   0.865   2.379  0.00  0.00    +0.068 A 
ATOM      7 CL   UNL     1       3.593   1.774   1.673  0.00  0.00    -0.082 Cl
ENDROOT
BRANCH   3   8
ATOM      8  C   UNL     1       8.081  -1.350   4.102  0.00  0.00    +0.260 C 
ATOM      9  O   UNL     1       8.670  -2.182   3.440  0.00  0.00    -0.269 OA
ATOM     10  N   UNL     1       8.440  -1.130   5.382  0.00  0.00    -0.230 N 
ATOM     11  H   UNL     1       7.969  -0.466   5.911  0.00  0.00    +0.173 HD
BRANCH  10  12
ATOM     12  N   UNL     1       9.492  -1.859   5.950  0.00  0.00    -0.230 N 
ATOM     13  C   UNL     1       9.851  -1.639   7.231  0.00  0.00    +0.264 C 
ATOM     14  O   UNL     1       9.261  -0.807   7.893  0.00  0.00    -0.269 OA
ATOM     15  H   UNL     1       9.963  -2.523   5.422  0.00  0.00    +0.173 HD
BRANCH  13  16
ATOM     16  C   UNL     1      10.960  -2.407   7.829  0.00  0.00    +0.079 A 
ATOM     17  C   UNL     1      11.644  -3.360   7.070  0.00  0.00    +0.017 A 
ATOM     18  C   UNL     1      12.678  -4.074   7.634  0.00  0.00    +0.001 A 
ATOM     19  C   UNL     1      13.044  -3.852   8.952  0.00  0.00    +0.004 A 
ATOM     20  C   UNL     1      12.376  -2.914   9.713  0.00  0.00    +0.046 A 
ATOM     21  C   UNL     1      11.336  -2.181   9.160  0.00  0.00    +0.129 A 
BRANCH  21  22
ATOM     22  O   UNL     1      10.683  -1.255   9.905  0.00  0.00    -0.506 OA
ATOM     23  H   UNL     1       9.921  -1.604  10.387  0.00  0.00    +0.292 HD
ENDBRANCH  21  22
ENDBRANCH  13  16
ENDBRANCH  10  12
ENDBRANCH   3   8
BRANCH   1  24
ATOM     24  S   UNL     1       5.086  -0.369  -0.050  0.00  0.00    +0.076 S 
ATOM     25  O   UNL     1       5.972  -1.356  -0.561  0.00  0.00    -0.150 OA
ATOM     26  O   UNL     1       4.941   0.910  -0.653  0.00  0.00    -0.150 OA
BRANCH  24  35
ATOM     27  C   UNL     1       2.392  -5.002   0.557  0.00  0.00    +0.000 A 
ATOM     28  C   UNL     1       3.750  -4.742   0.590  0.00  0.00    +0.002 A 
ATOM     29  C   UNL     1       4.215  -3.458   0.406  0.00  0.00    +0.025 A 
ATOM     30  C   UNL     1       3.320  -2.409   0.185  0.00  0.00    +0.054 A 
ATOM     31  C   UNL     1       1.961  -2.681   0.153  0.00  0.00    -0.023 A 
ATOM     32  C   UNL     1       1.499  -3.970   0.338  0.00  0.00    +0.005 A 
ATOM     33  C   UNL     1       1.218  -1.388  -0.101  0.00  0.00    +0.058 C 
ATOM     34  C   UNL     1       2.322  -0.324  -0.213  0.00  0.00    +0.136 C 
ATOM     35  N   UNL     1       3.579  -1.053  -0.023  0.00  0.00    -0.202 N 
ENDBRANCH  24  35
ENDBRANCH   1  24
TORSDOF 6
