REMARK  Name = ZINC42895270
REMARK  5 active torsions:
REMARK  status: ('A' for Active; 'I' for Inactive)
REMARK    1  A    between atoms: C_4  and  O_7
REMARK    2  A    between atoms: O_7  and  C_8
REMARK    3  A    between atoms: C_8  and  C_9
REMARK    4  A    between atoms: C_9  and  N_10
REMARK    5  A    between atoms: N_10  and  C_11
REMARK                            x       y       z     vdW  Elec       q    Type
REMARK                         _______ _______ _______ _____ _____    ______ ____
ROOT
ATOM      1  C   UNL     1       7.009  -2.793   1.207  0.00  0.00    +0.174 C 
ATOM      2  C   UNL     1       7.503  -2.934   2.629  0.00  0.00    +0.014 A 
ATOM      3  C   UNL     1       8.609  -2.101   2.743  0.00  0.00    +0.040 A 
ATOM      4  C   UNL     1       9.276  -2.030   3.963  0.00  0.00    +0.024 A 
ATOM      5  C   UNL     1       8.839  -2.778   5.037  0.00  0.00    +0.003 A 
ATOM      6  C   UNL     1       7.737  -3.603   4.912  0.00  0.00    +0.016 A 
ATOM      7  C   UNL     1       7.068  -3.680   3.702  0.00  0.00    +0.025 A 
ATOM      8 BR   UNL     1       5.561  -4.808   3.523  0.00  0.00    -0.050 Br
ATOM      9  N   UNL     1       8.852  -1.455   1.530  0.00  0.00    -0.284 N 
ATOM     10  C   UNL     1       7.966  -1.803   0.579  0.00  0.00    +0.239 C 
ATOM     11  O   UNL     1       7.937  -1.400  -0.565  0.00  0.00    -0.273 OA
ATOM     12  H   UNL     1       9.578  -0.827   1.389  0.00  0.00    +0.155 HD
ENDROOT
BRANCH   1  13
ATOM     13  N   UNL     1       5.637  -2.267   1.189  0.00  0.00    -0.299 NA
ATOM     14  H   UNL     1       5.631  -1.268   1.332  0.00  0.00    +0.123 HD
BRANCH  13  15
ATOM     15  C   UNL     1       4.954  -2.624  -0.061  0.00  0.00    +0.123 C 
BRANCH  15  16
ATOM     16  C   UNL     1       3.531  -2.060  -0.044  0.00  0.00    +0.244 C 
BRANCH  16  17
ATOM     17  O   UNL     1       3.586  -0.632  -0.037  0.00  0.00    -0.491 OA
BRANCH  17  21
ATOM     18  C   UNL     1      -0.017   1.378   0.010  0.00  0.00    +0.000 A 
ATOM     19  C   UNL     1       1.170   2.088   0.002  0.00  0.00    +0.004 A 
ATOM     20  C   UNL     1       2.377   1.417  -0.013  0.00  0.00    +0.045 A 
ATOM     21  C   UNL     1       2.399   0.030  -0.021  0.00  0.00    +0.121 A 
ATOM     22  C   UNL     1       1.207  -0.680  -0.013  0.00  0.00    +0.045 A 
ATOM     23  C   UNL     1       0.002  -0.004   0.002  0.00  0.00    +0.004 A 
ENDBRANCH  17  21
ENDBRANCH  16  17
ENDBRANCH  15  16
ENDBRANCH  13  15
ENDBRANCH   1  13
TORSDOF 5
