REMARK  Name = ZINC40783064
REMARK  10 active torsions:
REMARK  status: ('A' for Active; 'I' for Inactive)
REMARK    1  A    between atoms: C_1  and  C_2
REMARK    2  A    between atoms: C_2  and  C_3
REMARK    3  A    between atoms: C_2  and  C_4
REMARK    4  A    between atoms: C_4  and  O_5
REMARK    5  A    between atoms: O_5  and  C_6
REMARK    6  A    between atoms: C_6  and  C_8
REMARK    7  A    between atoms: C_11  and  N_14
REMARK    8  A    between atoms: C_16  and  N_29
REMARK    9  A    between atoms: C_17  and  O_21
REMARK   10  A    between atoms: O_21  and  C_22
REMARK                            x       y       z     vdW  Elec       q    Type
REMARK                         _______ _______ _______ _____ _____    ______ ____
ROOT
ATOM      1  N   UNL     1      -2.144   0.793   8.373  0.00  0.00    -0.298 N 
ATOM      2  C   UNL     1      -3.518   1.004   8.367  0.00  0.00    +0.151 A 
ATOM      3  C   UNL     1      -4.178   1.420   9.527  0.00  0.00    +0.128 A 
ATOM      4  C   UNL     1      -5.557   1.617   9.465  0.00  0.00    +0.246 A 
ATOM      5  N   UNL     1      -6.188   1.405   8.314  0.00  0.00    -0.199 NA
ATOM      6  C   UNL     1      -5.529   1.013   7.243  0.00  0.00    +0.227 A 
ATOM      7  N   UNL     1      -4.225   0.820   7.255  0.00  0.00    -0.218 NA
ATOM      8  H   UNL     1      -1.650   0.842   9.207  0.00  0.00    +0.154 HD
ENDROOT
BRANCH   1  12
ATOM      9  C   UNL     1      -0.154  -0.051   4.822  0.00  0.00    +0.059 A 
ATOM     10  C   UNL     1      -1.344   0.684   4.801  0.00  0.00    +0.017 A 
ATOM     11  C   UNL     1      -1.998   0.961   5.974  0.00  0.00    +0.024 A 
ATOM     12  C   UNL     1      -1.478   0.511   7.185  0.00  0.00    +0.032 A 
ATOM     13  C   UNL     1      -0.294  -0.221   7.209  0.00  0.00    +0.024 A 
ATOM     14  C   UNL     1       0.362  -0.506   6.039  0.00  0.00    +0.017 A 
BRANCH   9  15
ATOM     15  C   UNL     1       0.551  -0.349   3.562  0.00  0.00    +0.339 C 
ATOM     16  O   UNL     1       1.582  -0.992   3.582  0.00  0.00    -0.245 OA
BRANCH  15  17
ATOM     17  O   UNL     1       0.053   0.090   2.390  0.00  0.00    -0.461 OA
BRANCH  17  18
ATOM     18  C   UNL     1       0.789  -0.236   1.209  0.00  0.00    +0.235 C 
BRANCH  18  20
ATOM     19  C   UNL     1       0.089   1.871   0.064  0.00  0.00    +0.010 C 
ATOM     20  C   UNL     1       0.074   0.343  -0.013  0.00  0.00    +0.020 C 
ATOM     21  C   UNL     1       0.792  -0.110  -1.286  0.00  0.00    +0.010 C 
ENDBRANCH  18  20
ENDBRANCH  17  18
ENDBRANCH  15  17
ENDBRANCH   9  15
ENDBRANCH   1  12
BRANCH   3  22
ATOM     22  N   UNL     1      -3.472   1.632  10.721  0.00  0.00    -0.351 N 
ATOM     23  H   UNL     1      -2.513   1.490  10.749  0.00  0.00    +0.143 HD
ATOM     24  H   UNL     1      -3.943   1.920  11.518  0.00  0.00    +0.143 HD
ENDBRANCH   3  22
BRANCH   4  25
ATOM     25  O   UNL     1      -6.244   2.020  10.563  0.00  0.00    -0.436 OA
BRANCH  25  26
ATOM     26  C   UNL     1      -7.598   2.095  10.476  0.00  0.00    +0.130 A 
ATOM     27  C   UNL     1      -8.348   0.941  10.297  0.00  0.00    +0.047 A 
ATOM     28  C   UNL     1      -9.725   1.020  10.209  0.00  0.00    +0.019 A 
ATOM     29  C   UNL     1     -10.355   2.248  10.299  0.00  0.00    +0.018 A 
ATOM     30  C   UNL     1      -9.610   3.400  10.477  0.00  0.00    +0.019 A 
ATOM     31  C   UNL     1      -8.234   3.325  10.571  0.00  0.00    +0.047 A 
ATOM     32 BR   UNL     1     -12.240   2.352  10.179  0.00  0.00    -0.050 Br
ENDBRANCH  25  26
ENDBRANCH   4  25
TORSDOF 8
