REMARK  Name = ZINC03635108
REMARK  6 active torsions:
REMARK  status: ('A' for Active; 'I' for Inactive)
REMARK    1  A    between atoms: C_1  and  O_2
REMARK    2  A    between atoms: O_2  and  C_3
REMARK    3  A    between atoms: C_6  and  N_9
REMARK    4  A    between atoms: N_9  and  C_10
REMARK    5  A    between atoms: C_10  and  C_12
REMARK    6  A    between atoms: C_10  and  P_22
REMARK                            x       y       z     vdW  Elec       q    Type
REMARK                         _______ _______ _______ _____ _____    ______ ____
ROOT
ATOM      1  C   UNL     1       3.638   3.967   0.023  0.00  0.00    +0.186 C 
ENDROOT
BRANCH   1   2
ATOM      2  C   UNL     1       2.179   4.324  -0.092  0.00  0.00    +0.007 A 
ATOM      3  C   UNL     1       1.666   5.559  -0.219  0.00  0.00    +0.089 A 
ATOM      4  N   UNL     1       0.301   5.492  -0.296  0.00  0.00    -0.360 N 
ATOM      5  H   UNL     1      -0.289   6.255  -0.391  0.00  0.00    +0.165 HD
ATOM      6  C   UNL     1      -0.108   4.179  -0.217  0.00  0.00    +0.047 A 
ATOM      7  C   UNL     1       1.050   3.390  -0.086  0.00  0.00    +0.005 A 
ATOM      8  C   UNL     1       0.940   2.003   0.016  0.00  0.00    +0.010 A 
ATOM      9  C   UNL     1      -0.294   1.417  -0.012  0.00  0.00    +0.001 A 
ATOM     10  C   UNL     1      -1.439   2.189  -0.147  0.00  0.00    +0.002 A 
ATOM     11  C   UNL     1      -1.354   3.561  -0.243  0.00  0.00    +0.026 A 
ENDBRANCH   1   2
BRANCH   1  12
ATOM     12  P   UNL     1       4.364   3.836  -1.644  0.00  0.00    +0.196 P 
ATOM     13  S   UNL     1       4.202   5.458  -2.546  0.00  0.00    -0.006 S 
ATOM     14  O   UNL     1       3.632   2.652  -2.483  0.00  0.00    -0.329 OA
ATOM     15  C   UNL     1       4.329   2.051  -3.592  0.00  0.00    +0.170 C 
ATOM     16  C   UNL     1       5.711   1.591  -3.127  0.00  0.00    +0.057 C 
ATOM     17  C   UNL     1       6.556   2.784  -2.679  0.00  0.00    +0.170 C 
ATOM     18  O   UNL     1       5.928   3.405  -1.542  0.00  0.00    -0.329 OA
ENDBRANCH   1  12
BRANCH   1  19
ATOM     19  N   UNL     1       4.338   5.009   0.779  0.00  0.00    -0.329 N 
ATOM     20  H   UNL     1       4.152   5.944   0.602  0.00  0.00    +0.147 HD
BRANCH  19  24
ATOM     21  C   UNL     1       7.123   3.953   3.695  0.00  0.00    +0.120 A 
ATOM     22  C   UNL     1       6.746   5.279   3.545  0.00  0.00    +0.047 A 
ATOM     23  C   UNL     1       5.823   5.630   2.579  0.00  0.00    +0.026 A 
ATOM     24  C   UNL     1       5.273   4.654   1.758  0.00  0.00    +0.028 A 
ATOM     25  C   UNL     1       5.647   3.326   1.913  0.00  0.00    +0.026 A 
ATOM     26  C   UNL     1       6.575   2.978   2.875  0.00  0.00    +0.047 A 
BRANCH  21  28
ATOM     27  C   UNL     1       8.375   2.224   4.744  0.00  0.00    +0.277 C 
ATOM     28  O   UNL     1       8.033   3.608   4.646  0.00  0.00    -0.495 OA
ENDBRANCH  21  28
ENDBRANCH  19  24
ENDBRANCH   1  19
TORSDOF 5
