REMARK  Name = ZINC17963956
REMARK  7 active torsions:
REMARK  status: ('A' for Active; 'I' for Inactive)
REMARK    1  A    between atoms: C_1  and  C_2
REMARK    2  A    between atoms: C_7  and  C_8
REMARK    3  A    between atoms: C_8  and  C_10
REMARK    4  A    between atoms: C_8  and  N_11
REMARK    5  A    between atoms: C_12  and  C_14
REMARK    6  A    between atoms: C_14  and  N_15
REMARK    7  A    between atoms: C_16  and  C_18
REMARK                            x       y       z     vdW  Elec       q    Type
REMARK                         _______ _______ _______ _____ _____    ______ ____
ROOT
ATOM      1  N   UNL     1       2.493  -2.660   0.548  0.00  0.00    -0.307 N 
ATOM      2  C   UNL     1       2.562  -3.884   1.108  0.00  0.00    +0.231 C 
ATOM      3  O   UNL     1       1.579  -4.593   1.140  0.00  0.00    -0.274 OA
ATOM      4  H   UNL     1       3.279  -2.093   0.522  0.00  0.00    +0.149 HD
ENDROOT
BRANCH   1   5
ATOM      5  C   UNL     1       1.229  -2.186  -0.021  0.00  0.00    +0.100 C 
ATOM      6  C   UNL     1       1.096  -2.690  -1.459  0.00  0.00    +0.033 C 
BRANCH   5  13
ATOM      7  C   UNL     1      -1.293  -0.775   0.011  0.00  0.00    +0.044 C 
ATOM      8  C   UNL     1       0.002  -0.004   0.002  0.00  0.00    -0.046 A 
ATOM      9  C   UNL     1      -0.017   1.378   0.010  0.00  0.00    +0.004 A 
ATOM     10  C   UNL     1       1.171   2.086   0.002  0.00  0.00    +0.000 A 
ATOM     11  C   UNL     1       2.377   1.411  -0.015  0.00  0.00    +0.000 A 
ATOM     12  C   UNL     1       2.396   0.029  -0.022  0.00  0.00    +0.006 A 
ATOM     13  C   UNL     1       1.208  -0.679  -0.013  0.00  0.00    -0.025 A 
ENDBRANCH   5  13
ENDBRANCH   1   5
BRANCH   2  14
ATOM     14  C   UNL     1       3.863  -4.372   1.693  0.00  0.00    +0.200 C 
BRANCH  14  15
ATOM     15  N   UNL     1       3.679  -5.720   2.235  0.00  0.00    -0.300 N 
ATOM     16  C   UNL     1       4.714  -6.361   2.813  0.00  0.00    +0.280 C 
ATOM     17  O   UNL     1       5.802  -5.820   2.884  0.00  0.00    -0.267 OA
ATOM     18  H   UNL     1       2.812  -6.151   2.179  0.00  0.00    +0.150 HD
BRANCH  16  19
ATOM     19  C   UNL     1       4.530  -7.710   3.356  0.00  0.00    +0.191 A 
ATOM     20  C   UNL     1       5.491  -8.471   3.958  0.00  0.00    +0.056 A 
ATOM     21  C   UNL     1       4.880  -9.679   4.323  0.00  0.00    +0.058 A 
ATOM     22  C   UNL     1       3.589  -9.609   3.924  0.00  0.00    +0.171 A 
ATOM     23  O   UNL     1       3.382  -8.421   3.342  0.00  0.00    -0.444 OA
ATOM     24 BR   UNL     1       2.290 -10.964   4.152  0.00  0.00    -0.008 Br
ENDBRANCH  16  19
ENDBRANCH  14  15
ENDBRANCH   2  14
TORSDOF 5
