REMARK  Name = ZINC22109974
REMARK  7 active torsions:
REMARK  status: ('A' for Active; 'I' for Inactive)
REMARK    1  A    between atoms: C_4  and  C_7
REMARK    2  A    between atoms: N_11  and  N_12
REMARK    3  A    between atoms: N_12  and  C_13
REMARK    4  A    between atoms: C_13  and  C_14
REMARK    5  A    between atoms: C_19  and  O_20
REMARK    6  A    between atoms: O_20  and  C_21
REMARK    7  A    between atoms: C_21  and  C_22
REMARK                            x       y       z     vdW  Elec       q    Type
REMARK                         _______ _______ _______ _____ _____    ______ ____
ROOT
ATOM      1  C   UNL     1      -1.087   4.151  -4.716  0.00  0.00    +0.159 C 
ENDROOT
BRANCH   1   2
ATOM      2  C   UNL     1       0.365   3.779  -4.867  0.00  0.00    +0.013 A 
ATOM      3  C   UNL     1       1.232   4.629  -5.529  0.00  0.00    +0.009 A 
ATOM      4  C   UNL     1       2.563   4.285  -5.673  0.00  0.00    +0.001 A 
ATOM      5  C   UNL     1       3.033   3.094  -5.151  0.00  0.00    +0.004 A 
ATOM      6  C   UNL     1       2.172   2.243  -4.485  0.00  0.00    +0.046 A 
ATOM      7  C   UNL     1       0.835   2.586  -4.339  0.00  0.00    +0.126 A 
BRANCH   7   8
ATOM      8  O   UNL     1      -0.013   1.750  -3.684  0.00  0.00    -0.487 OA
BRANCH   8   9
ATOM      9  C   UNL     1       0.538   0.536  -3.171  0.00  0.00    +0.266 C 
BRANCH   9  10
ATOM     10  C   UNL     1      -0.543  -0.255  -2.482  0.00  0.00    +0.008 A 
ATOM     11  C   UNL     1      -1.833   0.238  -2.428  0.00  0.00    +0.010 A 
ATOM     12  C   UNL     1      -2.826  -0.487  -1.797  0.00  0.00    +0.020 A 
ATOM     13  C   UNL     1      -2.529  -1.709  -1.218  0.00  0.00    +0.042 A 
ATOM     14  C   UNL     1      -1.238  -2.203  -1.272  0.00  0.00    +0.040 A 
ATOM     15  C   UNL     1      -0.246  -1.479  -1.908  0.00  0.00    +0.049 A 
ATOM     16 CL   UNL     1       1.373  -2.102  -1.982  0.00  0.00    -0.083 Cl
ATOM     17 CL   UNL     1      -3.775  -2.620  -0.425  0.00  0.00    -0.083 Cl
ENDBRANCH   9  10
ENDBRANCH   8   9
ENDBRANCH   7   8
ENDBRANCH   1   2
BRANCH   1  18
ATOM     18  N   UNL     1      -1.315   4.699  -3.372  0.00  0.00    -0.276 N 
ATOM     19  H   UNL     1      -0.478   4.781  -2.663  0.00  0.00    +0.167 HD
BRANCH  18  24
ATOM     20  C   UNL     1      -3.255   5.355  -2.018  0.00  0.00    +0.180 A 
ATOM     21  N   UNL     1      -4.505   5.631  -2.307  0.00  0.00    -0.152 NA
ATOM     22  N   UNL     1      -4.697   5.519  -3.573  0.00  0.00    -0.253 N 
ATOM     23  C   UNL     1      -3.579   5.169  -4.170  0.00  0.00    +0.193 A 
ATOM     24  N   UNL     1      -2.624   5.048  -3.201  0.00  0.00    -0.222 N 
ATOM     25  S   UNL     1      -3.356   4.903  -5.897  0.00  0.00    -0.010 S 
ATOM     26  H   UNL     1      -5.694   5.710  -3.997  0.00  0.00    +0.191 HD
BRANCH  20  30
ATOM     27  C   UNL     1      -1.488   5.403   1.845  0.00  0.00    +0.000 A 
ATOM     28  C   UNL     1      -1.037   4.507   0.892  0.00  0.00    +0.001 A 
ATOM     29  C   UNL     1      -1.606   4.486  -0.364  0.00  0.00    +0.011 A 
ATOM     30  C   UNL     1      -2.640   5.371  -0.673  0.00  0.00    +0.021 A 
ATOM     31  C   UNL     1      -3.087   6.276   0.291  0.00  0.00    +0.011 A 
ATOM     32  C   UNL     1      -2.513   6.284   1.545  0.00  0.00    +0.001 A 
ENDBRANCH  20  30
ENDBRANCH  18  24
ENDBRANCH   1  18
TORSDOF 7
