REMARK  Name = ZINC67339673
REMARK  6 active torsions:
REMARK  status: ('A' for Active; 'I' for Inactive)
REMARK    1  A    between atoms: C_1  and  C_2
REMARK    2  A    between atoms: C_5  and  C_8
REMARK    3  A    between atoms: C_8  and  C_9
REMARK    4  A    between atoms: C_15  and  C_17
REMARK    5  A    between atoms: C_18  and  C_19
REMARK    6  A    between atoms: C_23  and  C_28
REMARK                            x       y       z     vdW  Elec       q    Type
REMARK                         _______ _______ _______ _____ _____    ______ ____
ROOT
ATOM      1  C   UNL     1       1.487  -4.759  -0.032  0.00  0.00    +0.015 A 
ATOM      2  C   UNL     1       2.309  -5.048   1.006  0.00  0.00    +0.124 A 
ATOM      3  N   UNL     1       3.528  -5.459   0.709  0.00  0.00    -0.233 NA
ATOM      4  C   UNL     1       3.919  -5.581  -0.541  0.00  0.00    +0.165 A 
ATOM      5  S   UNL     1       2.557  -5.118  -1.415  0.00  0.00    -0.057 S 
ATOM      6  N   UNL     1       5.153  -5.996  -1.023  0.00  0.00    -0.261 N 
ATOM      7  C   UNL     1       6.133  -6.337  -0.162  0.00  0.00    +0.243 C 
ATOM      8  O   UNL     1       5.935  -6.281   1.038  0.00  0.00    -0.270 OA
ATOM      9  H   UNL     1       5.311  -6.041  -1.979  0.00  0.00    +0.157 HD
ENDROOT
BRANCH   7  10
ATOM     10  C   UNL     1       7.393  -6.761  -0.654  0.00  0.00    +0.071 C 
ATOM     11  C   UNL     1       8.377  -7.103   0.211  0.00  0.00    +0.051 C 
BRANCH  11  12
ATOM     12  C   UNL     1       9.676  -7.540  -0.296  0.00  0.00    +0.129 A 
ATOM     13  C   UNL     1      10.735  -7.913   0.476  0.00  0.00    +0.057 A 
ATOM     14  C   UNL     1      11.807  -8.267  -0.452  0.00  0.00    +0.021 A 
ATOM     15  C   UNL     1      13.121  -8.718  -0.295  0.00  0.00    +0.015 A 
ATOM     16  C   UNL     1      13.888  -8.965  -1.399  0.00  0.00    -0.050 A 
ATOM     17  C   UNL     1      13.371  -8.770  -2.672  0.00  0.00    +0.007 A 
ATOM     18  C   UNL     1      12.078  -8.325  -2.848  0.00  0.00    +0.047 A 
ATOM     19  C   UNL     1      11.278  -8.068  -1.741  0.00  0.00    +0.136 A 
ATOM     20  O   UNL     1      10.008  -7.641  -1.600  0.00  0.00    -0.455 OA
ATOM     21  C   UNL     1      15.304  -9.452  -1.232  0.00  0.00    +0.044 C 
ENDBRANCH  11  12
ENDBRANCH   7  10
BRANCH   1  22
ATOM     22  C   UNL     1       0.059  -4.275  -0.021  0.00  0.00    +0.079 C 
BRANCH  22  27
ATOM     23  C   UNL     1      -0.018   1.503   0.010  0.00  0.00    +0.044 C 
ATOM     24  C   UNL     1       0.002  -0.004   0.002  0.00  0.00    -0.050 A 
ATOM     25  C   UNL     1       0.006  -0.689  -1.199  0.00  0.00    +0.003 A 
ATOM     26  C   UNL     1       0.025  -2.071  -1.206  0.00  0.00    +0.004 A 
ATOM     27  C   UNL     1       0.040  -2.768  -0.013  0.00  0.00    -0.042 A 
ATOM     28  C   UNL     1       0.037  -2.084   1.188  0.00  0.00    +0.004 A 
ATOM     29  C   UNL     1       0.023  -0.702   1.195  0.00  0.00    +0.003 A 
ENDBRANCH  22  27
ENDBRANCH   1  22
TORSDOF 4
