REMARK  Name = ZINC12134794
REMARK  9 active torsions:
REMARK  status: ('A' for Active; 'I' for Inactive)
REMARK    1  A    between atoms: C_4  and  C_7
REMARK    2  A    between atoms: C_7  and  C_9
REMARK    3  A    between atoms: C_7  and  N_14
REMARK    4  A    between atoms: C_15  and  C_17
REMARK    5  A    between atoms: C_17  and  S_18
REMARK    6  A    between atoms: S_18  and  C_19
REMARK    7  A    between atoms: C_22  and  C_30
REMARK    8  A    between atoms: N_23  and  C_24
REMARK    9  A    between atoms: C_30  and  N_61
REMARK                            x       y       z     vdW  Elec       q    Type
REMARK                         _______ _______ _______ _____ _____    ______ ____
ROOT
ATOM      1  S   UNL     1       2.040  -3.172  -4.856  0.00  0.00    -0.076 S 
ENDROOT
BRANCH   1   2
ATOM      2  C   UNL     1       1.129  -4.435  -5.681  0.00  0.00    +0.197 A 
ATOM      3  N   UNL     1       0.312  -5.299  -5.124  0.00  0.00    -0.122 NA
ATOM      4  N   UNL     1      -0.184  -6.073  -6.022  0.00  0.00    -0.135 NA
ATOM      5  C   UNL     1       0.289  -5.761  -7.195  0.00  0.00    +0.122 A 
ATOM      6  N   UNL     1       1.144  -4.705  -7.022  0.00  0.00    -0.276 N 
BRANCH   6   7
ATOM      7  C   UNL     1       1.881  -4.039  -8.012  0.00  0.00    +0.050 A 
ATOM      8  C   UNL     1       1.224  -3.329  -9.008  0.00  0.00    +0.026 A 
ATOM      9  C   UNL     1       1.953  -2.671  -9.980  0.00  0.00    +0.002 A 
ATOM     10  C   UNL     1       3.335  -2.728  -9.967  0.00  0.00    +0.000 A 
ATOM     11  C   UNL     1       3.991  -3.439  -8.979  0.00  0.00    +0.002 A 
ATOM     12  C   UNL     1       3.268  -4.095  -8.002  0.00  0.00    +0.026 A 
ENDBRANCH   6   7
BRANCH   5  13
ATOM     13  C   UNL     1      -0.043  -6.436  -8.501  0.00  0.00    -0.001 C 
BRANCH  13  18
ATOM     14  C   UNL     1       0.955  -8.451  -7.565  0.00  0.00    -0.078 C 
ATOM     15  C   UNL     1       1.535  -9.758  -8.162  0.00  0.00    -0.020 C 
ATOM     16  C   UNL     1       0.877  -9.822  -9.559  0.00  0.00    -0.020 C 
ATOM     17  C   UNL     1       0.468  -8.372  -9.878  0.00  0.00    -0.078 C 
ATOM     18  N   UNL     1       0.907  -7.565  -8.739  0.00  0.00    +0.384 N 
ATOM     19  H   UNL     1       1.842  -7.184  -8.924  0.00  0.00    -0.081 HD
ENDBRANCH  13  18
ENDBRANCH   5  13
ENDBRANCH   1   2
BRANCH   1  20
ATOM     20  C   UNL     1       1.498  -3.454  -3.153  0.00  0.00    +0.173 C 
BRANCH  20  22
ATOM     21  N   UNL     1       1.913  -2.481  -0.917  0.00  0.00    -0.303 N 
ATOM     22  C   UNL     1       2.168  -2.460  -2.240  0.00  0.00    +0.224 C 
ATOM     23  O   UNL     1       2.937  -1.641  -2.697  0.00  0.00    -0.275 OA
ATOM     24  H   UNL     1       1.298  -3.136  -0.552  0.00  0.00    +0.150 HD
BRANCH  21  25
ATOM     25  C   UNL     1       2.565  -1.514  -0.030  0.00  0.00    +0.140 C 
BRANCH  25  29
ATOM     26  C   UNL     1       2.754  -3.113   3.926  0.00  0.00    +0.000 A 
ATOM     27  C   UNL     1       3.826  -2.406   3.415  0.00  0.00    +0.000 A 
ATOM     28  C   UNL     1       3.764  -1.888   2.134  0.00  0.00    +0.006 A 
ATOM     29  C   UNL     1       2.631  -2.078   1.366  0.00  0.00    -0.022 A 
ATOM     30  C   UNL     1       1.558  -2.781   1.879  0.00  0.00    +0.006 A 
ATOM     31  C   UNL     1       1.621  -3.303   3.158  0.00  0.00    +0.000 A 
ENDBRANCH  25  29
BRANCH  25  32
ATOM     32  C   UNL     1       1.773  -0.232  -0.016  0.00  0.00    +0.014 A 
ATOM     33  C   UNL     1       2.220   1.048  -0.013  0.00  0.00    +0.013 A 
ATOM     34  C   UNL     1       1.300   2.079   0.001  0.00  0.00    +0.008 A 
ATOM     35  C   UNL     1      -0.022   1.781   0.012  0.00  0.00    +0.045 A 
ATOM     36  S   UNL     1       0.002  -0.004   0.002  0.00  0.00    -0.099 S 
ENDBRANCH  25  32
ENDBRANCH  21  25
ENDBRANCH  20  22
ENDBRANCH   1  20
TORSDOF 9
