REMARK  Name = ZINC00064976
REMARK  8 active torsions:
REMARK  status: ('A' for Active; 'I' for Inactive)
REMARK    1  A    between atoms: C_1  and  C_2
REMARK    2  A    between atoms: C_6  and  N_8
REMARK    3  A    between atoms: N_8  and  C_9
REMARK    4  A    between atoms: C_9  and  N_11
REMARK    5  A    between atoms: N_11  and  N_12
REMARK    6  A    between atoms: C_13  and  C_14
REMARK    7  A    between atoms: C_17  and  O_24
REMARK    8  A    between atoms: O_24  and  C_25
REMARK                            x       y       z     vdW  Elec       q    Type
REMARK                         _______ _______ _______ _____ _____    ______ ____
ROOT
ATOM      1  N   UNL     1      -0.163   7.955   0.233  0.00  0.00    -0.188 NA
ATOM      2  C   UNL     1      -0.186   9.248   0.354  0.00  0.00    +0.138 C 
ENDROOT
BRANCH   2   3
ATOM      3  C   UNL     1      -1.472   9.962   0.370  0.00  0.00    +0.002 A 
ATOM      4  C   UNL     1      -1.510  11.351   0.378  0.00  0.00    +0.013 A 
ATOM      5  C   UNL     1      -2.721  12.026   0.389  0.00  0.00    +0.047 A 
ATOM      6  C   UNL     1      -3.922  11.353   0.402  0.00  0.00    +0.128 A 
ATOM      7  C   UNL     1      -3.951   9.943   0.400  0.00  0.00    +0.024 A 
ATOM      8  C   UNL     1      -2.733   9.222   0.384  0.00  0.00    -0.006 A 
ATOM      9  C   UNL     1      -2.758   7.822   0.383  0.00  0.00    +0.009 A 
ATOM     10  C   UNL     1      -3.955   7.170   0.396  0.00  0.00    +0.001 A 
ATOM     11  C   UNL     1      -5.155   7.877   0.412  0.00  0.00    +0.001 A 
ATOM     12  C   UNL     1      -5.166   9.239   0.413  0.00  0.00    +0.012 A 
BRANCH   6  13
ATOM     13  O   UNL     1      -5.086  12.051   0.417  0.00  0.00    -0.495 OA
ATOM     14  C   UNL     1      -4.987  13.477   0.418  0.00  0.00    +0.277 C 
ENDBRANCH   6  13
ENDBRANCH   2   3
BRANCH   1  15
ATOM     15  N   UNL     1       1.062   7.275   0.218  0.00  0.00    -0.218 N 
ATOM     16  H   UNL     1       1.892   7.769   0.298  0.00  0.00    +0.176 HD
BRANCH  15  17
ATOM     17  C   UNL     1       1.087   5.933   0.092  0.00  0.00    +0.154 C 
ATOM     18  S   UNL     1       2.583   5.102   0.073  0.00  0.00    -0.017 S 
BRANCH  17  19
ATOM     19  N   UNL     1      -0.067   5.245  -0.019  0.00  0.00    -0.296 N 
ATOM     20  H   UNL     1      -0.910   5.720  -0.092  0.00  0.00    +0.154 HD
BRANCH  19  26
ATOM     21  C   UNL     1      -1.731   1.006  -1.870  0.00  0.00    +0.044 C 
ATOM     22  C   UNL     1      -0.846   1.766  -0.916  0.00  0.00    -0.049 A 
ATOM     23  C   UNL     1      -0.015   1.080  -0.049  0.00  0.00    +0.003 A 
ATOM     24  C   UNL     1       0.802   1.774   0.824  0.00  0.00    +0.002 A 
ATOM     25  C   UNL     1       0.788   3.155   0.836  0.00  0.00    +0.023 A 
ATOM     26  C   UNL     1      -0.050   3.847  -0.029  0.00  0.00    +0.033 A 
ATOM     27  C   UNL     1      -0.870   3.147  -0.905  0.00  0.00    +0.026 A 
ENDBRANCH  19  26
ENDBRANCH  17  19
ENDBRANCH  15  17
ENDBRANCH   1  15
TORSDOF 6
