REMARK  Name = ZINC64002161
REMARK  6 active torsions:
REMARK  status: ('A' for Active; 'I' for Inactive)
REMARK    1  A    between atoms: C_1  and  C_2
REMARK    2  A    between atoms: C_16  and  C_18
REMARK    3  A    between atoms: C_18  and  C_19
REMARK    4  A    between atoms: C_19  and  C_33
REMARK    5  A    between atoms: N_23  and  C_26
REMARK    6  A    between atoms: C_26  and  C_27
REMARK                            x       y       z     vdW  Elec       q    Type
REMARK                         _______ _______ _______ _____ _____    ______ ____
ROOT
ATOM      1  C   UNL     1       4.296  -4.011   6.221  0.00  0.00    +0.089 C 
ATOM      2  C   UNL     1       5.294  -5.075   6.722  0.00  0.00    +0.117 C 
ATOM      3  C   UNL     1       5.069  -5.095   8.218  0.00  0.00    +0.223 C 
ATOM      4  O   UNL     1       5.658  -5.803   9.007  0.00  0.00    -0.275 OA
ATOM      5  N   UNL     1       4.116  -4.209   8.533  0.00  0.00    -0.237 N 
ATOM      6  C   UNL     1       3.612  -3.543   7.487  0.00  0.00    +0.234 C 
ATOM      7  O   UNL     1       2.744  -2.698   7.544  0.00  0.00    -0.274 OA
ENDROOT
BRANCH   1   8
ATOM      8  C   UNL     1       5.022  -2.869   5.557  0.00  0.00    -0.032 A 
ATOM      9  C   UNL     1       4.719  -2.523   4.253  0.00  0.00    +0.005 A 
ATOM     10  C   UNL     1       5.385  -1.476   3.644  0.00  0.00    +0.000 A 
ATOM     11  C   UNL     1       6.353  -0.775   4.338  0.00  0.00    +0.000 A 
ATOM     12  C   UNL     1       6.654  -1.120   5.642  0.00  0.00    +0.000 A 
ATOM     13  C   UNL     1       5.986  -2.164   6.253  0.00  0.00    +0.005 A 
ENDBRANCH   1   8
BRANCH   1  14
ATOM     14  C   UNL     1       3.282  -4.635   5.260  0.00  0.00    +0.117 C 
BRANCH  14  29
ATOM     15  C   UNL     1      -0.018   1.503   0.010  0.00  0.00    +0.044 C 
ATOM     16  C   UNL     1       0.002  -0.004   0.002  0.00  0.00    -0.050 A 
ATOM     17  C   UNL     1       0.005  -0.680  -1.226  0.00  0.00    +0.005 A 
ATOM     18  C   UNL     1       0.020  -2.026  -1.316  0.00  0.00    +0.026 A 
ATOM     19  C   UNL     1       0.034  -2.827  -0.141  0.00  0.00    +0.043 A 
ATOM     20  N   UNL     1       0.070  -4.129   0.027  0.00  0.00    -0.377 N 
ATOM     21  C   UNL     1      -0.011  -4.415   1.457  0.00  0.00    +0.109 C 
ATOM     22  C   UNL     1       1.175  -5.251   1.944  0.00  0.00    +0.048 C 
ATOM     23  C   UNL     1       1.159  -5.283   3.477  0.00  0.00    +0.110 C 
ATOM     24  N   UNL     1       1.259  -3.926   4.026  0.00  0.00    -0.297 N 
ATOM     25  C   UNL     1       0.246  -2.921   3.637  0.00  0.00    +0.141 C 
ATOM     26  C   UNL     1       0.063  -3.061   2.142  0.00  0.00    -0.021 C 
ATOM     27  C   UNL     1       0.038  -2.137   1.172  0.00  0.00    +0.001 A 
ATOM     28  C   UNL     1       0.022  -0.668   1.179  0.00  0.00    +0.013 A 
ATOM     29  C   UNL     1       2.257  -3.601   4.871  0.00  0.00    +0.217 C 
ATOM     30  O   UNL     1       2.330  -2.476   5.319  0.00  0.00    -0.276 OA
ATOM     31  H   UNL     1       0.138  -4.790  -0.680  0.00  0.00    +0.160 HD
ENDBRANCH  14  29
ENDBRANCH   1  14
BRANCH   5  32
ATOM     32  C   UNL     1       3.663  -3.986   9.908  0.00  0.00    +0.153 C 
BRANCH  32  33
ATOM     33  C   UNL     1       4.497  -2.904  10.543  0.00  0.00    -0.012 A 
ATOM     34  C   UNL     1       5.663  -3.223  11.222  0.00  0.00    +0.008 A 
ATOM     35  C   UNL     1       6.398  -2.195  11.791  0.00  0.00    +0.020 A 
ATOM     36  C   UNL     1       5.948  -0.894  11.662  0.00  0.00    +0.111 A 
ATOM     37  N   UNL     1       4.835  -0.627  11.009  0.00  0.00    -0.263 NA
ATOM     38  C   UNL     1       4.113  -1.579  10.450  0.00  0.00    +0.116 A 
ENDBRANCH  32  33
ENDBRANCH   5  32
TORSDOF 5
