REMARK  Name = ZINC38128262
REMARK  5 active torsions:
REMARK  status: ('A' for Active; 'I' for Inactive)
REMARK    1  A    between atoms: C_4  and  N_19
REMARK    2  A    between atoms: C_5  and  C_7
REMARK    3  A    between atoms: C_7  and  C_8
REMARK    4  A    between atoms: C_8  and  C_10
REMARK    5  A    between atoms: C_8  and  N_18
REMARK                            x       y       z     vdW  Elec       q    Type
REMARK                         _______ _______ _______ _____ _____    ______ ____
ROOT
ATOM      1  C   UNL     1       1.559  -2.689   1.408  0.00  0.00    -0.040 C 
ENDROOT
BRANCH   1   2
ATOM      2  C   UNL     1       1.851  -4.167   1.398  0.00  0.00    -0.059 A 
ATOM      3  C   UNL     1       0.837  -5.069   1.134  0.00  0.00    +0.022 A 
ATOM      4  C   UNL     1       1.103  -6.427   1.125  0.00  0.00    +0.043 A 
ATOM      5  C   UNL     1       2.385  -6.882   1.379  0.00  0.00    +0.040 A 
ATOM      6  C   UNL     1       3.399  -5.979   1.642  0.00  0.00    +0.043 A 
ATOM      7  C   UNL     1       3.132  -4.621   1.646  0.00  0.00    +0.022 A 
ATOM      8 CL   UNL     1       5.008  -6.548   1.961  0.00  0.00    -0.083 Cl
ATOM      9 CL   UNL     1      -0.171  -7.559   0.795  0.00  0.00    -0.083 Cl
ENDBRANCH   1   2
BRANCH   1  10
ATOM     10  N   UNL     1       0.264  -2.450   2.058  0.00  0.00    +0.383 N 
ATOM     11  H   UNL     1       0.294  -2.793   3.006  0.00  0.00    -0.089 HD
ATOM     12  H   UNL     1       0.069  -1.460   2.065  0.00  0.00    -0.089 HD
ATOM     13  H   UNL     1      -0.462  -2.932   1.548  0.00  0.00    -0.089 HD
ENDBRANCH   1  10
BRANCH   1  14
ATOM     14  C   UNL     1       1.513  -2.168  -0.029  0.00  0.00    +0.026 C 
BRANCH  14  19
ATOM     15  C   UNL     1      -0.061   1.260  -0.197  0.00  0.00    +0.000 A 
ATOM     16  C   UNL     1       1.036   2.077   0.006  0.00  0.00    +0.002 A 
ATOM     17  C   UNL     1       2.286   1.520   0.198  0.00  0.00    +0.033 A 
ATOM     18  C   UNL     1       2.441   0.147   0.186  0.00  0.00    +0.129 A 
ATOM     19  C   UNL     1       1.345  -0.670  -0.016  0.00  0.00    -0.018 A 
ATOM     20  C   UNL     1       0.094  -0.114  -0.209  0.00  0.00    +0.006 A 
BRANCH  18  21
ATOM     21  N   UNL     1       3.780  -0.449   0.391  0.00  0.00    +0.057 N 
ATOM     22  O   UNL     1       4.754   0.264   0.463  0.00  0.00    -0.126 OA
ATOM     23  O   UNL     1       3.901  -1.648   0.485  0.00  0.00    -0.126 OA
ENDBRANCH  18  21
ENDBRANCH  14  19
ENDBRANCH   1  14
TORSDOF 5
