REMARK  Name = ZINC39565307
REMARK  3 active torsions:
REMARK  status: ('A' for Active; 'I' for Inactive)
REMARK    1  A    between atoms: C_6  and  S_7
REMARK    2  A    between atoms: S_7  and  N_10
REMARK    3  A    between atoms: N_10  and  C_11
REMARK                            x       y       z     vdW  Elec       q    Type
REMARK                         _______ _______ _______ _____ _____    ______ ____
ROOT
ATOM      1  N   UNL     1      -2.019  -1.029  -1.560  0.00  0.00    -0.220 N 
ATOM      2  H   UNL     1      -2.801  -0.539  -1.857  0.00  0.00    +0.173 HD
ENDROOT
BRANCH   1   3
ATOM      3  C   UNL     1      -1.345  -1.814  -2.426  0.00  0.00    +0.030 C 
ATOM      4  C   UNL     1      -0.300  -2.602  -1.994  0.00  0.00    +0.022 C 
ATOM      5  C   UNL     1       0.411  -3.416  -2.849  0.00  0.00    +0.031 C 
ATOM      6  C   UNL     1       0.133  -3.510  -4.220  0.00  0.00    +0.093 C 
ATOM      7  C   UNL     1      -0.916  -2.752  -4.788  0.00  0.00    +0.024 C 
ATOM      8  C   UNL     1      -0.930  -3.060  -6.109  0.00  0.00    +0.157 C 
ATOM      9  N   UNL     1       0.045  -3.943  -6.323  0.00  0.00    -0.137 NA
ATOM     10  N   UNL     1       0.668  -4.211  -5.230  0.00  0.00    -0.148 NA
ATOM     11 CL   UNL     1      -2.017  -2.420  -7.301  0.00  0.00    -0.060 Cl
ATOM     12  C   UNL     1      -1.726  -1.851  -3.893  0.00  0.00    +0.092 C 
ENDBRANCH   1   3
BRANCH   1  13
ATOM     13  S   UNL     1      -1.510  -0.902   0.011  0.00  0.00    +0.072 S 
ATOM     14  O   UNL     1      -1.298  -2.228   0.477  0.00  0.00    -0.150 OA
ATOM     15  O   UNL     1      -2.400  -0.001   0.655  0.00  0.00    -0.150 OA
BRANCH  13  21
ATOM     16  C   UNL     1       0.155   1.258  -0.091  0.00  0.00    +0.030 A 
ATOM     17  C   UNL     1       1.393   1.873  -0.111  0.00  0.00    +0.022 A 
ATOM     18  C   UNL     1       2.545   1.110  -0.053  0.00  0.00    +0.041 A 
ATOM     19  C   UNL     1       2.458  -0.269   0.024  0.00  0.00    +0.022 A 
ATOM     20  C   UNL     1       1.220  -0.882   0.043  0.00  0.00    +0.030 A 
ATOM     21  C   UNL     1       0.069  -0.119  -0.014  0.00  0.00    +0.109 A 
ATOM     22 CL   UNL     1       4.100   1.882  -0.078  0.00  0.00    -0.084 Cl
ENDBRANCH  13  21
ENDBRANCH   1  13
TORSDOF 3
