REMARK  Name = ZINC06662167
REMARK  8 active torsions:
REMARK  status: ('A' for Active; 'I' for Inactive)
REMARK    1  A    between atoms: C_1  and  C_2
REMARK    2  A    between atoms: C_2  and  S_3
REMARK    3  A    between atoms: S_3  and  C_4
REMARK    4  A    between atoms: C_11  and  S_13
REMARK    5  A    between atoms: S_13  and  C_14
REMARK    6  A    between atoms: C_14  and  C_15
REMARK    7  A    between atoms: C_19  and  C_22
REMARK    8  A    between atoms: C_19  and  C_23
REMARK                            x       y       z     vdW  Elec       q    Type
REMARK                         _______ _______ _______ _____ _____    ______ ____
ROOT
ATOM      1  C   UNL     1      -0.016   1.324   0.009  0.00  0.00    +0.190 A 
ATOM      2  N   UNL     1       1.073   2.062   0.003  0.00  0.00    -0.221 NA
ATOM      3  C   UNL     1       2.308   1.498  -0.012  0.00  0.00    +0.089 A 
ATOM      4  C   UNL     1       3.564   2.151  -0.019  0.00  0.00    +0.014 A 
ATOM      5  C   UNL     1       4.677   1.377  -0.033  0.00  0.00    +0.001 A 
ATOM      6  S   UNL     1       4.069  -0.286  -0.037  0.00  0.00    -0.089 S 
ATOM      7  C   UNL     1       2.335   0.090  -0.019  0.00  0.00    +0.070 A 
ATOM      8  C   UNL     1       1.167  -0.654  -0.013  0.00  0.00    +0.116 A 
ATOM      9  N   UNL     1       0.002  -0.004   0.002  0.00  0.00    -0.214 NA
ATOM     10  C   UNL     1       6.093   1.862  -0.043  0.00  0.00    +0.077 C 
ATOM     11  C   UNL     1       6.069   3.360  -0.392  0.00  0.00    +0.069 C 
ATOM     12  O   UNL     1       5.045   3.995   0.379  0.00  0.00    -0.369 OA
ATOM     13  C   UNL     1       3.708   3.671  -0.011  0.00  0.00    +0.198 C 
ATOM     14  C   UNL     1       5.772   3.535  -1.883  0.00  0.00    +0.041 C 
ATOM     15  C   UNL     1       7.424   3.989  -0.061  0.00  0.00    +0.041 C 
ENDROOT
BRANCH   1  16
ATOM     16  S   UNL     1      -1.578   2.138   0.021  0.00  0.00    -0.086 S 
BRANCH  16  18
ATOM     17  C   UNL     1      -4.136   1.178   0.028  0.00  0.00    +0.016 C 
ATOM     18  C   UNL     1      -2.681   0.703   0.018  0.00  0.00    +0.074 C 
ENDBRANCH  16  18
ENDBRANCH   1  16
BRANCH   8  19
ATOM     19  S   UNL     1       1.218  -2.415  -0.022  0.00  0.00    -0.095 S 
BRANCH  19  20
ATOM     20  C   UNL     1      -0.555  -2.781  -0.007  0.00  0.00    +0.171 C 
BRANCH  20  21
ATOM     21  C   UNL     1      -0.760  -4.274  -0.012  0.00  0.00    +0.221 C 
ATOM     22  O   UNL     1       0.198  -5.018  -0.025  0.00  0.00    -0.275 OA
ATOM     23  N   UNL     1      -2.008  -4.783  -0.003  0.00  0.00    -0.329 N 
ATOM     24  H   UNL     1      -2.774  -4.188   0.007  0.00  0.00    +0.145 HD
ATOM     25  H   UNL     1      -2.140  -5.744  -0.006  0.00  0.00    +0.145 HD
ENDBRANCH  20  21
ENDBRANCH  19  20
ENDBRANCH   8  19
TORSDOF 5
