REMARK  Name = ZINC22391118
REMARK  10 active torsions:
REMARK  status: ('A' for Active; 'I' for Inactive)
REMARK    1  A    between atoms: C_1  and  C_2
REMARK    2  A    between atoms: C_4  and  C_26
REMARK    3  A    between atoms: C_5  and  N_9
REMARK    4  A    between atoms: C_6  and  C_8
REMARK    5  A    between atoms: N_9  and  C_10
REMARK    6  A    between atoms: N_9  and  S_22
REMARK    7  A    between atoms: C_10  and  C_11
REMARK    8  A    between atoms: N_13  and  C_14
REMARK    9  A    between atoms: C_19  and  C_20
REMARK   10  A    between atoms: S_22  and  C_25
REMARK                            x       y       z     vdW  Elec       q    Type
REMARK                         _______ _______ _______ _____ _____    ______ ____
ROOT
ATOM      1  N   UNL     1      -5.000   0.848  -0.163  0.00  0.00    -0.198 N 
ENDROOT
BRANCH   1   6
ATOM      2  C   UNL     1      -6.942  -2.571  -4.250  0.00  0.00    +0.044 C 
ATOM      3  C   UNL     1      -6.426  -1.663  -3.164  0.00  0.00    -0.050 A 
ATOM      4  C   UNL     1      -5.609  -2.170  -2.170  0.00  0.00    +0.008 A 
ATOM      5  C   UNL     1      -5.134  -1.340  -1.174  0.00  0.00    -0.027 A 
ATOM      6  C   UNL     1      -5.478   0.005  -1.170  0.00  0.00    +0.057 A 
ATOM      7  C   UNL     1      -6.304   0.511  -2.166  0.00  0.00    -0.027 A 
ATOM      8  C   UNL     1      -6.771  -0.324  -3.163  0.00  0.00    +0.008 A 
ATOM      9  C   UNL     1      -6.685   1.969  -2.163  0.00  0.00    +0.046 C 
ATOM     10  C   UNL     1      -4.244  -1.894  -0.091  0.00  0.00    +0.046 C 
ENDBRANCH   1   6
BRANCH   1  11
ATOM     11  S   UNL     1      -5.503   0.637   1.400  0.00  0.00    +0.043 S 
ATOM     12  O   UNL     1      -6.003  -0.692   1.445  0.00  0.00    -0.155 OA
ATOM     13  O   UNL     1      -4.387   1.018   2.194  0.00  0.00    -0.155 OA
ATOM     14  C   UNL     1      -6.859   1.823   1.618  0.00  0.00    +0.218 C 
ENDBRANCH   1  11
BRANCH   1  15
ATOM     15  C   UNL     1      -4.054   1.917  -0.491  0.00  0.00    +0.227 C 
BRANCH  15  16
ATOM     16  C   UNL     1      -2.756   1.313  -0.961  0.00  0.00    +0.236 C 
ATOM     17  O   UNL     1      -2.662   0.112  -1.101  0.00  0.00    -0.274 OA
ATOM     18  N   UNL     1      -1.699   2.107  -1.225  0.00  0.00    -0.284 N 
ATOM     19  H   UNL     1      -1.762   3.188  -1.031  0.00  0.00    +0.155 HD
BRANCH  18  20
ATOM     20  C   UNL     1      -0.523   1.556  -1.746  0.00  0.00    +0.036 A 
ATOM     21  C   UNL     1      -0.153   0.260  -1.410  0.00  0.00    +0.024 A 
ATOM     22  C   UNL     1       1.005  -0.283  -1.929  0.00  0.00    +0.016 A 
ATOM     23  C   UNL     1       1.797   0.463  -2.784  0.00  0.00    +0.014 A 
ATOM     24  C   UNL     1       1.432   1.754  -3.120  0.00  0.00    +0.019 A 
ATOM     25  C   UNL     1       0.274   2.302  -2.603  0.00  0.00    -0.028 A 
ATOM     26  C   UNL     1      -0.123   3.709  -2.970  0.00  0.00    +0.046 C 
ATOM     27  I   UNL     1       3.554  -0.364  -3.571  0.00  0.00    -0.044 I 
ENDBRANCH  18  20
ENDBRANCH  15  16
ENDBRANCH   1  15
TORSDOF 5
