REMARK  Name = ZINC65298340
REMARK  9 active torsions:
REMARK  status: ('A' for Active; 'I' for Inactive)
REMARK    1  A    between atoms: C_1  and  C_2
REMARK    2  A    between atoms: C_2  and  O_3
REMARK    3  A    between atoms: O_3  and  C_4
REMARK    4  A    between atoms: C_8  and  C_11
REMARK    5  A    between atoms: C_9  and  O_10
REMARK    6  A    between atoms: C_14  and  C_26
REMARK    7  A    between atoms: N_20  and  C_23
REMARK    8  A    between atoms: C_23  and  C_24
REMARK    9  A    between atoms: C_23  and  C_25
REMARK                            x       y       z     vdW  Elec       q    Type
REMARK                         _______ _______ _______ _____ _____    ______ ____
ROOT
ATOM      1  C   UNL     1      -4.316  -4.377   0.007  0.00  0.00    +0.095 C 
ATOM      2  C   UNL     1      -4.878  -4.374   1.432  0.00  0.00    +0.079 C 
ATOM      3  C   UNL     1      -6.100  -5.248   1.491  0.00  0.00    +0.047 C 
ATOM      4  N   UNL     1      -6.399  -6.094   0.580  0.00  0.00    -0.266 NA
ATOM      5  C   UNL     1      -5.609  -6.313  -0.627  0.00  0.00    +0.109 C 
ATOM      6  N   UNL     1      -4.253  -5.772  -0.460  0.00  0.00    -0.286 NA
ATOM      7  C   UNL     1      -5.521  -7.815  -0.916  0.00  0.00    +0.027 C 
ATOM      8  C   UNL     1      -6.926  -8.360  -1.179  0.00  0.00    -0.075 C 
ATOM      9  N   UNL     1      -7.513  -7.673  -2.336  0.00  0.00    +0.381 N 
ATOM     10  C   UNL     1      -7.662  -6.243  -2.045  0.00  0.00    -0.075 C 
ATOM     11  C   UNL     1      -6.285  -5.618  -1.814  0.00  0.00    +0.027 C 
ATOM     12  H   UNL     1      -3.727  -5.843  -1.318  0.00  0.00    +0.125 HD
ATOM     13  H   UNL     1      -6.910  -7.791  -3.137  0.00  0.00    -0.081 HD
ENDROOT
BRANCH   1  18
ATOM     14  C   UNL     1      -1.498  -1.849   0.006  0.00  0.00    +0.162 A 
ATOM     15  C   UNL     1      -0.389  -2.680  -0.003  0.00  0.00    +0.049 A 
ATOM     16  C   UNL     1      -0.553  -4.052  -0.008  0.00  0.00    +0.004 A 
ATOM     17  C   UNL     1      -1.823  -4.600  -0.005  0.00  0.00    +0.009 A 
ATOM     18  C   UNL     1      -2.934  -3.777   0.004  0.00  0.00    +0.015 A 
ATOM     19  C   UNL     1      -2.776  -2.400   0.016  0.00  0.00    +0.163 A 
BRANCH  19  20
ATOM     20  O   UNL     1      -3.868  -1.589   0.030  0.00  0.00    -0.503 OA
ATOM     21  H   UNL     1      -4.192  -1.350  -0.849  0.00  0.00    +0.292 HD
ENDBRANCH  19  20
BRANCH  14  22
ATOM     22  O   UNL     1      -1.339  -0.499   0.012  0.00  0.00    -0.489 OA
BRANCH  22  24
ATOM     23  C   UNL     1      -0.019   1.526   0.010  0.00  0.00    +0.048 C 
ATOM     24  C   UNL     1       0.002  -0.004   0.002  0.00  0.00    +0.226 C 
ENDBRANCH  22  24
ENDBRANCH  14  22
ENDBRANCH   1  18
BRANCH   3  25
ATOM     25  C   UNL     1      -6.997  -5.123   2.656  0.00  0.00    -0.004 A 
ATOM     26  C   UNL     1      -6.708  -4.207   3.670  0.00  0.00    +0.010 A 
ATOM     27  C   UNL     1      -7.552  -4.096   4.756  0.00  0.00    +0.001 A 
ATOM     28  C   UNL     1      -8.681  -4.891   4.843  0.00  0.00    +0.000 A 
ATOM     29  C   UNL     1      -8.973  -5.801   3.842  0.00  0.00    +0.001 A 
ATOM     30  C   UNL     1      -8.142  -5.918   2.748  0.00  0.00    +0.010 A 
ENDBRANCH   3  25
BRANCH   9  31
ATOM     31  C   UNL     1      -8.830  -8.252  -2.631  0.00  0.00    -0.075 C 
ATOM     32  C   UNL     1      -9.443  -7.538  -3.837  0.00  0.00    -0.014 C 
ATOM     33  C   UNL     1      -8.675  -9.741  -2.945  0.00  0.00    -0.014 C 
ENDBRANCH   9  31
TORSDOF 6
