REMARK  Name = ZINC35743151
REMARK  9 active torsions:
REMARK  status: ('A' for Active; 'I' for Inactive)
REMARK    1  A    between atoms: C_1  and  C_2
REMARK    2  A    between atoms: C_2  and  C_4
REMARK    3  A    between atoms: C_2  and  O_28
REMARK    4  A    between atoms: C_4  and  N_5
REMARK    5  A    between atoms: N_5  and  C_6
REMARK    6  A    between atoms: N_5  and  C_14
REMARK    7  A    between atoms: C_6  and  C_7
REMARK    8  A    between atoms: C_14  and  C_15
REMARK    9  A    between atoms: C_18  and  C_21
REMARK                            x       y       z     vdW  Elec       q    Type
REMARK                         _______ _______ _______ _____ _____    ______ ____
ROOT
ATOM      1  N   UNL     1       0.475  -1.992   1.155  0.00  0.00    +0.387 N 
ATOM      2  H   UNL     1      -0.445  -2.312   0.895  0.00  0.00    -0.081 HD
ENDROOT
BRANCH   1   3
ATOM      3  C   UNL     1       0.531  -0.527   1.052  0.00  0.00    -0.047 C 
BRANCH   3   5
ATOM      4  C   UNL     1      -0.087   1.429  -0.374  0.00  0.00    +0.035 C 
ATOM      5  C   UNL     1       0.048  -0.095  -0.334  0.00  0.00    +0.095 C 
BRANCH   5   6
ATOM      6  O   UNL     1       0.993  -0.515  -1.320  0.00  0.00    -0.394 OA
ATOM      7  H   UNL     1       0.790  -0.210  -2.215  0.00  0.00    +0.210 HD
ENDBRANCH   5   6
ENDBRANCH   3   5
ENDBRANCH   1   3
BRANCH   1   8
ATOM      8  C   UNL     1       0.763  -2.397   2.538  0.00  0.00    -0.040 C 
BRANCH   8   9
ATOM      9  C   UNL     1      -0.328  -1.891   3.446  0.00  0.00    -0.029 A 
ATOM     10  C   UNL     1      -0.132  -0.742   4.190  0.00  0.00    +0.004 A 
ATOM     11  C   UNL     1      -1.133  -0.279   5.023  0.00  0.00    +0.000 A 
ATOM     12  C   UNL     1      -2.330  -0.963   5.114  0.00  0.00    +0.003 A 
ATOM     13  C   UNL     1      -2.529  -2.112   4.372  0.00  0.00    +0.038 A 
ATOM     14  C   UNL     1      -1.529  -2.574   3.533  0.00  0.00    +0.125 A 
ATOM     15  F   UNL     1      -1.724  -3.695   2.803  0.00  0.00    -0.205 F 
ENDBRANCH   8   9
ENDBRANCH   1   8
BRANCH   1  16
ATOM     16  C   UNL     1       1.473  -2.584   0.254  0.00  0.00    -0.030 C 
BRANCH  16  17
ATOM     17  C   UNL     1       1.375  -4.110   0.318  0.00  0.00    +0.194 C 
ATOM     18  C   UNL     1       2.353  -4.770  -0.684  0.00  0.00    +0.104 C 
ATOM     19  C   UNL     1       1.554  -5.956  -1.190  0.00  0.00    +0.091 C 
ATOM     20  N   UNL     1       0.317  -5.778  -0.869  0.00  0.00    -0.089 NA
ATOM     21  O   UNL     1       0.098  -4.566  -0.172  0.00  0.00    -0.392 OA
BRANCH  19  22
ATOM     22  C   UNL     1       2.099  -7.114  -1.925  0.00  0.00    -0.000 A 
ATOM     23  C   UNL     1       3.465  -7.188  -2.206  0.00  0.00    +0.011 A 
ATOM     24  C   UNL     1       3.968  -8.273  -2.892  0.00  0.00    +0.020 A 
ATOM     25  C   UNL     1       3.121  -9.289  -3.303  0.00  0.00    +0.041 A 
ATOM     26  C   UNL     1       1.766  -9.222  -3.028  0.00  0.00    +0.020 A 
ATOM     27  C   UNL     1       1.252  -8.145  -2.337  0.00  0.00    +0.011 A 
ATOM     28 CL   UNL     1       3.762 -10.651  -4.167  0.00  0.00    -0.084 Cl
ENDBRANCH  19  22
ENDBRANCH  16  17
ENDBRANCH   1  16
TORSDOF 8
