REMARK  Name = ZINC18244972
REMARK  3 active torsions:
REMARK  status: ('A' for Active; 'I' for Inactive)
REMARK    1  A    between atoms: C_1  and  C_2
REMARK    2  A    between atoms: C_2  and  C_22
REMARK    3  A    between atoms: N_12  and  C_15
REMARK                            x       y       z     vdW  Elec       q    Type
REMARK                         _______ _______ _______ _____ _____    ______ ____
ROOT
ATOM      1  C   UNL     1      -0.004   1.623   0.265  0.00  0.00    +0.016 C 
ATOM      2  C   UNL     1      -0.059   0.101   0.413  0.00  0.00    -0.006 C 
ATOM      3  C   UNL     1       0.440  -0.560  -0.877  0.00  0.00    +0.012 C 
ATOM      4  C   UNL     1       1.816   0.010  -1.202  0.00  0.00    +0.014 C 
ATOM      5  C   UNL     1       2.802  -0.168  -0.085  0.00  0.00    +0.088 C 
ATOM      6  C   UNL     1       2.289   0.026   1.335  0.00  0.00    +0.089 C 
ATOM      7  C   UNL     1       0.844  -0.334   1.558  0.00  0.00    +0.024 C 
ATOM      8  C   UNL     1       3.171  -0.949   2.113  0.00  0.00    +0.230 C 
ATOM      9  O   UNL     1       3.396  -0.914   3.304  0.00  0.00    -0.275 OA
ATOM     10  N   UNL     1       3.654  -1.851   1.242  0.00  0.00    -0.210 N 
ATOM     11  C   UNL     1       3.382  -1.565  -0.033  0.00  0.00    +0.230 C 
ATOM     12  O   UNL     1       3.581  -2.295  -0.980  0.00  0.00    -0.275 OA
ENDROOT
BRANCH  10  13
ATOM     13  C   UNL     1       4.359  -2.996   1.640  0.00  0.00    +0.044 A 
ATOM     14  C   UNL     1       4.468  -3.313   2.987  0.00  0.00    +0.025 A 
ATOM     15  C   UNL     1       5.163  -4.441   3.377  0.00  0.00    +0.017 A 
ATOM     16  C   UNL     1       5.751  -5.255   2.425  0.00  0.00    +0.018 A 
ATOM     17  C   UNL     1       5.645  -4.942   1.082  0.00  0.00    +0.017 A 
ATOM     18  C   UNL     1       4.946  -3.818   0.687  0.00  0.00    +0.025 A 
ATOM     19 BR   UNL     1       6.703  -6.798   2.962  0.00  0.00    -0.050 Br
ENDBRANCH  10  13
BRANCH   2  20
ATOM     20  C   UNL     1      -1.476  -0.330   0.693  0.00  0.00    -0.041 A 
ATOM     21  C   UNL     1      -1.775  -1.001   1.864  0.00  0.00    +0.004 A 
ATOM     22  C   UNL     1      -3.075  -1.396   2.120  0.00  0.00    +0.000 A 
ATOM     23  C   UNL     1      -4.075  -1.120   1.206  0.00  0.00    +0.000 A 
ATOM     24  C   UNL     1      -3.775  -0.449   0.036  0.00  0.00    +0.000 A 
ATOM     25  C   UNL     1      -2.476  -0.050  -0.219  0.00  0.00    +0.004 A 
ENDBRANCH   2  20
TORSDOF 2
