REMARK  Name = ZINC09559542
REMARK  5 active torsions:
REMARK  status: ('A' for Active; 'I' for Inactive)
REMARK    1  A    between atoms: C_10  and  C_12
REMARK    2  A    between atoms: C_15  and  C_18
REMARK    3  A    between atoms: C_18  and  N_19
REMARK    4  A    between atoms: N_19  and  S_20
REMARK    5  A    between atoms: S_20  and  C_23
REMARK                            x       y       z     vdW  Elec       q    Type
REMARK                         _______ _______ _______ _____ _____    ______ ____
ROOT
ATOM      1  C   UNL     1      -0.753   1.591  -1.231  0.00  0.00    +0.076 C 
ATOM      2  C   UNL     1      -0.532   0.592  -0.095  0.00  0.00    +0.013 C 
ATOM      3  C   UNL     1      -1.249   1.084   1.164  0.00  0.00    +0.005 C 
ATOM      4  C   UNL     1      -0.689   2.449   1.569  0.00  0.00    +0.005 C 
ATOM      5  C   UNL     1      -0.910   3.449   0.433  0.00  0.00    +0.005 C 
ATOM      6  C   UNL     1      -0.193   2.956  -0.826  0.00  0.00    +0.013 C 
ENDROOT
BRANCH   1  16
ATOM      7  C   UNL     1       0.620   0.103  -7.478  0.00  0.00    +0.000 A 
ATOM      8  C   UNL     1       1.387  -0.317  -6.407  0.00  0.00    +0.002 A 
ATOM      9  C   UNL     1       1.050   0.056  -5.123  0.00  0.00    +0.024 A 
ATOM     10  C   UNL     1      -0.065   0.866  -4.895  0.00  0.00    +0.039 A 
ATOM     11  C   UNL     1      -0.830   1.276  -5.975  0.00  0.00    -0.024 A 
ATOM     12  C   UNL     1      -0.488   0.900  -7.260  0.00  0.00    +0.005 A 
ATOM     13  C   UNL     1      -1.970   2.127  -5.460  0.00  0.00    +0.056 C 
ATOM     14  C   UNL     1      -1.775   2.155  -3.936  0.00  0.00    +0.118 C 
ATOM     15  N   UNL     1      -0.578   1.347  -3.687  0.00  0.00    -0.271 N 
ATOM     16  C   UNL     1      -0.047   1.107  -2.471  0.00  0.00    +0.223 C 
ATOM     17  O   UNL     1       0.999   0.500  -2.376  0.00  0.00    -0.275 OA
ENDBRANCH   1  16
BRANCH   4  18
ATOM     18  C   UNL     1      -1.406   2.941   2.828  0.00  0.00    +0.109 C 
BRANCH  18  19
ATOM     19  N   UNL     1      -1.096   2.047   3.947  0.00  0.00    -0.189 NA
ATOM     20  H   UNL     1      -0.703   1.177   3.778  0.00  0.00    +0.148 HD
BRANCH  19  21
ATOM     21  S   UNL     1      -1.419   2.523   5.500  0.00  0.00    +0.065 S 
ATOM     22  O   UNL     1      -1.038   1.444   6.343  0.00  0.00    -0.153 OA
ATOM     23  O   UNL     1      -0.880   3.830   5.645  0.00  0.00    -0.153 OA
BRANCH  21  24
ATOM     24  C   UNL     1      -3.168   2.681   5.644  0.00  0.00    +0.143 A 
ATOM     25  C   UNL     1      -4.082   1.749   6.009  0.00  0.00    +0.037 A 
ATOM     26  C   UNL     1      -5.418   2.101   6.053  0.00  0.00    +0.025 A 
ATOM     27  C   UNL     1      -5.774   3.369   5.729  0.00  0.00    +0.057 A 
ATOM     28  S   UNL     1      -4.195   4.112   5.355  0.00  0.00    -0.062 S 
ATOM     29 BR   UNL     1      -7.497   4.149   5.692  0.00  0.00    -0.043 Br
ENDBRANCH  21  24
ENDBRANCH  19  21
ENDBRANCH  18  19
ENDBRANCH   4  18
TORSDOF 5
