REMARK  Name = ZINC40755847
REMARK  4 active torsions:
REMARK  status: ('A' for Active; 'I' for Inactive)
REMARK    1  A    between atoms: C_6  and  N_7
REMARK    2  A    between atoms: C_9  and  N_25
REMARK    3  A    between atoms: C_10  and  N_14
REMARK    4  A    between atoms: N_14  and  C_15
REMARK                            x       y       z     vdW  Elec       q    Type
REMARK                         _______ _______ _______ _____ _____    ______ ____
ROOT
ATOM      1  N   UNL     1      -1.199  -0.721   0.010  0.00  0.00    -0.298 N 
ATOM      2  C   UNL     1      -1.183  -2.106  -0.102  0.00  0.00    +0.149 A 
ATOM      3  C   UNL     1      -2.376  -2.823  -0.206  0.00  0.00    +0.105 A 
ATOM      4  C   UNL     1      -2.303  -4.213  -0.317  0.00  0.00    +0.145 A 
ATOM      5  N   UNL     1      -1.107  -4.797  -0.319  0.00  0.00    -0.219 NA
ATOM      6  C   UNL     1      -0.004  -4.083  -0.219  0.00  0.00    +0.225 A 
ATOM      7  N   UNL     1      -0.029  -2.769  -0.119  0.00  0.00    -0.219 NA
ATOM      8  H   UNL     1      -2.043  -0.251   0.099  0.00  0.00    +0.154 HD
ENDROOT
BRANCH   1  14
ATOM      9  C   UNL     1       1.074  -0.459  -0.760  0.00  0.00    +0.026 A 
ATOM     10  C   UNL     1       2.260   0.251  -0.774  0.00  0.00    +0.043 A 
ATOM     11  C   UNL     1       2.380   1.415  -0.036  0.00  0.00    +0.159 A 
ATOM     12  C   UNL     1       1.311   1.872   0.721  0.00  0.00    +0.160 A 
ATOM     13  C   UNL     1       0.123   1.165   0.737  0.00  0.00    +0.064 A 
ATOM     14  C   UNL     1       0.002  -0.004  -0.004  0.00  0.00    +0.035 A 
ATOM     15  F   UNL     1       1.430   3.009   1.441  0.00  0.00    -0.202 F 
ATOM     16  F   UNL     1       3.540   2.107  -0.051  0.00  0.00    -0.202 F 
ENDBRANCH   1  14
BRANCH   3  17
ATOM     17  N   UNL     1      -3.616  -2.165  -0.198  0.00  0.00    -0.353 N 
ATOM     18  H   UNL     1      -3.652  -1.199  -0.121  0.00  0.00    +0.143 HD
ATOM     19  H   UNL     1      -4.437  -2.676  -0.271  0.00  0.00    +0.143 HD
ENDBRANCH   3  17
BRANCH   4  20
ATOM     20  N   UNL     1      -3.460  -4.975  -0.422  0.00  0.00    -0.322 N 
ATOM     21  H   UNL     1      -4.328  -4.541  -0.419  0.00  0.00    +0.148 HD
BRANCH  20  22
ATOM     22  C   UNL     1      -3.370  -6.432  -0.537  0.00  0.00    +0.034 C 
ATOM     23  C   UNL     1      -2.666  -6.999   0.697  0.00  0.00    +0.029 C 
ATOM     24  C   UNL     1      -2.571  -8.522   0.576  0.00  0.00    -0.008 C 
ATOM     25  C   UNL     1      -3.979  -9.113   0.475  0.00  0.00    +0.007 C 
ATOM     26  C   UNL     1      -4.683  -8.546  -0.759  0.00  0.00    -0.008 C 
ATOM     27  C   UNL     1      -4.777  -7.024  -0.638  0.00  0.00    +0.029 C 
ATOM     28  C   UNL     1      -3.886  -8.910  -2.013  0.00  0.00    +0.007 C 
ATOM     29  C   UNL     1      -2.479  -8.319  -1.913  0.00  0.00    -0.008 C 
ATOM     30  C   UNL     1      -1.774  -8.885  -0.678  0.00  0.00    +0.007 C 
ATOM     31  C   UNL     1      -2.573  -6.796  -1.792  0.00  0.00    +0.029 C 
ENDBRANCH  20  22
ENDBRANCH   4  20
TORSDOF 4
