REMARK  Name = ZINC18284110
REMARK  6 active torsions:
REMARK  status: ('A' for Active; 'I' for Inactive)
REMARK    1  A    between atoms: C_6  and  C_7
REMARK    2  A    between atoms: C_7  and  C_8
REMARK    3  A    between atoms: C_9  and  N_10
REMARK    4  A    between atoms: N_10  and  C_11
REMARK    5  A    between atoms: C_13  and  N_18
REMARK    6  A    between atoms: C_16  and  O_17
REMARK                            x       y       z     vdW  Elec       q    Type
REMARK                         _______ _______ _______ _____ _____    ______ ____
ROOT
ATOM      1  N   UNL     1      -2.385  -4.235   0.003  0.00  0.00    -0.318 N 
ATOM      2  H   UNL     1      -1.537  -4.707  -0.008  0.00  0.00    +0.152 HD
ENDROOT
BRANCH   1   3
ATOM      3  C   UNL     1      -3.585  -4.954   0.011  0.00  0.00    +0.075 A 
ATOM      4  C   UNL     1      -4.799  -4.281   0.021  0.00  0.00    +0.059 A 
ATOM      5  C   UNL     1      -5.983  -4.993   0.028  0.00  0.00    +0.128 A 
ATOM      6  C   UNL     1      -5.963  -6.376   0.027  0.00  0.00    +0.036 A 
ATOM      7  C   UNL     1      -4.758  -7.053   0.017  0.00  0.00    +0.049 A 
ATOM      8  C   UNL     1      -3.566  -6.347   0.003  0.00  0.00    +0.138 A 
BRANCH   5   9
ATOM      9  N   UNL     1      -7.277  -4.274   0.039  0.00  0.00    +0.056 N 
ATOM     10  O   UNL     1      -7.296  -3.065   0.041  0.00  0.00    -0.126 OA
ATOM     11  O   UNL     1      -8.314  -4.895   0.045  0.00  0.00    -0.126 OA
ENDBRANCH   5   9
BRANCH   8  12
ATOM     12  O   UNL     1      -2.380  -7.012  -0.012  0.00  0.00    -0.505 OA
ATOM     13  H   UNL     1      -2.028  -7.209   0.867  0.00  0.00    +0.292 HD
ENDBRANCH   8  12
ENDBRANCH   1   3
BRANCH   1  15
ATOM     14  C   UNL     1      -1.245  -2.176   0.003  0.00  0.00    +0.066 C 
ATOM     15  C   UNL     1      -2.406  -2.870   0.011  0.00  0.00    +0.076 C 
BRANCH  14  16
ATOM     16  C   UNL     1      -1.268  -0.764   0.011  0.00  0.00    +0.187 C 
ATOM     17  O   UNL     1      -2.332  -0.172   0.024  0.00  0.00    -0.287 OA
BRANCH  16  23
ATOM     18  C   UNL     1      -0.017   1.391   0.010  0.00  0.00    +0.013 A 
ATOM     19  C   UNL     1       1.169   2.095   0.002  0.00  0.00    +0.022 A 
ATOM     20  C   UNL     1       2.378   1.420  -0.013  0.00  0.00    +0.059 A 
ATOM     21  C   UNL     1       2.404   0.034  -0.021  0.00  0.00    +0.060 A 
ATOM     22  C   UNL     1       1.223  -0.680  -0.014  0.00  0.00    +0.033 A 
ATOM     23  C   UNL     1       0.002  -0.004   0.002  0.00  0.00    +0.023 A 
ATOM     24 CL   UNL     1       3.924  -0.805  -0.040  0.00  0.00    -0.082 Cl
ATOM     25 CL   UNL     1       3.867   2.312  -0.023  0.00  0.00    -0.082 Cl
ENDBRANCH  16  23
ENDBRANCH  14  16
ENDBRANCH   1  15
TORSDOF 6
