REMARK  Name = ZINC64580486
REMARK  10 active torsions:
REMARK  status: ('A' for Active; 'I' for Inactive)
REMARK    1  A    between atoms: C_1  and  C_2
REMARK    2  A    between atoms: C_2  and  C_3
REMARK    3  A    between atoms: C_6  and  C_23
REMARK    4  A    between atoms: C_8  and  S_9
REMARK    5  A    between atoms: S_9  and  N_12
REMARK    6  A    between atoms: N_12  and  C_13
REMARK    7  A    between atoms: C_16  and  O_21
REMARK    8  A    between atoms: C_18  and  O_19
REMARK    9  A    between atoms: O_19  and  C_20
REMARK   10  A    between atoms: O_21  and  C_22
REMARK                            x       y       z     vdW  Elec       q    Type
REMARK                         _______ _______ _______ _____ _____    ______ ____
ROOT
ATOM      1  C   UNL     1      -1.963  -0.898   0.241  0.00  0.00    -0.021 A 
ATOM      2  C   UNL     1      -2.994  -1.048   1.151  0.00  0.00    +0.006 A 
ATOM      3  C   UNL     1      -4.120  -1.768   0.809  0.00  0.00    +0.010 A 
ATOM      4  C   UNL     1      -4.219  -2.343  -0.456  0.00  0.00    +0.004 A 
ATOM      5  C   UNL     1      -3.178  -2.188  -1.369  0.00  0.00    +0.039 A 
ATOM      6  C   UNL     1      -2.058  -1.462  -1.018  0.00  0.00    +0.112 A 
ENDROOT
BRANCH   4   7
ATOM      7  C   UNL     1      -5.428  -3.119  -0.830  0.00  0.00    +0.095 A 
ATOM      8  C   UNL     1      -6.713  -2.639  -0.469  0.00  0.00    -0.011 A 
ATOM      9  C   UNL     1      -6.817  -1.354   0.304  0.00  0.00    +0.038 C 
ATOM     10  C   UNL     1      -8.236  -0.792   0.221  0.00  0.00    +0.005 C 
ATOM     11  C   UNL     1      -9.222  -1.907   0.590  0.00  0.00    +0.005 C 
ATOM     12  C   UNL     1      -9.205  -2.956  -0.522  0.00  0.00    +0.041 C 
ATOM     13  C   UNL     1      -7.794  -3.368  -0.834  0.00  0.00    +0.024 A 
ATOM     14  H   UNL     1      -6.172  -5.777  -2.324  0.00  0.00    +0.192 HD
ATOM     15  C   UNL     1      -7.574  -4.573  -1.544  0.00  0.00    +0.268 A 
ATOM     16  O   UNL     1      -8.518  -5.265  -1.888  0.00  0.00    -0.266 OA
ATOM     17  N   UNL     1      -6.316  -4.950  -1.838  0.00  0.00    -0.242 N 
ATOM     18  N   UNL     1      -5.302  -4.241  -1.496  0.00  0.00    -0.171 NA
ENDBRANCH   4   7
BRANCH   6  19
ATOM     19  S   UNL     1      -0.743  -1.260  -2.174  0.00  0.00    +0.073 S 
ATOM     20  O   UNL     1      -1.113  -1.982  -3.341  0.00  0.00    -0.150 OA
ATOM     21  O   UNL     1      -0.437   0.128  -2.202  0.00  0.00    -0.150 OA
BRANCH  19  22
ATOM     22  N   UNL     1       0.584  -2.025  -1.545  0.00  0.00    -0.213 N 
ATOM     23  H   UNL     1       1.400  -1.526  -1.382  0.00  0.00    +0.174 HD
BRANCH  22  24
ATOM     24  C   UNL     1       0.528  -3.394  -1.247  0.00  0.00    +0.090 A 
ATOM     25  C   UNL     1      -0.208  -4.250  -2.053  0.00  0.00    +0.032 A 
ATOM     26  C   UNL     1      -0.262  -5.600  -1.760  0.00  0.00    +0.048 A 
ATOM     27  C   UNL     1       0.418  -6.101  -0.660  0.00  0.00    +0.124 A 
ATOM     28  C   UNL     1       1.155  -5.249   0.148  0.00  0.00    +0.093 A 
ATOM     29  C   UNL     1       1.217  -3.897  -0.146  0.00  0.00    +0.146 A 
BRANCH  29  30
ATOM     30  O   UNL     1       1.944  -3.061   0.642  0.00  0.00    -0.493 OA
ATOM     31  C   UNL     1       2.624  -3.646   1.755  0.00  0.00    +0.277 C 
ENDBRANCH  29  30
BRANCH  27  32
ATOM     32  O   UNL     1       0.362  -7.429  -0.374  0.00  0.00    -0.495 OA
ATOM     33  C   UNL     1      -0.415  -8.249  -1.249  0.00  0.00    +0.277 C 
ENDBRANCH  27  32
ENDBRANCH  22  24
ENDBRANCH  19  22
ENDBRANCH   6  19
BRANCH   1  35
ATOM     34  C   UNL     1      -0.951   1.366   0.281  0.00  0.00    +0.009 C 
ATOM     35  C   UNL     1      -0.735  -0.111   0.620  0.00  0.00    +0.034 C 
ENDBRANCH   1  35
TORSDOF 7
