REMARK  Name = ZINC02668872
REMARK  9 active torsions:
REMARK  status: ('A' for Active; 'I' for Inactive)
REMARK    1  A    between atoms: C_1  and  C_2
REMARK    2  A    between atoms: C_2  and  C_4
REMARK    3  A    between atoms: C_8  and  C_10
REMARK    4  A    between atoms: C_10  and  C_11
REMARK    5  A    between atoms: C_10  and  C_12
REMARK    6  A    between atoms: C_10  and  N_13
REMARK    7  A    between atoms: N_16  and  N_17
REMARK    8  A    between atoms: C_18  and  C_20
REMARK    9  A    between atoms: C_25  and  O_26
REMARK                            x       y       z     vdW  Elec       q    Type
REMARK                         _______ _______ _______ _____ _____    ______ ____
ROOT
ATOM      1  N   UNL     1      -2.070  -3.597  -4.567  0.00  0.00    -0.289 N 
ATOM      2  C   UNL     1      -3.045  -4.316  -5.157  0.00  0.00    +0.317 C 
ATOM      3  O   UNL     1      -4.082  -4.537  -4.562  0.00  0.00    -0.251 OA
ATOM      4  N   UNL     1      -2.871  -4.789  -6.407  0.00  0.00    -0.218 N 
ATOM      5  H   UNL     1      -1.242  -3.421  -5.041  0.00  0.00    +0.151 HD
ATOM      6  H   UNL     1      -3.573  -5.307  -6.832  0.00  0.00    +0.174 HD
ENDROOT
BRANCH   4   7
ATOM      7  N   UNL     1      -1.676  -4.535  -7.092  0.00  0.00    -0.229 N 
ATOM      8  C   UNL     1      -1.501  -5.008  -8.342  0.00  0.00    +0.264 C 
ATOM      9  O   UNL     1      -2.381  -5.657  -8.875  0.00  0.00    -0.269 OA
ATOM     10  H   UNL     1      -0.974  -4.018  -6.667  0.00  0.00    +0.173 HD
BRANCH   8  11
ATOM     11  C   UNL     1      -0.243  -4.740  -9.064  0.00  0.00    +0.079 A 
ATOM     12  C   UNL     1       0.773  -4.001  -8.453  0.00  0.00    +0.017 A 
ATOM     13  C   UNL     1       1.947  -3.754  -9.132  0.00  0.00    +0.001 A 
ATOM     14  C   UNL     1       2.124  -4.236 -10.419  0.00  0.00    +0.004 A 
ATOM     15  C   UNL     1       1.128  -4.968 -11.034  0.00  0.00    +0.046 A 
ATOM     16  C   UNL     1      -0.057  -5.231 -10.363  0.00  0.00    +0.129 A 
BRANCH  16  17
ATOM     17  O   UNL     1      -1.034  -5.955 -10.964  0.00  0.00    -0.506 OA
ATOM     18  H   UNL     1      -1.665  -5.422 -11.468  0.00  0.00    +0.292 HD
ENDBRANCH  16  17
ENDBRANCH   8  11
ENDBRANCH   4   7
BRANCH   1  19
ATOM     19  C   UNL     1      -2.259  -3.083  -3.208  0.00  0.00    +0.056 C 
ATOM     20  C   UNL     1      -2.463  -4.252  -2.243  0.00  0.00    +0.036 C 
ATOM     21  C   UNL     1      -3.489  -2.173  -3.174  0.00  0.00    +0.036 C 
BRANCH  19  26
ATOM     22  C   UNL     1       0.895  -0.999  -3.370  0.00  0.00    -0.022 A 
ATOM     23  C   UNL     1       1.195  -0.853  -2.015  0.00  0.00    +0.008 A 
ATOM     24  C   UNL     1       0.377  -1.427  -1.065  0.00  0.00    +0.001 A 
ATOM     25  C   UNL     1      -0.739  -2.148  -1.453  0.00  0.00    +0.006 A 
ATOM     26  C   UNL     1      -1.042  -2.296  -2.795  0.00  0.00    -0.024 A 
ATOM     27  C   UNL     1      -0.234  -1.722  -3.755  0.00  0.00    +0.014 A 
BRANCH  22  29
ATOM     28  C   UNL     1       3.187  -0.865  -4.559  0.00  0.00    +0.044 C 
ATOM     29  C   UNL     1       1.768  -0.386  -4.394  0.00  0.00    -0.050 C 
ATOM     30  C   UNL     1       1.302   0.586  -5.166  0.00  0.00    +0.012 C 
ENDBRANCH  22  29
ENDBRANCH  19  26
ENDBRANCH   1  19
TORSDOF 6
