REMARK  Name = ZINC54379787
REMARK  4 active torsions:
REMARK  status: ('A' for Active; 'I' for Inactive)
REMARK    1  A    between atoms: C_1  and  N_2
REMARK    2  A    between atoms: N_2  and  C_3
REMARK    3  A    between atoms: C_3  and  C_4
REMARK    4  A    between atoms: C_12  and  C_17
REMARK                            x       y       z     vdW  Elec       q    Type
REMARK                         _______ _______ _______ _____ _____    ______ ____
ROOT
ATOM      1  C   UNL     1       0.535   0.682   1.089  0.00  0.00    +0.131 C 
ATOM      2  N   UNL     1       0.240  -0.647   0.549  0.00  0.00    -0.312 N 
ATOM      3  C   UNL     1      -0.058  -0.799  -0.793  0.00  0.00    +0.150 A 
ATOM      4  C   UNL     1       0.976  -0.893  -1.739  0.00  0.00    +0.141 A 
ATOM      5  N   UNL     1       0.679  -1.038  -3.026  0.00  0.00    -0.247 NA
ATOM      6  C   UNL     1      -0.581  -1.093  -3.410  0.00  0.00    +0.131 A 
ATOM      7  C   UNL     1      -1.602  -0.999  -2.477  0.00  0.00    +0.132 A 
ATOM      8  N   UNL     1      -1.322  -0.860  -1.193  0.00  0.00    -0.237 NA
ENDROOT
BRANCH   4   9
ATOM      9  C   UNL     1       2.388  -0.831  -1.305  0.00  0.00    +0.116 C 
ATOM     10  N   UNL     1       2.754  -1.383  -0.149  0.00  0.00    -0.385 N 
ATOM     11  N   UNL     1       3.294  -0.224  -2.069  0.00  0.00    -0.343 N 
ATOM     12  H   UNL     1       2.119  -1.913   0.358  0.00  0.00    +0.157 HD
ATOM     13  H   UNL     1       3.027   0.178  -2.911  0.00  0.00    +0.144 HD
ATOM     14  H   UNL     1       4.220  -0.183  -1.784  0.00  0.00    +0.144 HD
ATOM     15  H   UNL     1       3.656  -1.256   0.185  0.00  0.00    +0.157 HD
ENDBRANCH   4   9
BRANCH   2  16
ATOM     16  C   UNL     1       0.260  -1.817   1.431  0.00  0.00    +0.141 C 
BRANCH  16  17
ATOM     17  C   UNL     1      -1.112  -2.027   2.018  0.00  0.00    -0.030 A 
ATOM     18  C   UNL     1      -1.455  -1.416   3.210  0.00  0.00    +0.006 A 
ATOM     19  C   UNL     1      -2.713  -1.609   3.748  0.00  0.00    +0.015 A 
ATOM     20  C   UNL     1      -3.629  -2.413   3.094  0.00  0.00    +0.018 A 
ATOM     21  C   UNL     1      -3.286  -3.024   1.902  0.00  0.00    +0.015 A 
ATOM     22  C   UNL     1      -2.029  -2.827   1.362  0.00  0.00    +0.006 A 
ATOM     23 BR   UNL     1      -5.351  -2.677   3.831  0.00  0.00    -0.050 Br
ENDBRANCH  16  17
ENDBRANCH   2  16
TORSDOF 3
