REMARK  Name = ZINC32123781
REMARK  5 active torsions:
REMARK  status: ('A' for Active; 'I' for Inactive)
REMARK    1  A    between atoms: C_1  and  C_2
REMARK    2  A    between atoms: C_6  and  C_21
REMARK    3  A    between atoms: C_7  and  O_9
REMARK    4  A    between atoms: C_13  and  C_14
REMARK    5  A    between atoms: C_17  and  N_20
REMARK                            x       y       z     vdW  Elec       q    Type
REMARK                         _______ _______ _______ _____ _____    ______ ____
ROOT
ATOM      1  C   UNL     1       3.652   2.140   4.236  0.00  0.00    +0.013 C 
ATOM      2  C   UNL     1       4.102   2.415   2.800  0.00  0.00    -0.007 C 
ATOM      3  C   UNL     1       4.316   1.099   2.041  0.00  0.00    -0.066 C 
ATOM      4  N   UNL     1       4.714   1.405   0.658  0.00  0.00    +0.394 N 
ATOM      5  C   UNL     1       6.000   2.120   0.634  0.00  0.00    -0.061 C 
ATOM      6  C   UNL     1       5.834   3.465   1.351  0.00  0.00    +0.020 C 
ATOM      7  C   UNL     1       5.419   3.201   2.803  0.00  0.00    +0.130 C 
ATOM      8  C   UNL     1       4.721   4.260   0.657  0.00  0.00    +0.095 C 
ATOM      9  N   UNL     1       3.483   3.466   0.680  0.00  0.00    -0.310 NA
ATOM     10  C   UNL     1       3.038   3.239   2.064  0.00  0.00    +0.090 C 
ATOM     11  C   UNL     1       3.671   2.188  -0.021  0.00  0.00    +0.033 C 
ATOM     12  H   UNL     1       4.837   0.456   0.117  0.00  0.00    -0.079 HD
ENDROOT
BRANCH  11  13
ATOM     13  C   UNL     1       2.377   1.415  -0.013  0.00  0.00    -0.047 A 
ATOM     14  C   UNL     1       1.171   2.090   0.002  0.00  0.00    +0.005 A 
ATOM     15  C   UNL     1      -0.017   1.385   0.010  0.00  0.00    +0.023 A 
ATOM     16  C   UNL     1       0.002  -0.004   0.002  0.00  0.00    +0.025 A 
ATOM     17  C   UNL     1       1.216  -0.679  -0.013  0.00  0.00    +0.023 A 
ATOM     18  C   UNL     1       2.400   0.032  -0.021  0.00  0.00    +0.005 A 
BRANCH  16  19
ATOM     19  N   UNL     1      -1.197  -0.720   0.010  0.00  0.00    -0.358 N 
ATOM     20  H   UNL     1      -1.181  -1.820   0.004  0.00  0.00    +0.142 HD
ATOM     21  H   UNL     1      -2.158  -0.185   0.023  0.00  0.00    +0.142 HD
ENDBRANCH  16  19
ENDBRANCH  11  13
BRANCH   6  22
ATOM     22  C   UNL     1       7.132   4.231   1.316  0.00  0.00    -0.039 A 
ATOM     23  C   UNL     1       7.755   4.589   2.497  0.00  0.00    +0.004 A 
ATOM     24  C   UNL     1       8.947   5.288   2.466  0.00  0.00    +0.000 A 
ATOM     25  C   UNL     1       9.512   5.636   1.253  0.00  0.00    +0.000 A 
ATOM     26  C   UNL     1       8.887   5.282   0.072  0.00  0.00    +0.000 A 
ATOM     27  C   UNL     1       7.696   4.580   0.104  0.00  0.00    +0.004 A 
ENDBRANCH   6  22
BRANCH   7  28
ATOM     28  O   UNL     1       6.432   2.437   3.461  0.00  0.00    -0.390 OA
ATOM     29  H   UNL     1       7.450   2.842   3.560  0.00  0.00    +0.210 HD
ENDBRANCH   7  28
TORSDOF 4
