REMARK  Name = ZINC48771167
REMARK  7 active torsions:
REMARK  status: ('A' for Active; 'I' for Inactive)
REMARK    1  A    between atoms: C_1  and  C_2
REMARK    2  A    between atoms: C_4  and  C_19
REMARK    3  A    between atoms: C_5  and  O_9
REMARK    4  A    between atoms: C_6  and  C_8
REMARK    5  A    between atoms: O_9  and  C_10
REMARK    6  A    between atoms: C_10  and  C_12
REMARK    7  A    between atoms: C_13  and  C_14
REMARK                            x       y       z     vdW  Elec       q    Type
REMARK                         _______ _______ _______ _____ _____    ______ ____
ROOT
ATOM      1  O   UNL     1       0.248  -4.399  -1.658  0.00  0.00    -0.422 OA
ENDROOT
BRANCH   1   6
ATOM      2  C   UNL     1       0.552   0.544  -4.340  0.00  0.00    +0.044 C 
ATOM      3  C   UNL     1       0.471  -0.779  -3.623  0.00  0.00    -0.050 A 
ATOM      4  C   UNL     1       0.465  -1.957  -4.346  0.00  0.00    +0.010 A 
ATOM      5  C   UNL     1       0.390  -3.171  -3.690  0.00  0.00    -0.008 A 
ATOM      6  C   UNL     1       0.322  -3.207  -2.305  0.00  0.00    +0.138 A 
ATOM      7  C   UNL     1       0.328  -2.023  -1.582  0.00  0.00    -0.008 A 
ATOM      8  C   UNL     1       0.408  -0.812  -2.242  0.00  0.00    +0.010 A 
ATOM      9  C   UNL     1       0.254  -2.058  -0.077  0.00  0.00    +0.047 C 
ATOM     10  C   UNL     1       0.383  -4.455  -4.479  0.00  0.00    +0.047 C 
ENDBRANCH   1   6
BRANCH   1  11
ATOM     11  C   UNL     1       1.403  -4.997  -1.298  0.00  0.00    +0.337 C 
ATOM     12  O   UNL     1       2.468  -4.468  -1.555  0.00  0.00    -0.245 OA
BRANCH  11  13
ATOM     13  C   UNL     1       1.376  -6.242  -0.621  0.00  0.00    +0.094 C 
ATOM     14  C   UNL     1       2.524  -6.782  -0.150  0.00  0.00    +0.042 C 
BRANCH  14  15
ATOM     15  C   UNL     1       3.757  -5.994  -0.152  0.00  0.00    +0.101 A 
ATOM     16  N   UNL     1       3.923  -4.688   0.039  0.00  0.00    -0.248 NA
ATOM     17  C   UNL     1       5.137  -4.201  -0.009  0.00  0.00    +0.119 A 
ATOM     18  C   UNL     1       6.189  -5.029  -0.249  0.00  0.00    +0.067 A 
ATOM     19  S   UNL     1       5.441  -6.530  -0.403  0.00  0.00    -0.076 S 
ENDBRANCH  14  15
ENDBRANCH  11  13
ENDBRANCH   1  11
TORSDOF 4
