REMARK  Name = ZINC16843569
REMARK  7 active torsions:
REMARK  status: ('A' for Active; 'I' for Inactive)
REMARK    1  A    between atoms: C_1  and  C_2
REMARK    2  A    between atoms: C_5  and  N_8
REMARK    3  A    between atoms: C_14  and  C_18
REMARK    4  A    between atoms: C_15  and  C_17
REMARK    5  A    between atoms: C_18  and  C_19
REMARK    6  A    between atoms: C_22  and  C_26
REMARK    7  A    between atoms: C_24  and  C_25
REMARK                            x       y       z     vdW  Elec       q    Type
REMARK                         _______ _______ _______ _____ _____    ______ ____
ROOT
ATOM      1  N   UNL     1      -0.221   3.008  -0.158  0.00  0.00    -0.285 N 
ATOM      2  C   UNL     1       0.299   1.765   0.094  0.00  0.00    +0.200 A 
ATOM      3  N   UNL     1       1.649   1.604   0.153  0.00  0.00    -0.295 N 
ATOM      4  H   UNL     1       2.236   2.365   0.019  0.00  0.00    +0.172 HD
ATOM      5  C   UNL     1       2.169   0.383   0.401  0.00  0.00    +0.256 A 
ATOM      6  O   UNL     1       3.377   0.221   0.457  0.00  0.00    -0.267 OA
ATOM      7  C   UNL     1       1.291  -0.699   0.592  0.00  0.00    +0.042 A 
ATOM      8  C   UNL     1      -0.054  -0.478   0.521  0.00  0.00    +0.050 A 
ATOM      9  N   UNL     1      -0.517   0.746   0.274  0.00  0.00    -0.221 NA
ATOM     10  C   UNL     1      -1.016  -1.620   0.722  0.00  0.00    +0.066 C 
ATOM     11  H   UNL     1       0.367   3.777  -0.215  0.00  0.00    +0.155 HD
ENDROOT
BRANCH   1  16
ATOM     12  C   UNL     1      -5.812   3.654  -0.863  0.00  0.00    +0.044 C 
ATOM     13  C   UNL     1      -4.327   3.482  -0.675  0.00  0.00    -0.050 A 
ATOM     14  C   UNL     1      -3.586   4.487  -0.080  0.00  0.00    +0.005 A 
ATOM     15  C   UNL     1      -2.225   4.332   0.093  0.00  0.00    +0.023 A 
ATOM     16  C   UNL     1      -1.600   3.167  -0.331  0.00  0.00    +0.034 A 
ATOM     17  C   UNL     1      -2.346   2.162  -0.933  0.00  0.00    +0.023 A 
ATOM     18  C   UNL     1      -3.708   2.321  -1.099  0.00  0.00    +0.005 A 
ENDBRANCH   1  16
BRANCH   7  19
ATOM     19  C   UNL     1       1.826  -2.080   0.869  0.00  0.00    +0.077 C 
BRANCH  19  20
ATOM     20  C   UNL     1       2.126  -2.774  -0.434  0.00  0.00    -0.040 A 
ATOM     21  C   UNL     1       2.022  -2.082  -1.626  0.00  0.00    +0.004 A 
ATOM     22  C   UNL     1       2.297  -2.718  -2.822  0.00  0.00    +0.003 A 
ATOM     23  C   UNL     1       2.677  -4.048  -2.826  0.00  0.00    -0.050 A 
ATOM     24  C   UNL     1       2.780  -4.740  -1.634  0.00  0.00    +0.007 A 
ATOM     25  C   UNL     1       2.510  -4.102  -0.438  0.00  0.00    -0.047 A 
ATOM     26  C   UNL     1       2.629  -4.855   0.862  0.00  0.00    +0.044 C 
ATOM     27  C   UNL     1       2.977  -4.742  -4.129  0.00  0.00    +0.044 C 
ENDBRANCH  19  20
ENDBRANCH   7  19
TORSDOF 3
