REMARK  Name = ZINC38686897
REMARK  11 active torsions:
REMARK  status: ('A' for Active; 'I' for Inactive)
REMARK    1  A    between atoms: C_1  and  O_2
REMARK    2  A    between atoms: O_2  and  C_3
REMARK    3  A    between atoms: C_5  and  C_18
REMARK    4  A    between atoms: C_8  and  O_9
REMARK    5  A    between atoms: O_9  and  C_10
REMARK    6  A    between atoms: C_10  and  C_11
REMARK    7  A    between atoms: C_23  and  O_32
REMARK    8  A    between atoms: C_27  and  N_31
REMARK    9  A    between atoms: C_28  and  C_29
REMARK   10  A    between atoms: O_32  and  C_33
REMARK   11  A    between atoms: C_33  and  C_35
REMARK                            x       y       z     vdW  Elec       q    Type
REMARK                         _______ _______ _______ _____ _____    ______ ____
ROOT
ATOM      1  C   UNL     1      -4.853   0.314   0.010  0.00  0.00    +0.098 C 
ATOM      2  C   UNL     1      -5.663  -0.030  -1.212  0.00  0.00    +0.008 A 
ATOM      3  C   UNL     1      -5.358   0.569  -2.421  0.00  0.00    +0.012 A 
ATOM      4  C   UNL     1      -6.090   0.267  -3.552  0.00  0.00    +0.047 A 
ATOM      5  C   UNL     1      -7.137  -0.642  -3.478  0.00  0.00    +0.136 A 
ATOM      6  C   UNL     1      -7.445  -1.244  -2.269  0.00  0.00    +0.093 A 
ATOM      7  C   UNL     1      -6.707  -0.938  -1.132  0.00  0.00    +0.138 A 
ATOM      8  O   UNL     1      -7.021  -1.536   0.044  0.00  0.00    -0.441 OA
ATOM      9  C   UNL     1      -6.607  -0.995   1.202  0.00  0.00    +0.199 C 
ATOM     10  C   UNL     1      -5.584  -0.113   1.252  0.00  0.00    +0.098 C 
ENDROOT
BRANCH   1  13
ATOM     11  C   UNL     1      -1.130  -0.315  -0.128  0.00  0.00    +0.162 A 
ATOM     12  C   UNL     1      -2.352   0.336  -0.067  0.00  0.00    +0.054 A 
ATOM     13  C   UNL     1      -3.525  -0.396  -0.056  0.00  0.00    -0.031 A 
ATOM     14  C   UNL     1      -3.482  -1.777  -0.103  0.00  0.00    +0.008 A 
ATOM     15  C   UNL     1      -2.267  -2.433  -0.164  0.00  0.00    +0.050 A 
ATOM     16  C   UNL     1      -1.088  -1.705  -0.182  0.00  0.00    +0.162 A 
BRANCH  11  18
ATOM     17  C   UNL     1      -0.095   1.825  -0.082  0.00  0.00    +0.277 C 
ATOM     18  O   UNL     1       0.025   0.403  -0.140  0.00  0.00    -0.491 OA
ENDBRANCH  11  18
BRANCH  16  19
ATOM     19  O   UNL     1       0.109  -2.348  -0.247  0.00  0.00    -0.484 OA
BRANCH  19  20
ATOM     20  C   UNL     1       0.076  -3.776  -0.300  0.00  0.00    +0.267 C 
BRANCH  20  21
ATOM     21  C   UNL     1       1.484  -4.309  -0.368  0.00  0.00    +0.025 A 
ATOM     22  C   UNL     1       2.555  -3.435  -0.365  0.00  0.00    +0.010 A 
ATOM     23  C   UNL     1       3.846  -3.923  -0.428  0.00  0.00    +0.001 A 
ATOM     24  C   UNL     1       4.069  -5.286  -0.493  0.00  0.00    +0.003 A 
ATOM     25  C   UNL     1       3.000  -6.162  -0.495  0.00  0.00    +0.039 A 
ATOM     26  C   UNL     1       1.706  -5.674  -0.427  0.00  0.00    +0.130 A 
ATOM     27  F   UNL     1       0.660  -6.529  -0.424  0.00  0.00    -0.205 F 
ENDBRANCH  20  21
ENDBRANCH  19  20
ENDBRANCH  16  19
ENDBRANCH   1  13
BRANCH   9  28
ATOM     28  N   UNL     1      -7.240  -1.349   2.367  0.00  0.00    -0.328 N 
ATOM     29  H   UNL     1      -7.976  -1.981   2.346  0.00  0.00    +0.145 HD
ATOM     30  H   UNL     1      -6.953  -0.967   3.211  0.00  0.00    +0.145 HD
ENDBRANCH   9  28
BRANCH  10  31
ATOM     31  C   UNL     1      -5.190   0.426   2.518  0.00  0.00    +0.101 C 
ATOM     32  N   UNL     1      -4.878   0.854   3.523  0.00  0.00    -0.191 NA
ENDBRANCH  10  31
BRANCH   5  33
ATOM     33  O   UNL     1      -7.859  -0.940  -4.590  0.00  0.00    -0.420 OA
BRANCH  33  34
ATOM     34  C   UNL     1      -7.254  -1.645  -5.568  0.00  0.00    +0.380 C 
ATOM     35  O   UNL     1      -6.133  -2.083  -5.397  0.00  0.00    -0.241 OA
BRANCH  34  36
ATOM     36  C   UNL     1      -7.948  -1.882  -6.836  0.00  0.00    +0.212 A 
ATOM     37  C   UNL     1      -7.455  -2.581  -7.902  0.00  0.00    +0.056 A 
ATOM     38  C   UNL     1      -8.448  -2.557  -8.893  0.00  0.00    +0.042 A 
ATOM     39  C   UNL     1      -9.491  -1.854  -8.396  0.00  0.00    +0.196 A 
ATOM     40  O   UNL     1      -9.188  -1.454  -7.154  0.00  0.00    -0.456 OA
ENDBRANCH  34  36
ENDBRANCH  33  34
ENDBRANCH   5  33
TORSDOF 10
