REMARK  Name = ZINC02209814
REMARK  7 active torsions:
REMARK  status: ('A' for Active; 'I' for Inactive)
REMARK    1  A    between atoms: C_1  and  C_2
REMARK    2  A    between atoms: C_2  and  C_3
REMARK    3  A    between atoms: N_5  and  N_6
REMARK    4  A    between atoms: C_14  and  S_16
REMARK    5  A    between atoms: S_16  and  C_17
REMARK    6  A    between atoms: C_20  and  C_22
REMARK    7  A    between atoms: C_20  and  C_23
REMARK                            x       y       z     vdW  Elec       q    Type
REMARK                         _______ _______ _______ _____ _____    ______ ____
ROOT
ATOM      1  N   UNL     1      -2.407  -2.651   0.012  0.00  0.00    -0.248 N 
ATOM      2  C   UNL     1      -1.191  -1.993   0.004  0.00  0.00    +0.148 A 
ATOM      3  C   UNL     1       0.001  -2.689  -0.344  0.00  0.00    +0.052 A 
ATOM      4  C   UNL     1       0.166  -4.091  -0.724  0.00  0.00    -0.020 A 
ATOM      5  C   UNL     1       1.418  -4.507  -1.010  0.00  0.00    +0.021 A 
ATOM      6  S   UNL     1       2.440  -3.077  -0.795  0.00  0.00    -0.071 S 
ATOM      7  C   UNL     1       1.182  -1.919  -0.320  0.00  0.00    +0.115 A 
ATOM      8  N   UNL     1       1.168  -0.641   0.006  0.00  0.00    -0.215 NA
ATOM      9  C   UNL     1       0.026  -0.044   0.322  0.00  0.00    +0.191 A 
ATOM     10  N   UNL     1      -1.122  -0.712   0.323  0.00  0.00    -0.205 NA
ATOM     11  C   UNL     1       1.820  -5.890  -1.418  0.00  0.00    +0.203 C 
ATOM     12  O   UNL     1       0.716  -6.769  -1.149  0.00  0.00    -0.368 OA
ATOM     13  C   UNL     1      -0.535  -6.280  -1.640  0.00  0.00    +0.068 C 
ATOM     14  C   UNL     1      -0.994  -5.079  -0.808  0.00  0.00    +0.071 C 
ATOM     15  C   UNL     1      -0.375  -5.854  -3.101  0.00  0.00    +0.041 C 
ATOM     16  C   UNL     1      -1.584  -7.390  -1.547  0.00  0.00    +0.041 C 
ATOM     17  H   UNL     1      -2.437  -3.617  -0.066  0.00  0.00    +0.172 HD
ENDROOT
BRANCH   1  20
ATOM     18  C   UNL     1      -4.783  -2.563   0.141  0.00  0.00    +0.229 C 
ATOM     19  O   UNL     1      -4.819  -3.771   0.043  0.00  0.00    -0.274 OA
ATOM     20  N   UNL     1      -3.597  -1.921   0.133  0.00  0.00    -0.235 N 
ATOM     21  H   UNL     1      -3.568  -0.955   0.211  0.00  0.00    +0.173 HD
BRANCH  18  23
ATOM     22  C   UNL     1      -7.254  -2.739   0.253  0.00  0.00    +0.013 C 
ATOM     23  C   UNL     1      -6.063  -1.778   0.271  0.00  0.00    +0.094 C 
ENDBRANCH  18  23
ENDBRANCH   1  20
BRANCH   9  24
ATOM     24  S   UNL     1       0.034   1.664   0.754  0.00  0.00    -0.089 S 
ATOM     25  C   UNL     1       1.801   2.021   0.590  0.00  0.00    +0.093 C 
ENDBRANCH   9  24
TORSDOF 3
