REMARK  Name = ZINC08205901
REMARK  5 active torsions:
REMARK  status: ('A' for Active; 'I' for Inactive)
REMARK    1  A    between atoms: C_4  and  C_7
REMARK    2  A    between atoms: C_8  and  C_9
REMARK    3  A    between atoms: N_11  and  C_12
REMARK    4  A    between atoms: C_12  and  C_13
REMARK    5  A    between atoms: N_15  and  C_16
REMARK                            x       y       z     vdW  Elec       q    Type
REMARK                         _______ _______ _______ _____ _____    ______ ____
ROOT
ATOM      1  C   UNL     1       1.147   1.656   0.009  0.00  0.00    +0.237 C 
ATOM      2  O   UNL     1       1.130   2.873   0.025  0.00  0.00    -0.271 OA
ATOM      3  N   UNL     1      -0.011   0.966   0.010  0.00  0.00    -0.303 N 
ATOM      4  H   UNL     1       0.002  -0.004  -0.002  0.00  0.00    +0.149 HD
ENDROOT
BRANCH   1   6
ATOM      5  C   UNL     1       3.583   1.631  -0.012  0.00  0.00    +0.013 C 
ATOM      6  C   UNL     1       2.425   0.941  -0.011  0.00  0.00    +0.068 C 
BRANCH   5  10
ATOM      7  C   UNL     1       7.285  -0.439  -0.068  0.00  0.00    +0.000 A 
ATOM      8  C   UNL     1       7.270   0.945  -0.051  0.00  0.00    +0.001 A 
ATOM      9  C   UNL     1       6.071   1.625  -0.033  0.00  0.00    +0.008 A 
ATOM     10  C   UNL     1       4.868   0.913  -0.032  0.00  0.00    -0.025 A 
ATOM     11  C   UNL     1       4.891  -0.485  -0.044  0.00  0.00    +0.008 A 
ATOM     12  C   UNL     1       6.098  -1.151  -0.067  0.00  0.00    +0.001 A 
ENDBRANCH   5  10
ENDBRANCH   1   6
BRANCH   3  13
ATOM     13  C   UNL     1      -1.290   1.681   0.024  0.00  0.00    +0.200 C 
BRANCH  13  14
ATOM     14  C   UNL     1      -2.422   0.686   0.015  0.00  0.00    +0.234 C 
ATOM     15  O   UNL     1      -2.184  -0.503  -0.001  0.00  0.00    -0.274 OA
ATOM     16  N   UNL     1      -3.698   1.118   0.026  0.00  0.00    -0.284 N 
ATOM     17  H   UNL     1      -3.889   2.066   0.106  0.00  0.00    +0.155 HD
BRANCH  16  18
ATOM     18  C   UNL     1      -4.749   0.199  -0.080  0.00  0.00    +0.033 A 
ATOM     19  C   UNL     1      -5.907   0.543  -0.764  0.00  0.00    +0.024 A 
ATOM     20  C   UNL     1      -6.940  -0.368  -0.871  0.00  0.00    +0.017 A 
ATOM     21  C   UNL     1      -6.826  -1.617  -0.288  0.00  0.00    +0.018 A 
ATOM     22  C   UNL     1      -5.675  -1.960   0.399  0.00  0.00    +0.017 A 
ATOM     23  C   UNL     1      -4.636  -1.056   0.504  0.00  0.00    +0.024 A 
ATOM     24 BR   UNL     1      -8.245  -2.859  -0.432  0.00  0.00    -0.050 Br
ENDBRANCH  16  18
ENDBRANCH  13  14
ENDBRANCH   3  13
TORSDOF 5
