REMARK  Name = ZINC39210894
REMARK  11 active torsions:
REMARK  status: ('A' for Active; 'I' for Inactive)
REMARK    1  A    between atoms: C_1  and  C_2
REMARK    2  A    between atoms: C_6  and  C_35
REMARK    3  A    between atoms: N_8  and  C_10
REMARK    4  A    between atoms: C_10  and  C_11
REMARK    5  A    between atoms: N_13  and  C_14
REMARK    6  A    between atoms: C_14  and  C_15
REMARK    7  A    between atoms: C_15  and  C_16
REMARK    8  A    between atoms: C_19  and  O_27
REMARK    9  A    between atoms: C_24  and  C_26
REMARK   10  A    between atoms: O_27  and  C_28
REMARK   11  A    between atoms: C_28  and  C_29
REMARK                            x       y       z     vdW  Elec       q    Type
REMARK                         _______ _______ _______ _____ _____    ______ ____
ROOT
ATOM      1  C   UNL     1       3.149  -3.956   7.483  0.00  0.00    -0.018 A 
ATOM      2  C   UNL     1       2.619  -5.201   8.044  0.00  0.00    +0.007 A 
ATOM      3  C   UNL     1       2.357  -6.467   7.518  0.00  0.00    +0.056 A 
ATOM      4  C   UNL     1       1.843  -7.453   8.336  0.00  0.00    +0.122 A 
ATOM      5  C   UNL     1       1.587  -7.188   9.679  0.00  0.00    +0.048 A 
ATOM      6  C   UNL     1       1.841  -5.943  10.209  0.00  0.00    +0.030 A 
ATOM      7  C   UNL     1       2.359  -4.936   9.401  0.00  0.00    +0.047 A 
ATOM      8  N   UNL     1       2.710  -3.623   9.633  0.00  0.00    -0.358 N 
ATOM      9  C   UNL     1       3.184  -3.058   8.480  0.00  0.00    +0.017 A 
ATOM     10  H   UNL     1       2.637  -3.168  10.487  0.00  0.00    +0.166 HD
ATOM     11  C   UNL     1       3.669  -1.638   8.349  0.00  0.00    +0.063 C 
ENDROOT
BRANCH   1  12
ATOM     12  C   UNL     1       3.580  -3.728   6.057  0.00  0.00    +0.056 C 
BRANCH  12  13
ATOM     13  C   UNL     1       2.387  -3.233   5.236  0.00  0.00    +0.109 C 
BRANCH  13  16
ATOM     14  C   UNL     1       1.916  -2.572   2.939  0.00  0.00    +0.229 C 
ATOM     15  O   UNL     1       0.767  -2.360   3.267  0.00  0.00    -0.274 OA
ATOM     16  N   UNL     1       2.806  -3.012   3.850  0.00  0.00    -0.314 N 
ATOM     17  H   UNL     1       3.724  -3.182   3.588  0.00  0.00    +0.149 HD
BRANCH  14  18
ATOM     18  C   UNL     1       2.347  -2.345   1.513  0.00  0.00    +0.198 C 
BRANCH  18  23
ATOM     19  C   UNL     1      -0.019   1.526   0.010  0.00  0.00    +0.027 C 
ATOM     20  C   UNL     1       0.002  -0.004   0.002  0.00  0.00    +0.086 C 
ATOM     21  C   UNL     1       0.768  -0.531  -1.233  0.00  0.00    +0.117 C 
ATOM     22  C   UNL     1       1.556  -1.748  -0.707  0.00  0.00    +0.089 C 
ATOM     23  N   UNL     1       1.201  -1.869   0.725  0.00  0.00    -0.230 NA
ATOM     24  N   UNL     1       0.790  -0.523   1.151  0.00  0.00    -0.249 NA
ATOM     25  C   UNL     1       1.143  -3.012  -1.464  0.00  0.00    +0.027 C 
ATOM     26 CL   UNL     1       1.895   0.729  -1.860  0.00  0.00    -0.118 Cl
ATOM     27  H   UNL     1       0.227  -0.562   1.987  0.00  0.00    +0.141 HD
ENDBRANCH  18  23
ENDBRANCH  14  18
ENDBRANCH  13  16
ENDBRANCH  12  13
ENDBRANCH   1  12
BRANCH   4  28
ATOM     28  O   UNL     1       1.585  -8.688   7.829  0.00  0.00    -0.487 OA
BRANCH  28  29
ATOM     29  C   UNL     1       1.054  -9.662   8.730  0.00  0.00    +0.264 C 
BRANCH  29  30
ATOM     30  C   UNL     1       0.835 -10.960   7.995  0.00  0.00    -0.010 A 
ATOM     31  C   UNL     1      -0.375 -11.205   7.373  0.00  0.00    +0.007 A 
ATOM     32  C   UNL     1      -0.577 -12.395   6.699  0.00  0.00    +0.000 A 
ATOM     33  C   UNL     1       0.432 -13.339   6.647  0.00  0.00    +0.000 A 
ATOM     34  C   UNL     1       1.642 -13.093   7.268  0.00  0.00    +0.000 A 
ATOM     35  C   UNL     1       1.845 -11.901   7.938  0.00  0.00    +0.007 A 
ENDBRANCH  29  30
ENDBRANCH  28  29
ENDBRANCH   4  28
TORSDOF 8
