REMARK  Name = ZINC01867787
REMARK  13 active torsions:
REMARK  status: ('A' for Active; 'I' for Inactive)
REMARK    1  A    between atoms: C_1  and  C_2
REMARK    2  A    between atoms: C_2  and  N_3
REMARK    3  A    between atoms: N_3  and  C_4
REMARK    4  A    between atoms: N_3  and  C_6
REMARK    5  A    between atoms: C_4  and  C_5
REMARK    6  A    between atoms: C_9  and  C_13
REMARK    7  A    between atoms: C_10  and  O_12
REMARK    8  A    between atoms: N_14  and  N_15
REMARK    9  A    between atoms: C_16  and  C_18
REMARK   10  A    between atoms: C_18  and  S_19
REMARK   11  A    between atoms: S_19  and  C_20
REMARK   12  A    between atoms: C_23  and  C_32
REMARK   13  A    between atoms: N_24  and  C_25
REMARK                            x       y       z     vdW  Elec       q    Type
REMARK                         _______ _______ _______ _____ _____    ______ ____
ROOT
ATOM      1  C   UNL     1      -2.546  -2.781 -10.531  0.00  0.00    +0.174 C 
ENDROOT
BRANCH   1   3
ATOM      2  N   UNL     1      -2.385  -2.087  -8.162  0.00  0.00    -0.206 N 
ATOM      3  C   UNL     1      -1.759  -2.527  -9.271  0.00  0.00    +0.242 C 
ATOM      4  O   UNL     1      -0.561  -2.718  -9.256  0.00  0.00    -0.273 OA
ATOM      5  H   UNL     1      -3.343  -1.934  -8.174  0.00  0.00    +0.177 HD
BRANCH   2   7
ATOM      6  C   UNL     1      -2.256  -1.427  -5.922  0.00  0.00    +0.142 C 
ATOM      7  N   UNL     1      -1.653  -1.851  -6.991  0.00  0.00    -0.188 NA
BRANCH   6  11
ATOM      8  C   UNL     1      -0.037  -0.712  -2.371  0.00  0.00    +0.033 A 
ATOM      9  C   UNL     1      -1.412  -0.493  -2.390  0.00  0.00    +0.024 A 
ATOM     10  C   UNL     1      -2.134  -0.723  -3.539  0.00  0.00    +0.015 A 
ATOM     11  C   UNL     1      -1.487  -1.179  -4.691  0.00  0.00    +0.036 A 
ATOM     12  C   UNL     1      -0.102  -1.400  -4.671  0.00  0.00    +0.127 A 
ATOM     13  C   UNL     1       0.615  -1.160  -3.512  0.00  0.00    +0.069 A 
BRANCH  12  14
ATOM     14  O   UNL     1       0.534  -1.843  -5.786  0.00  0.00    -0.506 OA
ATOM     15  H   UNL     1       0.855  -1.137  -6.363  0.00  0.00    +0.292 HD
ENDBRANCH  12  14
BRANCH   8  16
ATOM     16  N   UNL     1       0.688  -0.476  -1.203  0.00  0.00    -0.330 N 
BRANCH  16  18
ATOM     17  C   UNL     1      -0.019   1.526   0.010  0.00  0.00    +0.024 C 
ATOM     18  C   UNL     1       0.002  -0.004   0.002  0.00  0.00    +0.102 C 
ENDBRANCH  16  18
BRANCH  16  19
ATOM     19  C   UNL     1       2.135  -0.701  -1.182  0.00  0.00    +0.102 C 
ATOM     20  C   UNL     1       2.421  -2.145  -0.763  0.00  0.00    +0.024 C 
ENDBRANCH  16  19
ENDBRANCH   8  16
ENDBRANCH   6  11
ENDBRANCH   2   7
ENDBRANCH   1   3
BRANCH   1  21
ATOM     21  S   UNL     1      -1.428  -3.360 -11.836  0.00  0.00    -0.076 S 
BRANCH  21  22
ATOM     22  C   UNL     1      -2.486  -3.609 -13.223  0.00  0.00    +0.197 A 
ATOM     23  N   UNL     1      -3.783  -3.403 -13.262  0.00  0.00    -0.122 NA
ATOM     24  N   UNL     1      -4.242  -3.685 -14.429  0.00  0.00    -0.128 NA
ATOM     25  C   UNL     1      -3.266  -4.089 -15.209  0.00  0.00    +0.169 A 
ATOM     26  N   UNL     1      -2.109  -4.048 -14.463  0.00  0.00    -0.270 N 
BRANCH  26  27
ATOM     27  C   UNL     1      -0.815  -4.387 -14.886  0.00  0.00    +0.051 A 
ATOM     28  C   UNL     1      -0.184  -3.633 -15.865  0.00  0.00    +0.028 A 
ATOM     29  C   UNL     1       1.091  -3.969 -16.279  0.00  0.00    +0.022 A 
ATOM     30  C   UNL     1       1.737  -5.056 -15.718  0.00  0.00    +0.041 A 
ATOM     31  C   UNL     1       1.109  -5.809 -14.742  0.00  0.00    +0.022 A 
ATOM     32  C   UNL     1      -0.162  -5.474 -14.320  0.00  0.00    +0.028 A 
ATOM     33 CL   UNL     1       3.338  -5.477 -16.241  0.00  0.00    -0.084 Cl
ENDBRANCH  26  27
BRANCH  25  34
ATOM     34  C   UNL     1      -3.386  -4.503 -16.623  0.00  0.00    +0.020 A 
ATOM     35  C   UNL     1      -2.348  -5.205 -17.238  0.00  0.00    +0.011 A 
ATOM     36  C   UNL     1      -2.467  -5.589 -18.558  0.00  0.00    +0.001 A 
ATOM     37  C   UNL     1      -3.611  -5.280 -19.272  0.00  0.00    +0.000 A 
ATOM     38  C   UNL     1      -4.644  -4.584 -18.668  0.00  0.00    +0.001 A 
ATOM     39  C   UNL     1      -4.541  -4.200 -17.347  0.00  0.00    +0.011 A 
ENDBRANCH  25  34
ENDBRANCH  21  22
ENDBRANCH   1  21
TORSDOF 11
