REMARK  Name = ZINC54534425
REMARK  3 active torsions:
REMARK  status: ('A' for Active; 'I' for Inactive)
REMARK    1  A    between atoms: C_1  and  C_2
REMARK    2  A    between atoms: C_7  and  C_10
REMARK    3  A    between atoms: C_12  and  C_20
REMARK                            x       y       z     vdW  Elec       q    Type
REMARK                         _______ _______ _______ _____ _____    ______ ____
ROOT
ATOM      1  C   UNL     1      -0.034   1.451  -0.045  0.00  0.00    +0.007 C 
ATOM      2  C   UNL     1      -0.031  -0.079  -0.057  0.00  0.00    -0.011 C 
ATOM      3  C   UNL     1      -1.473  -0.591  -0.091  0.00  0.00    +0.022 C 
ATOM      4  C   UNL     1      -1.466  -2.122  -0.137  0.00  0.00    +0.107 C 
ATOM      5  N   UNL     1      -0.673  -2.626   0.993  0.00  0.00    -0.313 N 
ATOM      6  C   UNL     1       0.698  -2.128   1.172  0.00  0.00    +0.072 C 
ATOM      7  C   UNL     1       0.666  -0.597   1.204  0.00  0.00    +0.025 C 
ATOM      8  C   UNL     1       1.269  -2.660   2.488  0.00  0.00    +0.028 C 
ATOM      9  C   UNL     1      -1.206  -3.549   1.871  0.00  0.00    +0.114 A 
ATOM     10  C   UNL     1      -1.124  -4.923   1.577  0.00  0.00    +0.101 A 
ATOM     11  C   UNL     1      -1.674  -5.836   2.486  0.00  0.00    +0.023 A 
ATOM     12  C   UNL     1      -2.275  -5.347   3.633  0.00  0.00    -0.027 A 
ATOM     13  C   UNL     1      -2.319  -3.981   3.856  0.00  0.00    +0.021 A 
ATOM     14  N   UNL     1      -1.788  -3.138   2.985  0.00  0.00    -0.346 N 
ATOM     15  C   UNL     1      -3.022  -3.705   5.169  0.00  0.00    +0.054 C 
ATOM     16  C   UNL     1      -3.784  -5.005   5.503  0.00  0.00    +0.011 C 
ATOM     17  C   UNL     1      -2.944  -6.077   4.777  0.00  0.00    +0.037 C 
ATOM     18  H   UNL     1      -1.829  -2.186   3.168  0.00  0.00    +0.167 HD
ENDROOT
BRANCH  10  19
ATOM     19  C   UNL     1      -0.474  -5.390   0.344  0.00  0.00    +0.390 C 
ATOM     20  O   UNL     1      -0.503  -6.577   0.049  0.00  0.00    -0.240 OA
ATOM     21  O   UNL     1       0.095  -4.591  -0.388  0.00  0.00    -0.240 OA
ENDBRANCH  10  19
TORSDOF 1
