REMARK  Name = ZINC02521861
REMARK  6 active torsions:
REMARK  status: ('A' for Active; 'I' for Inactive)
REMARK    1  A    between atoms: C_8  and  C_12
REMARK    2  A    between atoms: N_13  and  N_14
REMARK    3  A    between atoms: C_15  and  C_17
REMARK    4  A    between atoms: C_22  and  N_23
REMARK    5  A    between atoms: N_23  and  S_24
REMARK    6  A    between atoms: S_24  and  C_27
REMARK                            x       y       z     vdW  Elec       q    Type
REMARK                         _______ _______ _______ _____ _____    ______ ____
ROOT
ATOM      1  C   UNL     1       6.923   8.366  -0.285  0.00  0.00    +0.061 A 
ATOM      2  C   UNL     1       8.105   7.642  -0.463  0.00  0.00    +0.015 A 
ATOM      3  C   UNL     1       9.311   8.303  -0.543  0.00  0.00    +0.001 A 
ATOM      4  C   UNL     1       9.361   9.685  -0.437  0.00  0.00    +0.002 A 
ATOM      5  C   UNL     1       8.204  10.414  -0.256  0.00  0.00    +0.025 A 
ATOM      6  C   UNL     1       6.977   9.765  -0.178  0.00  0.00    +0.060 A 
ENDROOT
BRANCH   1   8
ATOM      7  N   UNL     1       5.583   6.323  -0.307  0.00  0.00    -0.203 N 
ATOM      8  C   UNL     1       5.629   7.666  -0.203  0.00  0.00    +0.265 C 
ATOM      9  O   UNL     1       4.604   8.299  -0.043  0.00  0.00    -0.268 OA
ATOM     10  H   UNL     1       6.401   5.817  -0.435  0.00  0.00    +0.178 HD
BRANCH   7  12
ATOM     11  C   UNL     1       4.307   4.363  -0.329  0.00  0.00    +0.141 C 
ATOM     12  N   UNL     1       4.353   5.657  -0.229  0.00  0.00    -0.187 NA
BRANCH  11  20
ATOM     13  C   UNL     1       0.330  -0.302  -0.282  0.00  0.00    +0.001 A 
ATOM     14  C   UNL     1      -0.805   0.485  -0.098  0.00  0.00    +0.002 A 
ATOM     15  C   UNL     1      -0.712   1.840   0.002  0.00  0.00    +0.028 A 
ATOM     16  C   UNL     1       0.546   2.462  -0.082  0.00  0.00    +0.073 A 
ATOM     17  C   UNL     1       1.699   1.659  -0.270  0.00  0.00    +0.001 A 
ATOM     18  C   UNL     1       1.565   0.263  -0.368  0.00  0.00    +0.010 A 
ATOM     19  C   UNL     1       2.958   2.277  -0.353  0.00  0.00    +0.022 A 
ATOM     20  C   UNL     1       3.013   3.662  -0.248  0.00  0.00    +0.032 A 
ATOM     21  C   UNL     1       1.822   4.390  -0.062  0.00  0.00    +0.139 A 
ATOM     22  N   UNL     1       0.660   3.792   0.013  0.00  0.00    -0.235 NA
ATOM     23 CL   UNL     1       1.895   6.119   0.070  0.00  0.00    -0.061 Cl
ENDBRANCH  11  20
ENDBRANCH   7  12
ENDBRANCH   1   8
BRANCH   6  24
ATOM     24  N   UNL     1       5.811  10.496   0.006  0.00  0.00    -0.216 N 
ATOM     25  H   UNL     1       5.092  10.135   0.548  0.00  0.00    +0.174 HD
BRANCH  24  26
ATOM     26  S   UNL     1       5.648  11.985  -0.701  0.00  0.00    +0.072 S 
ATOM     27  O   UNL     1       4.318  12.414  -0.443  0.00  0.00    -0.150 OA
ATOM     28  O   UNL     1       6.782  12.746  -0.311  0.00  0.00    -0.150 OA
BRANCH  26  29
ATOM     29  C   UNL     1       5.772  11.751  -2.443  0.00  0.00    +0.109 A 
ATOM     30  C   UNL     1       7.005  11.825  -3.064  0.00  0.00    +0.030 A 
ATOM     31  C   UNL     1       7.104  11.636  -4.429  0.00  0.00    +0.022 A 
ATOM     32  C   UNL     1       5.967  11.385  -5.177  0.00  0.00    +0.041 A 
ATOM     33  C   UNL     1       4.733  11.316  -4.556  0.00  0.00    +0.022 A 
ATOM     34  C   UNL     1       4.636  11.500  -3.189  0.00  0.00    +0.030 A 
ATOM     35 CL   UNL     1       6.090  11.154  -6.893  0.00  0.00    -0.084 Cl
ENDBRANCH  26  29
ENDBRANCH  24  26
ENDBRANCH   6  24
TORSDOF 6
