REMARK  Name = ZINC54591898
REMARK  10 active torsions:
REMARK  status: ('A' for Active; 'I' for Inactive)
REMARK    1  A    between atoms: C_1  and  C_2
REMARK    2  A    between atoms: C_7  and  N_8
REMARK    3  A    between atoms: N_8  and  C_9
REMARK    4  A    between atoms: C_12  and  C_32
REMARK    5  A    between atoms: C_14  and  C_22
REMARK    6  A    between atoms: C_16  and  C_20
REMARK    7  A    between atoms: C_16  and  O_21
REMARK    8  A    between atoms: N_24  and  C_25
REMARK    9  A    between atoms: C_30  and  C_31
REMARK   10  A    between atoms: C_35  and  N_38
REMARK                            x       y       z     vdW  Elec       q    Type
REMARK                         _______ _______ _______ _____ _____    ______ ____
ROOT
ATOM      1  C   UNL     1      -0.056  -0.618   3.637  0.00  0.00    +0.248 C 
ATOM      2  O   UNL     1      -0.014  -1.964   3.708  0.00  0.00    -0.270 OA
ATOM      3  C   UNL     1      -0.131   0.132   4.791  0.00  0.00    +0.065 C 
ATOM      4  C   UNL     1      -0.032  -0.575   6.113  0.00  0.00    +0.072 C 
ATOM      5  C   UNL     1       0.297   0.428   7.221  0.00  0.00    +0.119 C 
ATOM      6  C   UNL     1      -0.688   1.600   7.132  0.00  0.00    +0.082 C 
ATOM      7  C   UNL     1      -0.375   2.410   5.873  0.00  0.00    +0.114 C 
ATOM      8  C   UNL     1      -0.288   1.500   4.681  0.00  0.00    +0.168 C 
ATOM      9  O   UNL     1      -0.363   1.988   3.570  0.00  0.00    -0.292 OA
ATOM     10  C   UNL     1      -2.119   1.063   7.055  0.00  0.00    +0.042 C 
ENDROOT
BRANCH   4  11
ATOM     11  C   UNL     1       1.058  -1.614   6.044  0.00  0.00    -0.039 A 
ATOM     12  C   UNL     1       2.359  -1.234   5.774  0.00  0.00    +0.006 A 
ATOM     13  C   UNL     1       3.358  -2.187   5.710  0.00  0.00    +0.033 A 
ATOM     14  C   UNL     1       3.056  -3.520   5.918  0.00  0.00    +0.126 A 
ATOM     15  C   UNL     1       1.755  -3.900   6.189  0.00  0.00    +0.033 A 
ATOM     16  C   UNL     1       0.756  -2.946   6.257  0.00  0.00    +0.006 A 
BRANCH  14  17
ATOM     17  N   UNL     1       4.126  -4.541   5.849  0.00  0.00    +0.056 N 
ATOM     18  O   UNL     1       5.264  -4.209   5.612  0.00  0.00    -0.126 OA
ATOM     19  O   UNL     1       3.861  -5.707   6.031  0.00  0.00    -0.126 OA
ENDBRANCH  14  17
ENDBRANCH   4  11
BRANCH   5  20
ATOM     20  C   UNL     1       0.169  -0.243   8.564  0.00  0.00    +0.224 C 
ATOM     21  O   UNL     1      -0.154  -1.410   8.630  0.00  0.00    -0.275 OA
ATOM     22  N   UNL     1       0.412   0.454   9.691  0.00  0.00    -0.285 N 
ATOM     23  H   UNL     1       0.751   1.362   9.637  0.00  0.00    +0.155 HD
BRANCH  22  24
ATOM     24  C   UNL     1       0.177  -0.131  10.941  0.00  0.00    +0.036 A 
ATOM     25  C   UNL     1      -0.746  -1.161  11.063  0.00  0.00    +0.023 A 
ATOM     26  C   UNL     1      -0.976  -1.737  12.298  0.00  0.00    +0.002 A 
ATOM     27  C   UNL     1      -0.288  -1.288  13.410  0.00  0.00    +0.000 A 
ATOM     28  C   UNL     1       0.631  -0.262  13.291  0.00  0.00    +0.005 A 
ATOM     29  C   UNL     1       0.871   0.313  12.059  0.00  0.00    -0.029 A 
ATOM     30  C   UNL     1       1.878   1.427  11.928  0.00  0.00    +0.045 C 
ENDBRANCH  22  24
ENDBRANCH   5  20
BRANCH   1  31
ATOM     31  N   UNL     1      -0.023   0.004   2.419  0.00  0.00    -0.281 N 
ATOM     32  H   UNL     1       0.691   0.627   2.211  0.00  0.00    +0.155 HD
BRANCH  31  39
ATOM     33  C   UNL     1      -0.001   1.495  -0.004  0.00  0.00    +0.045 C 
ATOM     34  C   UNL     1      -1.046   0.446   0.277  0.00  0.00    -0.029 A 
ATOM     35  C   UNL     1      -2.028   0.181  -0.657  0.00  0.00    +0.005 A 
ATOM     36  C   UNL     1      -2.986  -0.782  -0.401  0.00  0.00    +0.000 A 
ATOM     37  C   UNL     1      -2.966  -1.482   0.792  0.00  0.00    +0.002 A 
ATOM     38  C   UNL     1      -1.987  -1.221   1.731  0.00  0.00    +0.023 A 
ATOM     39  C   UNL     1      -1.019  -0.259   1.473  0.00  0.00    +0.037 A 
ENDBRANCH  31  39
ENDBRANCH   1  31
BRANCH   6  40
ATOM     40  O   UNL     1      -0.547   2.432   8.285  0.00  0.00    -0.388 OA
ATOM     41  H   UNL     1      -1.142   3.195   8.294  0.00  0.00    +0.210 HD
ENDBRANCH   6  40
TORSDOF 7
