REMARK  Name = ZINC12293791
REMARK  9 active torsions:
REMARK  status: ('A' for Active; 'I' for Inactive)
REMARK    1  A    between atoms: C_1  and  O_2
REMARK    2  A    between atoms: O_2  and  C_3
REMARK    3  A    between atoms: C_6  and  C_11
REMARK    4  A    between atoms: C_8  and  O_9
REMARK    5  A    between atoms: O_9  and  C_10
REMARK    6  A    between atoms: C_11  and  C_13
REMARK    7  A    between atoms: C_11  and  O_30
REMARK    8  A    between atoms: C_13  and  N_58
REMARK    9  A    between atoms: C_20  and  O_29
REMARK                            x       y       z     vdW  Elec       q    Type
REMARK                         _______ _______ _______ _____ _____    ______ ____
ROOT
ATOM      1  C   UNL     1       3.952   5.942   0.710  0.00  0.00    -0.075 C 
ATOM      2  C   UNL     1       2.518   5.410   0.679  0.00  0.00    +0.029 C 
ATOM      3  C   UNL     1       2.543   3.882   0.759  0.00  0.00    +0.110 C 
ATOM      4  C   UNL     1       3.378   3.326  -0.396  0.00  0.00    +0.029 C 
ATOM      5  C   UNL     1       4.787   3.921  -0.334  0.00  0.00    -0.075 C 
ATOM      6  C   UNL     1       1.111   3.344   0.662  0.00  0.00    +0.084 C 
ATOM      7  C   UNL     1       1.171   1.814   0.640  0.00  0.00    +0.152 C 
ATOM      8  C   UNL     1       2.069   1.326   1.747  0.00  0.00    +0.023 A 
ATOM      9  C   UNL     1       1.969   0.005   2.153  0.00  0.00    +0.010 A 
ATOM     10  C   UNL     1       2.779  -0.478   3.162  0.00  0.00    +0.001 A 
ATOM     11  C   UNL     1       3.696   0.359   3.772  0.00  0.00    +0.004 A 
ATOM     12  C   UNL     1       3.800   1.676   3.373  0.00  0.00    +0.046 A 
ATOM     13  C   UNL     1       2.982   2.166   2.359  0.00  0.00    +0.127 A 
ATOM     14  O   UNL     1       3.103   3.472   2.004  0.00  0.00    -0.485 OA
ATOM     15  N   UNL     1       4.692   5.392  -0.446  0.00  0.00    +0.382 N 
ATOM     16  H   UNL     1       4.187   5.628  -1.308  0.00  0.00    -0.082 HD
ENDROOT
BRANCH   7  17
ATOM     17  O   UNL     1      -0.143   1.284   0.824  0.00  0.00    -0.387 OA
ATOM     18  H   UNL     1      -0.182   0.318   0.818  0.00  0.00    +0.210 HD
ENDBRANCH   7  17
BRANCH  15  19
ATOM     19  C   UNL     1       6.046   5.982  -0.506  0.00  0.00    -0.042 C 
BRANCH  19  20
ATOM     20  C   UNL     1       5.939   7.394  -1.083  0.00  0.00    +0.128 C 
BRANCH  20  24
ATOM     21  C   UNL     1       9.811   9.208  -1.140  0.00  0.00    +0.162 A 
ATOM     22  C   UNL     1       9.409   8.392  -2.186  0.00  0.00    +0.050 A 
ATOM     23  C   UNL     1       8.159   7.803  -2.162  0.00  0.00    +0.010 A 
ATOM     24  C   UNL     1       7.303   8.034  -1.101  0.00  0.00    -0.017 A 
ATOM     25  C   UNL     1       7.698   8.847  -0.055  0.00  0.00    +0.055 A 
ATOM     26  C   UNL     1       8.952   9.436  -0.070  0.00  0.00    +0.162 A 
BRANCH  21  28
ATOM     27  C   UNL     1      11.872   9.504  -2.290  0.00  0.00    +0.277 C 
ATOM     28  O   UNL     1      11.043   9.783  -1.160  0.00  0.00    -0.491 OA
ENDBRANCH  21  28
BRANCH  26  29
ATOM     29  O   UNL     1       9.341  10.236   0.958  0.00  0.00    -0.491 OA
ATOM     30  C   UNL     1       8.407  10.426   2.023  0.00  0.00    +0.277 C 
ENDBRANCH  26  29
ENDBRANCH  20  24
BRANCH  20  31
ATOM     31  O   UNL     1       5.426   7.327  -2.415  0.00  0.00    -0.389 OA
ATOM     32  H   UNL     1       5.975   6.812  -3.022  0.00  0.00    +0.210 HD
ENDBRANCH  20  31
ENDBRANCH  19  20
ENDBRANCH  15  19
TORSDOF 7
