REMARK  Name = ZINC11816929
REMARK  8 active torsions:
REMARK  status: ('A' for Active; 'I' for Inactive)
REMARK    1  A    between atoms: C_1  and  C_2
REMARK    2  A    between atoms: C_6  and  C_8
REMARK    3  A    between atoms: C_8  and  N_9
REMARK    4  A    between atoms: C_13  and  C_16
REMARK    5  A    between atoms: C_13  and  O_27
REMARK    6  A    between atoms: C_16  and  N_51
REMARK    7  A    between atoms: C_17  and  C_18
REMARK    8  A    between atoms: C_17  and  N_51
REMARK                            x       y       z     vdW  Elec       q    Type
REMARK                         _______ _______ _______ _____ _____    ______ ____
ROOT
ATOM      1  N   UNL     1      -0.067   5.840  -1.327  0.00  0.00    -0.295 N 
ATOM      2  C   UNL     1      -1.372   6.016  -1.951  0.00  0.00    +0.108 C 
ATOM      3  C   UNL     1      -1.263   6.931  -3.171  0.00  0.00    +0.022 C 
ATOM      4  C   UNL     1      -0.132   6.417  -4.071  0.00  0.00    +0.044 C 
ATOM      5  C   UNL     1       1.197   6.615  -3.338  0.00  0.00    +0.127 C 
ATOM      6  C   UNL     1       1.093   6.087  -1.936  0.00  0.00    +0.246 C 
ATOM      7  O   UNL     1       2.119   5.869  -1.328  0.00  0.00    -0.273 OA
ENDROOT
BRANCH   5   8
ATOM      8  O   UNL     1       1.511   8.008  -3.293  0.00  0.00    -0.381 OA
ATOM      9  H   UNL     1       2.343   8.210  -2.843  0.00  0.00    +0.211 HD
ENDBRANCH   5   8
BRANCH   1  10
ATOM     10  C   UNL     1      -0.027   5.367   0.059  0.00  0.00    +0.143 C 
BRANCH  10  16
ATOM     11  C   UNL     1       2.624   1.122   0.063  0.00  0.00    +0.044 C 
ATOM     12  C   UNL     1       1.294   1.830   0.077  0.00  0.00    -0.050 A 
ATOM     13  C   UNL     1       0.121   1.098   0.106  0.00  0.00    +0.003 A 
ATOM     14  C   UNL     1      -1.099   1.747   0.114  0.00  0.00    +0.001 A 
ATOM     15  C   UNL     1      -1.147   3.129   0.103  0.00  0.00    +0.005 A 
ATOM     16  C   UNL     1       0.025   3.861   0.075  0.00  0.00    -0.030 A 
ATOM     17  C   UNL     1       1.246   3.211   0.062  0.00  0.00    +0.008 A 
ENDBRANCH  10  16
ENDBRANCH   1  10
BRANCH   5  18
ATOM     18  C   UNL     1       2.304   5.868  -4.084  0.00  0.00    -0.037 C 
BRANCH  18  19
ATOM     19  N   UNL     1       2.350   6.340  -5.481  0.00  0.00    +0.384 N 
ATOM     20  H   UNL     1       2.633   7.326  -5.496  0.00  0.00    -0.085 HD
ATOM     21  H   UNL     1       1.418   6.245  -5.901  0.00  0.00    -0.085 HD
BRANCH  19  22
ATOM     22  C   UNL     1       3.318   5.543  -6.259  0.00  0.00    -0.047 C 
BRANCH  22  23
ATOM     23  C   UNL     1       3.343   6.047  -7.679  0.00  0.00    -0.062 A 
ATOM     24  C   UNL     1       2.470   5.480  -8.617  0.00  0.00    +0.004 A 
ATOM     25  C   UNL     1       2.439   5.891  -9.908  0.00  0.00    +0.033 A 
ATOM     26  C   UNL     1       3.315   6.910 -10.330  0.00  0.00    +0.134 A 
ATOM     27  C   UNL     1       4.244   7.507  -9.338  0.00  0.00    +0.134 A 
ATOM     28  C   UNL     1       4.213   7.031  -8.013  0.00  0.00    +0.035 A 
ATOM     29  N   UNL     1       4.893   8.396 -10.048  0.00  0.00    -0.049 NA
ATOM     30  O   UNL     1       4.483   8.369 -11.191  0.00  0.00    -0.242 OA
ATOM     31  N   UNL     1       3.602   7.567 -11.427  0.00  0.00    -0.049 NA
ENDBRANCH  22  23
ENDBRANCH  19  22
ENDBRANCH  18  19
ENDBRANCH   5  18
TORSDOF 7
