REMARK  Name = ZINC09187367
REMARK  4 active torsions:
REMARK  status: ('A' for Active; 'I' for Inactive)
REMARK    1  A    between atoms: C_1  and  C_2
REMARK    2  A    between atoms: C_2  and  C_3
REMARK    3  A    between atoms: C_23  and  C_30
REMARK    4  A    between atoms: C_30  and  C_32
REMARK                            x       y       z     vdW  Elec       q    Type
REMARK                         _______ _______ _______ _____ _____    ______ ____
ROOT
ATOM      1  C   UNL     1      -2.666  -1.847  -1.627  0.00  0.00    -0.026 A 
ATOM      2  C   UNL     1      -2.455  -1.716  -2.984  0.00  0.00    +0.005 A 
ATOM      3  C   UNL     1      -1.391  -0.970  -3.456  0.00  0.00    +0.001 A 
ATOM      4  C   UNL     1      -0.533  -0.351  -2.563  0.00  0.00    +0.004 A 
ATOM      5  C   UNL     1      -0.740  -0.480  -1.209  0.00  0.00    -0.026 A 
ATOM      6  C   UNL     1      -1.807  -1.229  -0.722  0.00  0.00    +0.039 A 
ATOM      7  N   UNL     1      -1.809  -1.214   0.674  0.00  0.00    -0.286 N 
ATOM      8  C   UNL     1      -0.792  -0.490   1.177  0.00  0.00    +0.212 C 
ATOM      9  O   UNL     1      -0.547  -0.304   2.350  0.00  0.00    -0.277 OA
ATOM     10  C   UNL     1      -0.015   0.046   0.001  0.00  0.00    +0.060 C 
ATOM     11  C   UNL     1       1.433  -0.431   0.033  0.00  0.00    +0.085 C 
ATOM     12  C   UNL     1       1.616  -1.650   0.887  0.00  0.00    -0.011 A 
ATOM     13  C   UNL     1       1.353  -1.933   2.209  0.00  0.00    +0.006 A 
ATOM     14  C   UNL     1       1.639  -3.187   2.719  0.00  0.00    +0.000 A 
ATOM     15  C   UNL     1       2.189  -4.155   1.899  0.00  0.00    +0.002 A 
ATOM     16  C   UNL     1       2.454  -3.877   0.575  0.00  0.00    +0.023 A 
ATOM     17  C   UNL     1       2.170  -2.617   0.052  0.00  0.00    +0.038 A 
ATOM     18  N   UNL     1       2.344  -2.102  -1.234  0.00  0.00    -0.285 N 
ATOM     19  C   UNL     1       1.934  -0.822  -1.329  0.00  0.00    +0.228 C 
ATOM     20  O   UNL     1       1.964  -0.122  -2.319  0.00  0.00    -0.275 OA
ATOM     21  C   UNL     1       2.215   0.774   0.592  0.00  0.00    +0.066 C 
ATOM     22  C   UNL     1       1.418   1.964  -0.000  0.00  0.00    -0.055 C 
ATOM     23  C   UNL     1      -0.573   2.011   1.288  0.00  0.00    -0.076 C 
ATOM     24  C   UNL     1       0.092   3.396   1.479  0.00  0.00    -0.020 C 
ATOM     25  C   UNL     1       1.526   3.166   0.951  0.00  0.00    -0.016 C 
ATOM     26  H   UNL     1      -2.468  -1.672   1.219  0.00  0.00    +0.155 HD
ATOM     27  H   UNL     1       2.716  -2.608  -1.974  0.00  0.00    +0.155 HD
ATOM     28  N   UNL     1       0.025   1.523   0.033  0.00  0.00    +0.395 N 
ATOM     29  H   UNL     1      -0.486   1.903  -0.772  0.00  0.00    -0.079 HD
ENDROOT
BRANCH   1  31
ATOM     30  C   UNL     1      -5.018  -1.741  -0.848  0.00  0.00    +0.009 C 
ATOM     31  C   UNL     1      -3.828  -2.663  -1.123  0.00  0.00    +0.033 C 
ENDBRANCH   1  31
BRANCH  21  32
ATOM     32  C   UNL     1       2.174   0.793   2.098  0.00  0.00    +0.167 C 
ATOM     33  O   UNL     1       1.322   1.437   2.674  0.00  0.00    -0.292 OA
BRANCH  32  34
ATOM     34  C   UNL     1       3.166   0.030   2.870  0.00  0.00    +0.036 A 
ATOM     35  C   UNL     1       4.150  -0.714   2.211  0.00  0.00    +0.013 A 
ATOM     36  C   UNL     1       5.077  -1.426   2.941  0.00  0.00    +0.001 A 
ATOM     37  C   UNL     1       5.036  -1.407   4.325  0.00  0.00    +0.001 A 
ATOM     38  C   UNL     1       4.068  -0.674   4.987  0.00  0.00    +0.021 A 
ATOM     39  C   UNL     1       3.135   0.050   4.270  0.00  0.00    +0.051 A 
ATOM     40 CL   UNL     1       1.924   0.975   5.101  0.00  0.00    -0.083 Cl
ENDBRANCH  32  34
ENDBRANCH  21  32
TORSDOF 3
