REMARK  Name = ZINC04852910
REMARK  4 active torsions:
REMARK  status: ('A' for Active; 'I' for Inactive)
REMARK    1  A    between atoms: C_1  and  C_2
REMARK    2  A    between atoms: C_10  and  O_13
REMARK    3  A    between atoms: O_13  and  C_14
REMARK    4  A    between atoms: N_19  and  C_20
REMARK                            x       y       z     vdW  Elec       q    Type
REMARK                         _______ _______ _______ _____ _____    ______ ____
ROOT
ATOM      1  C   UNL     1       2.114   3.045  -1.863  0.00  0.00    +0.079 C 
ATOM      2  C   UNL     1       1.157   3.137  -0.672  0.00  0.00    +0.185 C 
ATOM      3  C   UNL     1      -0.187   3.712  -1.142  0.00  0.00    +0.096 C 
ATOM      4  C   UNL     1      -1.143   3.659   0.053  0.00  0.00    +0.114 C 
ATOM      5  C   UNL     1      -0.485   4.371   1.214  0.00  0.00    +0.019 A 
ATOM      6  C   UNL     1      -1.282   4.889   2.220  0.00  0.00    +0.024 A 
ATOM      7  C   UNL     1      -0.710   5.537   3.298  0.00  0.00    +0.022 A 
ATOM      8  C   UNL     1       0.665   5.669   3.374  0.00  0.00    +0.064 A 
ATOM      9  C   UNL     1       1.466   5.155   2.369  0.00  0.00    +0.163 A 
ATOM     10  C   UNL     1       0.888   4.502   1.278  0.00  0.00    +0.170 A 
ATOM     11  O   UNL     1       1.705   4.015   0.308  0.00  0.00    -0.464 OA
ATOM     12 BR   UNL     1      -1.805   6.244   4.668  0.00  0.00    -0.050 Br
ATOM     13  N   UNL     1      -1.298   2.248   0.444  0.00  0.00    -0.292 N 
ATOM     14  C   UNL     1      -0.245   1.416   0.368  0.00  0.00    +0.310 C 
ATOM     15  O   UNL     1      -0.377   0.269   0.749  0.00  0.00    -0.252 OA
ATOM     16  N   UNL     1       0.945   1.804  -0.116  0.00  0.00    -0.216 N 
ATOM     17  H   UNL     1      -2.157   1.919   0.749  0.00  0.00    +0.151 HD
ENDROOT
BRANCH  16  18
ATOM     18  C   UNL     1       2.015   0.902  -0.088  0.00  0.00    +0.041 A 
ATOM     19  C   UNL     1       2.937   0.950   0.949  0.00  0.00    +0.024 A 
ATOM     20  C   UNL     1       3.989   0.056   0.977  0.00  0.00    +0.002 A 
ATOM     21  C   UNL     1       4.130  -0.879  -0.032  0.00  0.00    +0.000 A 
ATOM     22  C   UNL     1       3.217  -0.926  -1.069  0.00  0.00    +0.002 A 
ATOM     23  C   UNL     1       2.159  -0.038  -1.099  0.00  0.00    +0.024 A 
ENDBRANCH  16  18
BRANCH   9  24
ATOM     24  O   UNL     1       2.818   5.285   2.445  0.00  0.00    -0.491 OA
ATOM     25  C   UNL     1       3.341   5.964   3.588  0.00  0.00    +0.277 C 
ENDBRANCH   9  24
TORSDOF 2
