REMARK  Name = ZINC02724117
REMARK  6 active torsions:
REMARK  status: ('A' for Active; 'I' for Inactive)
REMARK    1  A    between atoms: C_1  and  C_2
REMARK    2  A    between atoms: C_8  and  C_21
REMARK    3  A    between atoms: C_15  and  C_17
REMARK    4  A    between atoms: C_17  and  C_18
REMARK    5  A    between atoms: C_18  and  C_19
REMARK    6  A    between atoms: C_18  and  C_20
REMARK                            x       y       z     vdW  Elec       q    Type
REMARK                         _______ _______ _______ _____ _____    ______ ____
ROOT
ATOM      1  C   UNL     1      -5.149  -1.626   3.106  0.00  0.00    +0.044 C 
ATOM      2  C   UNL     1      -4.448  -0.324   2.814  0.00  0.00    -0.050 A 
ATOM      3  C   UNL     1      -4.488   0.711   3.731  0.00  0.00    +0.005 A 
ATOM      4  C   UNL     1      -3.845   1.891   3.453  0.00  0.00    +0.024 A 
ATOM      5  C   UNL     1      -3.141   2.077   2.250  0.00  0.00    +0.039 A 
ATOM      6  C   UNL     1      -3.108   1.041   1.340  0.00  0.00    -0.001 A 
ATOM      7  C   UNL     1      -3.763  -0.154   1.633  0.00  0.00    +0.011 A 
ATOM      8  C   UNL     1      -2.404   1.094   0.019  0.00  0.00    +0.139 C 
ATOM      9  N   UNL     1      -1.190   1.865   0.017  0.00  0.00    -0.282 N 
ATOM     10  C   UNL     1      -1.165   3.318   0.029  0.00  0.00    +0.204 C 
ATOM     11  C   UNL     1      -1.629   3.835   1.346  0.00  0.00    +0.235 C 
ATOM     12  O   UNL     1      -1.103   4.850   1.750  0.00  0.00    -0.274 OA
ATOM     13  N   UNL     1      -2.542   3.306   2.109  0.00  0.00    -0.284 N 
ATOM     14  C   UNL     1      -0.014   1.206   0.007  0.00  0.00    +0.217 C 
ATOM     15  O   UNL     1       0.001  -0.006   0.002  0.00  0.00    -0.276 OA
ATOM     16  H   UNL     1      -2.892   3.949   2.746  0.00  0.00    +0.155 HD
ENDROOT
BRANCH   8  17
ATOM     17  C   UNL     1      -3.346   1.683  -0.999  0.00  0.00    -0.022 A 
ATOM     18  C   UNL     1      -3.852   2.956  -0.817  0.00  0.00    +0.008 A 
ATOM     19  C   UNL     1      -4.711   3.499  -1.753  0.00  0.00    +0.038 A 
ATOM     20  C   UNL     1      -5.074   2.763  -2.869  0.00  0.00    +0.123 A 
ATOM     21  C   UNL     1      -4.570   1.486  -3.047  0.00  0.00    +0.038 A 
ATOM     22  C   UNL     1      -3.707   0.947  -2.113  0.00  0.00    +0.008 A 
ATOM     23  F   UNL     1      -5.919   3.291  -3.781  0.00  0.00    -0.205 F 
ENDBRANCH   8  17
BRANCH  14  24
ATOM     24  C   UNL     1       1.281   1.976  -0.002  0.00  0.00    +0.099 C 
BRANCH  24  25
ATOM     25  C   UNL     1       2.457   0.997  -0.019  0.00  0.00    -0.008 C 
ATOM     26  C   UNL     1       3.767   1.775  -0.154  0.00  0.00    +0.008 C 
ATOM     27  C   UNL     1       2.471   0.196   1.285  0.00  0.00    +0.008 C 
ENDBRANCH  24  25
ENDBRANCH  14  24
TORSDOF 3
