REMARK  Name = ZINC03669141
REMARK  9 active torsions:
REMARK  status: ('A' for Active; 'I' for Inactive)
REMARK    1  A    between atoms: C_1  and  C_2
REMARK    2  A    between atoms: C_2  and  C_3
REMARK    3  A    between atoms: C_3  and  C_4
REMARK    4  A    between atoms: C_4  and  C_5
REMARK    5  A    between atoms: C_8  and  O_11
REMARK    6  A    between atoms: O_11  and  C_12
REMARK    7  A    between atoms: C_12  and  C_13
REMARK    8  A    between atoms: N_15  and  N_16
REMARK    9  A    between atoms: C_17  and  C_19
REMARK                            x       y       z     vdW  Elec       q    Type
REMARK                         _______ _______ _______ _____ _____    ______ ____
ROOT
ATOM      1  C   UNL     1      -2.519   5.587   0.044  0.00  0.00    +0.267 C 
ATOM      2  O   UNL     1      -1.471   6.197   0.043  0.00  0.00    -0.271 OA
ATOM      3  N   UNL     1      -2.515   4.240   0.037  0.00  0.00    -0.231 N 
ATOM      4  H   UNL     1      -3.354   3.752   0.038  0.00  0.00    +0.173 HD
ENDROOT
BRANCH   3   5
ATOM      5  N   UNL     1      -1.300   3.543   0.028  0.00  0.00    -0.230 N 
ATOM      6  C   UNL     1      -1.296   2.195   0.020  0.00  0.00    +0.267 C 
ATOM      7  O   UNL     1      -2.347   1.584   0.022  0.00  0.00    -0.268 OA
ATOM      8  H   UNL     1      -0.461   4.031   0.026  0.00  0.00    +0.173 HD
BRANCH   6   9
ATOM      9  C   UNL     1      -0.018   1.463   0.010  0.00  0.00    +0.123 A 
ATOM     10  C   UNL     1       1.186   2.147   0.002  0.00  0.00    +0.031 A 
ATOM     11  C   UNL     1       2.392   1.401  -0.014  0.00  0.00    +0.019 A 
ATOM     12  C   UNL     1       3.630   2.062  -0.022  0.00  0.00    +0.026 A 
ATOM     13  C   UNL     1       4.787   1.338  -0.037  0.00  0.00    +0.019 A 
ATOM     14  C   UNL     1       4.749  -0.050  -0.044  0.00  0.00    +0.019 A 
ATOM     15  C   UNL     1       3.544  -0.720  -0.036  0.00  0.00    +0.048 A 
ATOM     16  C   UNL     1       2.351  -0.004  -0.021  0.00  0.00    +0.139 A 
ATOM     17  O   UNL     1       1.173  -0.663  -0.013  0.00  0.00    -0.422 OA
ATOM     18  C   UNL     1       0.002  -0.004   0.002  0.00  0.00    +0.350 A 
ATOM     19  O   UNL     1      -1.044  -0.625   0.008  0.00  0.00    -0.244 OA
ATOM     20 BR   UNL     1       6.454   2.232  -0.048  0.00  0.00    -0.050 Br
ENDBRANCH   6   9
ENDBRANCH   3   5
BRANCH   1  21
ATOM     21  C   UNL     1      -3.827   6.337   0.055  0.00  0.00    +0.326 C 
BRANCH  21  22
ATOM     22  O   UNL     1      -3.570   7.742   0.061  0.00  0.00    -0.483 OA
BRANCH  22  26
ATOM     23  C   UNL     1      -6.850  10.245   0.090  0.00  0.00    -0.047 A 
ATOM     24  C   UNL     1      -5.574  10.779   0.087  0.00  0.00    +0.007 A 
ATOM     25  C   UNL     1      -4.474   9.943   0.077  0.00  0.00    +0.046 A 
ATOM     26  C   UNL     1      -4.651   8.567   0.071  0.00  0.00    +0.121 A 
ATOM     27  C   UNL     1      -5.931   8.034   0.068  0.00  0.00    +0.046 A 
ATOM     28  C   UNL     1      -7.028   8.874   0.084  0.00  0.00    +0.007 A 
BRANCH  23  29
ATOM     29  C   UNL     1      -8.048  11.159   0.101  0.00  0.00    +0.035 C 
BRANCH  29  30
ATOM     30  C   UNL     1      -8.460  11.476  -1.338  0.00  0.00    +0.004 C 
BRANCH  30  32
ATOM     31  C   UNL     1     -10.089  12.722  -2.766  0.00  0.00    +0.004 C 
ATOM     32  C   UNL     1      -9.677  12.405  -1.327  0.00  0.00    -0.003 C 
ENDBRANCH  30  32
ENDBRANCH  29  30
ENDBRANCH  23  29
ENDBRANCH  22  26
ENDBRANCH  21  22
ENDBRANCH   1  21
TORSDOF 8
