REMARK  Name = ZINC12558888
REMARK  8 active torsions:
REMARK  status: ('A' for Active; 'I' for Inactive)
REMARK    1  A    between atoms: C_4  and  C_7
REMARK    2  A    between atoms: C_7  and  N_8
REMARK    3  A    between atoms: C_12  and  C_29
REMARK    4  A    between atoms: C_14  and  C_22
REMARK    5  A    between atoms: C_16  and  C_17
REMARK    6  A    between atoms: C_16  and  O_21
REMARK    7  A    between atoms: C_22  and  C_24
REMARK    8  A    between atoms: C_32  and  O_35
REMARK                            x       y       z     vdW  Elec       q    Type
REMARK                         _______ _______ _______ _____ _____    ______ ____
ROOT
ATOM      1  N   UNL     1       2.090   0.100   0.791  0.00  0.00    -0.245 N 
ATOM      2  C   UNL     1       2.238   1.384   0.435  0.00  0.00    +0.305 C 
ATOM      3  O   UNL     1       3.361   1.846   0.370  0.00  0.00    -0.253 OA
ATOM      4  N   UNL     1       1.197   2.180   0.149  0.00  0.00    -0.292 N 
ATOM      5  C   UNL     1      -0.180   1.687   0.221  0.00  0.00    +0.120 C 
ATOM      6  C   UNL     1      -0.192   0.184  -0.074  0.00  0.00    +0.145 C 
ATOM      7  C   UNL     1       0.765  -0.512   0.900  0.00  0.00    +0.246 C 
ATOM      8  H   UNL     1       1.359   3.100  -0.112  0.00  0.00    +0.151 HD
ENDROOT
BRANCH   5   9
ATOM      9  C   UNL     1      -1.026   2.407  -0.797  0.00  0.00    -0.026 A 
ATOM     10  C   UNL     1      -0.510   2.688  -2.049  0.00  0.00    +0.009 A 
ATOM     11  C   UNL     1      -1.286   3.343  -2.986  0.00  0.00    +0.046 A 
ATOM     12  C   UNL     1      -2.580   3.728  -2.666  0.00  0.00    +0.117 A 
ATOM     13  C   UNL     1      -3.093   3.450  -1.408  0.00  0.00    +0.046 A 
ATOM     14  C   UNL     1      -2.316   2.789  -0.477  0.00  0.00    +0.009 A 
BRANCH  12  15
ATOM     15  O   UNL     1      -3.343   4.378  -3.584  0.00  0.00    -0.507 OA
ATOM     16  H   UNL     1      -3.259   5.341  -3.554  0.00  0.00    +0.292 HD
ENDBRANCH  12  15
ENDBRANCH   5   9
BRANCH   7  17
ATOM     17  C   UNL     1       0.858  -1.999   0.552  0.00  0.00    +0.436 C 
ATOM     18  F   UNL     1       1.496  -2.149  -0.684  0.00  0.00    -0.166 F 
ATOM     19  F   UNL     1       1.591  -2.665   1.540  0.00  0.00    -0.166 F 
ATOM     20  F   UNL     1      -0.430  -2.543   0.481  0.00  0.00    -0.166 F 
ENDBRANCH   7  17
BRANCH   7  21
ATOM     21  O   UNL     1       0.278  -0.363   2.236  0.00  0.00    -0.364 OA
ATOM     22  H   UNL     1       0.836  -0.780   2.907  0.00  0.00    +0.212 HD
ENDBRANCH   7  21
BRANCH   6  23
ATOM     23  C   UNL     1       0.263  -0.058  -1.490  0.00  0.00    +0.180 C 
ATOM     24  O   UNL     1       1.427  -0.319  -1.717  0.00  0.00    -0.291 OA
BRANCH  23  25
ATOM     25  C   UNL     1      -0.664   0.018  -2.552  0.00  0.00    +0.055 A 
ATOM     26  C   UNL     1      -0.452  -0.163  -3.916  0.00  0.00    +0.019 A 
ATOM     27  C   UNL     1      -1.542  -0.034  -4.737  0.00  0.00    +0.008 A 
ATOM     28  C   UNL     1      -2.752   0.270  -4.194  0.00  0.00    +0.046 A 
ATOM     29  S   UNL     1      -2.410   0.379  -2.498  0.00  0.00    -0.094 S 
ENDBRANCH  23  25
ENDBRANCH   6  23
BRANCH   1  30
ATOM     30  C   UNL     1       3.279  -0.708   1.076  0.00  0.00    +0.147 C 
BRANCH  30  34
ATOM     31  C   UNL     1       4.562   0.013   5.086  0.00  0.00    +0.000 A 
ATOM     32  C   UNL     1       3.774  -1.086   4.800  0.00  0.00    +0.000 A 
ATOM     33  C   UNL     1       3.358  -1.319   3.502  0.00  0.00    +0.005 A 
ATOM     34  C   UNL     1       3.731  -0.453   2.491  0.00  0.00    -0.030 A 
ATOM     35  C   UNL     1       4.524   0.642   2.777  0.00  0.00    +0.005 A 
ATOM     36  C   UNL     1       4.936   0.878   4.075  0.00  0.00    +0.000 A 
ENDBRANCH  30  34
ENDBRANCH   1  30
TORSDOF 8
