REMARK  Name = ZINC32099680
REMARK  5 active torsions:
REMARK  status: ('A' for Active; 'I' for Inactive)
REMARK    1  A    between atoms: C_4  and  C_25
REMARK    2  A    between atoms: C_7  and  C_15
REMARK    3  A    between atoms: C_9  and  C_11
REMARK    4  A    between atoms: C_15  and  C_17
REMARK    5  A    between atoms: C_15  and  O_24
REMARK                            x       y       z     vdW  Elec       q    Type
REMARK                         _______ _______ _______ _____ _____    ______ ____
ROOT
ATOM      1  C   UNL     1      -4.437   5.304   0.653  0.00  0.00    +0.030 A 
ATOM      2  C   UNL     1      -5.777   5.406   0.877  0.00  0.00    +0.042 A 
ATOM      3  C   UNL     1      -6.266   5.808   2.120  0.00  0.00    +0.034 A 
ATOM      4  C   UNL     1      -5.420   6.101   3.145  0.00  0.00    +0.082 A 
ATOM      5  C   UNL     1      -4.030   6.013   2.950  0.00  0.00    +0.084 A 
ATOM      6  C   UNL     1      -3.536   5.609   1.685  0.00  0.00    +0.008 A 
ATOM      7  C   UNL     1      -2.144   5.516   1.494  0.00  0.00    -0.010 A 
ATOM      8  C   UNL     1      -1.327   5.834   2.542  0.00  0.00    +0.039 A 
ATOM      9  C   UNL     1      -1.879   6.229   3.759  0.00  0.00    +0.145 A 
ATOM     10  N   UNL     1      -3.176   6.309   3.935  0.00  0.00    -0.242 NA
ATOM     11 CL   UNL     1      -6.891   5.030  -0.400  0.00  0.00    -0.084 Cl
ENDROOT
BRANCH   9  12
ATOM     12  C   UNL     1      -0.961   6.575   4.902  0.00  0.00    +0.434 C 
ATOM     13  F   UNL     1      -0.654   7.939   4.858  0.00  0.00    -0.164 F 
ATOM     14  F   UNL     1      -1.594   6.279   6.114  0.00  0.00    -0.164 F 
ATOM     15  F   UNL     1       0.217   5.828   4.797  0.00  0.00    -0.164 F 
ENDBRANCH   9  12
BRANCH   4  16
ATOM     16  C   UNL     1      -5.970   6.534   4.480  0.00  0.00    +0.419 C 
ATOM     17  F   UNL     1      -7.368   6.543   4.426  0.00  0.00    -0.166 F 
ATOM     18  F   UNL     1      -5.547   5.641   5.470  0.00  0.00    -0.166 F 
ATOM     19  F   UNL     1      -5.506   7.818   4.781  0.00  0.00    -0.166 F 
ENDBRANCH   4  16
BRANCH   7  20
ATOM     20  C   UNL     1      -1.571   5.086   0.168  0.00  0.00    +0.131 C 
BRANCH  20  21
ATOM     21  C   UNL     1      -1.519   3.558   0.108  0.00  0.00    -0.038 C 
ATOM     22  C   UNL     1      -0.823   3.123  -1.184  0.00  0.00    -0.013 C 
ATOM     23  C   UNL     1      -0.755   1.594  -1.231  0.00  0.00    -0.003 C 
ATOM     24  C   UNL     1      -0.013   1.086   0.008  0.00  0.00    -0.019 C 
ATOM     25  C   UNL     1      -0.731   1.580   1.266  0.00  0.00    -0.082 C 
ATOM     26  N   UNL     1      -0.770   3.048   1.264  0.00  0.00    +0.383 N 
ATOM     27  H   UNL     1       0.262   3.427   1.228  0.00  0.00    -0.085 HD
ATOM     28  H   UNL     1      -1.253   3.387   2.192  0.00  0.00    -0.085 HD
ENDBRANCH  20  21
BRANCH  20  29
ATOM     29  O   UNL     1      -0.251   5.614   0.026  0.00  0.00    -0.389 OA
ATOM     30  H   UNL     1       0.330   5.404  -0.884  0.00  0.00    +0.210 HD
ENDBRANCH  20  29
ENDBRANCH   7  20
TORSDOF 5
