REMARK  Name = ZINC20729710
REMARK  11 active torsions:
REMARK  status: ('A' for Active; 'I' for Inactive)
REMARK    1  A    between atoms: C_1  and  C_2
REMARK    2  A    between atoms: C_5  and  C_34
REMARK    3  A    between atoms: C_6  and  N_8
REMARK    4  A    between atoms: N_8  and  C_9
REMARK    5  A    between atoms: C_9  and  N_11
REMARK    6  A    between atoms: N_11  and  C_12
REMARK    7  A    between atoms: N_11  and  C_19
REMARK    8  A    between atoms: C_12  and  C_13
REMARK    9  A    between atoms: C_19  and  C_20
REMARK   10  A    between atoms: C_23  and  C_26
REMARK   11  A    between atoms: C_26  and  C_27
REMARK                            x       y       z     vdW  Elec       q    Type
REMARK                         _______ _______ _______ _____ _____    ______ ____
ROOT
ATOM      1  N   UNL     1      -1.184   2.422   0.253  0.00  0.00    -0.302 N 
ENDROOT
BRANCH   1   2
ATOM      2  C   UNL     1      -0.017   1.749   0.262  0.00  0.00    +0.138 C 
ATOM      3  S   UNL     1       0.001   0.070   0.592  0.00  0.00    -0.018 S 
BRANCH   2   4
ATOM      4  N   UNL     1       1.137   2.397   0.004  0.00  0.00    -0.297 N 
ATOM      5  H   UNL     1       1.119   3.461  -0.277  0.00  0.00    +0.154 HD
BRANCH   4  11
ATOM      6  C   UNL     1       3.878  -1.539  -1.074  0.00  0.00    +0.044 C 
ATOM      7  C   UNL     1       3.713  -0.192  -0.419  0.00  0.00    -0.049 A 
ATOM      8  C   UNL     1       4.768   0.374   0.273  0.00  0.00    +0.004 A 
ATOM      9  C   UNL     1       4.621   1.610   0.876  0.00  0.00    +0.005 A 
ATOM     10  C   UNL     1       3.418   2.283   0.788  0.00  0.00    -0.029 A 
ATOM     11  C   UNL     1       2.356   1.718   0.094  0.00  0.00    +0.036 A 
ATOM     12  C   UNL     1       2.506   0.474  -0.505  0.00  0.00    +0.027 A 
ATOM     13  C   UNL     1       3.258   3.630   1.445  0.00  0.00    +0.045 C 
ENDBRANCH   4  11
ENDBRANCH   2   4
ENDBRANCH   1   2
BRANCH   1  14
ATOM     14  C   UNL     1      -1.199   3.860  -0.029  0.00  0.00    +0.142 C 
BRANCH  14  15
ATOM     15  C   UNL     1      -1.353   4.079  -1.512  0.00  0.00    -0.030 A 
ATOM     16  C   UNL     1      -0.232   4.172  -2.317  0.00  0.00    +0.005 A 
ATOM     17  C   UNL     1      -0.373   4.368  -3.678  0.00  0.00    +0.000 A 
ATOM     18  C   UNL     1      -1.634   4.480  -4.233  0.00  0.00    +0.000 A 
ATOM     19  C   UNL     1      -2.754   4.392  -3.428  0.00  0.00    +0.000 A 
ATOM     20  C   UNL     1      -2.614   4.191  -2.067  0.00  0.00    +0.005 A 
ENDBRANCH  14  15
ENDBRANCH   1  14
BRANCH   1  21
ATOM     21  C   UNL     1      -2.438   1.717   0.527  0.00  0.00    +0.160 C 
BRANCH  21  22
ATOM     22  C   UNL     1      -2.720   1.749   2.007  0.00  0.00    +0.034 A 
ATOM     23  C   UNL     1      -3.499   2.646   2.645  0.00  0.00    +0.024 A 
ATOM     24  C   UNL     1      -3.491   2.315   4.014  0.00  0.00    +0.023 A 
ATOM     25  C   UNL     1      -2.707   1.228   4.161  0.00  0.00    +0.021 A 
ATOM     26  N   UNL     1      -2.236   0.872   2.932  0.00  0.00    -0.360 N 
ATOM     27  H   UNL     1      -1.578   0.048   2.618  0.00  0.00    +0.165 HD
BRANCH  25  28
ATOM     28  C   UNL     1      -2.409   0.523   5.460  0.00  0.00    +0.089 C 
BRANCH  28  29
ATOM     29  C   UNL     1      -3.506  -0.467   5.757  0.00  0.00    -0.023 A 
ATOM     30  C   UNL     1      -3.319  -1.809   5.481  0.00  0.00    +0.005 A 
ATOM     31  C   UNL     1      -4.325  -2.717   5.753  0.00  0.00    +0.000 A 
ATOM     32  C   UNL     1      -5.518  -2.285   6.302  0.00  0.00    +0.001 A 
ATOM     33  C   UNL     1      -5.705  -0.944   6.579  0.00  0.00    +0.020 A 
ATOM     34  C   UNL     1      -4.697  -0.035   6.311  0.00  0.00    +0.045 A 
ATOM     35 CL   UNL     1      -4.929   1.649   6.666  0.00  0.00    -0.083 Cl
ENDBRANCH  28  29
ENDBRANCH  25  28
ENDBRANCH  21  22
ENDBRANCH   1  21
TORSDOF 9
