REMARK  Name = ZINC63375760
REMARK  4 active torsions:
REMARK  status: ('A' for Active; 'I' for Inactive)
REMARK    1  A    between atoms: C_1  and  C_2
REMARK    2  A    between atoms: C_16  and  C_19
REMARK    3  A    between atoms: C_19  and  C_20
REMARK    4  A    between atoms: N_31  and  C_34
REMARK                            x       y       z     vdW  Elec       q    Type
REMARK                         _______ _______ _______ _____ _____    ______ ____
ROOT
ATOM      1  C   UNL     1      -1.294   1.138   0.079  0.00  0.00    +0.046 C 
ATOM      2  C   UNL     1      -1.060  -0.351   0.106  0.00  0.00    -0.028 A 
ATOM      3  C   UNL     1      -1.141  -1.081  -1.061  0.00  0.00    +0.025 A 
ATOM      4  C   UNL     1      -0.925  -2.448  -1.046  0.00  0.00    +0.042 A 
ATOM      5  C   UNL     1      -0.628  -3.085   0.147  0.00  0.00    +0.027 A 
ATOM      6  C   UNL     1      -0.548  -2.360   1.314  0.00  0.00    +0.005 A 
ATOM      7  C   UNL     1      -0.756  -0.983   1.309  0.00  0.00    +0.042 A 
ATOM      8  N   UNL     1      -0.614  -0.469   2.600  0.00  0.00    -0.283 N 
ATOM      9  C   UNL     1      -0.316  -1.427   3.499  0.00  0.00    +0.243 C 
ATOM     10  O   UNL     1      -0.139  -1.274   4.689  0.00  0.00    -0.273 OA
ATOM     11  C   UNL     1      -0.257  -2.726   2.742  0.00  0.00    +0.136 C 
ATOM     12  C   UNL     1       1.122  -3.380   2.889  0.00  0.00    +0.123 C 
ATOM     13  C   UNL     1       0.933  -4.443   4.007  0.00  0.00    +0.107 C 
ATOM     14  C   UNL     1      -0.541  -4.304   4.441  0.00  0.00    +0.072 C 
ATOM     15  N   UNL     1      -1.228  -3.709   3.256  0.00  0.00    -0.295 NA
ATOM     16  C   UNL     1       1.135  -5.753   3.281  0.00  0.00    +0.232 C 
ATOM     17  O   UNL     1       1.064  -6.852   3.788  0.00  0.00    -0.274 OA
ATOM     18  N   UNL     1       1.403  -5.511   1.993  0.00  0.00    -0.210 N 
ATOM     19  C   UNL     1       1.430  -4.201   1.657  0.00  0.00    +0.233 C 
ATOM     20  O   UNL     1       1.659  -3.751   0.554  0.00  0.00    -0.274 OA
ATOM     21 CL   UNL     1      -1.028  -3.361  -2.519  0.00  0.00    -0.084 Cl
ATOM     22  H   UNL     1      -0.719   0.469   2.824  0.00  0.00    +0.155 HD
ATOM     23  H   UNL     1      -2.088  -3.259   3.531  0.00  0.00    +0.124 HD
ENDROOT
BRANCH  18  24
ATOM     24  C   UNL     1       1.646  -6.533   1.064  0.00  0.00    +0.044 A 
ATOM     25  C   UNL     1       0.623  -7.398   0.699  0.00  0.00    +0.024 A 
ATOM     26  C   UNL     1       0.865  -8.403  -0.216  0.00  0.00    +0.002 A 
ATOM     27  C   UNL     1       2.124  -8.549  -0.769  0.00  0.00    +0.000 A 
ATOM     28  C   UNL     1       3.145  -7.689  -0.407  0.00  0.00    +0.002 A 
ATOM     29  C   UNL     1       2.907  -6.678   0.503  0.00  0.00    +0.024 A 
ENDBRANCH  18  24
BRANCH  14  30
ATOM     30  C   UNL     1      -1.136  -5.679   4.751  0.00  0.00    +0.052 C 
BRANCH  30  31
ATOM     31  C   UNL     1      -2.534  -5.512   5.289  0.00  0.00    -0.040 C 
ATOM     32  C   UNL     1      -3.689  -5.576   4.588  0.00  0.00    -0.001 A 
ATOM     33  C   UNL     1      -3.978  -5.811   3.168  0.00  0.00    +0.010 A 
ATOM     34  C   UNL     1      -5.265  -5.817   2.754  0.00  0.00    +0.001 A 
ATOM     35  C   UNL     1      -6.327  -5.605   3.643  0.00  0.00    +0.002 A 
ATOM     36  C   UNL     1      -6.141  -5.383   4.962  0.00  0.00    +0.026 A 
ATOM     37  C   UNL     1      -4.828  -5.356   5.507  0.00  0.00    +0.043 A 
ATOM     38  N   UNL     1      -4.394  -5.163   6.729  0.00  0.00    -0.380 N 
ATOM     39  C   UNL     1      -2.929  -5.245   6.725  0.00  0.00    +0.144 C 
ATOM     40  H   UNL     1      -4.949  -4.997   7.508  0.00  0.00    +0.160 HD
ENDBRANCH  30  31
ENDBRANCH  14  30
TORSDOF 3
