REMARK  Name = ZINC35361886
REMARK  7 active torsions:
REMARK  status: ('A' for Active; 'I' for Inactive)
REMARK    1  A    between atoms: C_1  and  O_2
REMARK    2  A    between atoms: O_2  and  C_3
REMARK    3  A    between atoms: C_6  and  C_11
REMARK    4  A    between atoms: C_7  and  O_9
REMARK    5  A    between atoms: O_9  and  C_10
REMARK    6  A    between atoms: N_12  and  N_13
REMARK    7  A    between atoms: C_14  and  C_16
REMARK                            x       y       z     vdW  Elec       q    Type
REMARK                         _______ _______ _______ _____ _____    ______ ____
ROOT
ATOM      1  N   UNL     1      -6.259  -4.553   0.041  0.00  0.00    -0.206 N 
ATOM      2  C   UNL     1      -6.316  -5.899   0.040  0.00  0.00    +0.250 C 
ATOM      3  O   UNL     1      -5.291  -6.549   0.031  0.00  0.00    -0.272 OA
ATOM      4  H   UNL     1      -7.078  -4.033   0.048  0.00  0.00    +0.177 HD
ENDROOT
BRANCH   2   5
ATOM      5  C   UNL     1      -7.651  -6.598   0.049  0.00  0.00    +0.147 C 
ATOM      6  C   UNL     1      -8.210  -6.614   1.478  0.00  0.00    +0.065 C 
ATOM      7  C   UNL     1      -9.396  -7.546   1.503  0.00  0.00    -0.016 A 
ATOM      8  C   UNL     1     -10.438  -7.675   2.497  0.00  0.00    +0.003 A 
ATOM      9  C   UNL     1     -10.687  -7.017   3.705  0.00  0.00    +0.010 A 
ATOM     10  C   UNL     1     -11.800  -7.408   4.408  0.00  0.00    +0.001 A 
ATOM     11  C   UNL     1     -12.646  -8.406   3.952  0.00  0.00    +0.002 A 
ATOM     12  C   UNL     1     -12.424  -9.073   2.760  0.00  0.00    +0.026 A 
ATOM     13  C   UNL     1     -11.302  -8.698   2.025  0.00  0.00    +0.047 A 
ATOM     14  N   UNL     1     -10.799  -9.139   0.834  0.00  0.00    -0.357 N 
ATOM     15  H   UNL     1     -11.190  -9.838   0.287  0.00  0.00    +0.166 HD
ATOM     16  C   UNL     1      -9.659  -8.445   0.528  0.00  0.00    +0.034 A 
ATOM     17  C   UNL     1      -8.786  -8.615  -0.692  0.00  0.00    +0.135 C 
ATOM     18  N   UNL     1      -7.486  -7.978  -0.428  0.00  0.00    -0.300 NA
ATOM     19  H   UNL     1      -6.895  -8.010  -1.245  0.00  0.00    +0.123 HD
ENDBRANCH   2   5
BRANCH   1  21
ATOM     20  C   UNL     1      -4.964  -2.606   0.035  0.00  0.00    +0.142 C 
ATOM     21  N   UNL     1      -5.018  -3.904   0.033  0.00  0.00    -0.188 NA
BRANCH  20  25
ATOM     22  C   UNL     1      -1.200  -0.637   0.010  0.00  0.00    +0.124 A 
ATOM     23  C   UNL     1      -2.374   0.107   0.019  0.00  0.00    +0.046 A 
ATOM     24  C   UNL     1      -3.597  -0.528   0.027  0.00  0.00    +0.016 A 
ATOM     25  C   UNL     1      -3.658  -1.924   0.026  0.00  0.00    +0.036 A 
ATOM     26  C   UNL     1      -2.473  -2.672   0.016  0.00  0.00    +0.132 A 
ATOM     27  C   UNL     1      -1.250  -2.023   0.003  0.00  0.00    +0.091 A 
BRANCH  22  29
ATOM     28  C   UNL     1      -0.017   1.425   0.010  0.00  0.00    +0.277 C 
ATOM     29  O   UNL     1       0.002  -0.004   0.002  0.00  0.00    -0.495 OA
ENDBRANCH  22  29
BRANCH  26  30
ATOM     30  O   UNL     1      -2.524  -4.029   0.015  0.00  0.00    -0.494 OA
ATOM     31  C   UNL     1      -1.276  -4.725   0.005  0.00  0.00    +0.277 C 
ENDBRANCH  26  30
ENDBRANCH  20  25
ENDBRANCH   1  21
TORSDOF 5
