REMARK  Name = ZINC41583761
REMARK  8 active torsions:
REMARK  status: ('A' for Active; 'I' for Inactive)
REMARK    1  A    between atoms: C_1  and  C_2
REMARK    2  A    between atoms: C_5  and  C_32
REMARK    3  A    between atoms: N_8  and  C_10
REMARK    4  A    between atoms: C_10  and  C_11
REMARK    5  A    between atoms: C_12  and  O_31
REMARK    6  A    between atoms: C_19  and  C_20
REMARK    7  A    between atoms: C_25  and  O_26
REMARK    8  A    between atoms: O_26  and  C_27
REMARK                            x       y       z     vdW  Elec       q    Type
REMARK                         _______ _______ _______ _____ _____    ______ ____
ROOT
ATOM      1  C   UNL     1       2.797  -1.564   1.507  0.00  0.00    +0.020 A 
ATOM      2  C   UNL     1       3.573  -2.131   0.509  0.00  0.00    +0.122 A 
ATOM      3  C   UNL     1       4.793  -1.563   0.152  0.00  0.00    +0.046 A 
ATOM      4  C   UNL     1       5.237  -0.436   0.785  0.00  0.00    +0.019 A 
ATOM      5  C   UNL     1       4.466   0.146   1.791  0.00  0.00    +0.068 A 
ATOM      6  C   UNL     1       3.231  -0.415   2.156  0.00  0.00    +0.144 A 
ATOM      7  O   UNL     1       2.670   0.321   3.140  0.00  0.00    -0.451 OA
ATOM      8  C   UNL     1       3.445   1.377   3.484  0.00  0.00    +0.176 C 
ATOM      9  C   UNL     1       3.163   2.303   4.436  0.00  0.00    +0.061 C 
ATOM     10  C   UNL     1       4.653   1.331   2.648  0.00  0.00    +0.231 C 
ATOM     11  O   UNL     1       5.594   2.107   2.652  0.00  0.00    -0.283 OA
ENDROOT
BRANCH   9  12
ATOM     12  C   UNL     1       4.175   3.295   4.817  0.00  0.00    +0.021 A 
ATOM     13  C   UNL     1       5.512   2.911   4.979  0.00  0.00    +0.027 A 
ATOM     14  C   UNL     1       6.456   3.849   5.337  0.00  0.00    +0.019 A 
ATOM     15  C   UNL     1       6.088   5.171   5.537  0.00  0.00    +0.019 A 
ATOM     16  C   UNL     1       4.773   5.564   5.380  0.00  0.00    +0.047 A 
ATOM     17  C   UNL     1       3.810   4.637   5.015  0.00  0.00    +0.127 A 
ATOM     18 BR   UNL     1       8.261   3.330   5.557  0.00  0.00    -0.050 Br
BRANCH  17  19
ATOM     19  O   UNL     1       2.518   5.023   4.855  0.00  0.00    -0.495 OA
ATOM     20  C   UNL     1       2.222   6.404   5.074  0.00  0.00    +0.277 C 
ENDBRANCH  17  19
ENDBRANCH   9  12
BRANCH   2  21
ATOM     21  O   UNL     1       3.141  -3.250  -0.125  0.00  0.00    -0.506 OA
ATOM     22  H   UNL     1       2.606  -3.075  -0.912  0.00  0.00    +0.292 HD
ENDBRANCH   2  21
BRANCH   1  23
ATOM     23  C   UNL     1       1.478  -2.189   1.883  0.00  0.00    -0.036 C 
BRANCH  23  29
ATOM     24  C   UNL     1      -0.926   1.927   0.769  0.00  0.00    +0.005 C 
ATOM     25  C   UNL     1      -0.784   0.438   0.446  0.00  0.00    -0.031 C 
ATOM     26  C   UNL     1      -2.125  -0.265   0.671  0.00  0.00    +0.003 C 
ATOM     27  C   UNL     1      -1.952  -1.766   0.421  0.00  0.00    -0.031 C 
ATOM     28  C   UNL     1      -0.853  -2.307   1.338  0.00  0.00    -0.075 C 
ATOM     29  N   UNL     1       0.409  -1.613   1.056  0.00  0.00    +0.383 N 
ATOM     30  C   UNL     1       0.273  -0.184   1.361  0.00  0.00    -0.075 C 
ATOM     31  C   UNL     1      -1.561  -1.998  -1.040  0.00  0.00    +0.005 C 
ATOM     32  H   UNL     1       0.643  -1.726   0.081  0.00  0.00    -0.081 HD
ENDBRANCH  23  29
ENDBRANCH   1  23
TORSDOF 5
