REMARK  Name = ZINC07153835
REMARK  6 active torsions:
REMARK  status: ('A' for Active; 'I' for Inactive)
REMARK    1  A    between atoms: C_1  and  C_2
REMARK    2  A    between atoms: C_2  and  N_3
REMARK    3  A    between atoms: C_11  and  S_12
REMARK    4  A    between atoms: S_12  and  C_13
REMARK    5  A    between atoms: C_13  and  C_14
REMARK    6  A    between atoms: C_20  and  C_23
REMARK                            x       y       z     vdW  Elec       q    Type
REMARK                         _______ _______ _______ _____ _____    ______ ____
ROOT
ATOM      1  S   UNL     1       1.651  -1.313  -5.414  0.00  0.00    -0.081 S 
ENDROOT
BRANCH   1  10
ATOM      2  N   UNL     1       2.296  -1.251  -8.120  0.00  0.00    -0.319 N 
ATOM      3  C   UNL     1       1.643  -1.236  -9.341  0.00  0.00    +0.069 A 
ATOM      4  C   UNL     1       2.072  -1.204 -10.660  0.00  0.00    +0.028 A 
ATOM      5  C   UNL     1       1.146  -1.197 -11.683  0.00  0.00    +0.002 A 
ATOM      6  C   UNL     1      -0.212  -1.220 -11.401  0.00  0.00    +0.002 A 
ATOM      7  C   UNL     1      -0.655  -1.252 -10.098  0.00  0.00    +0.030 A 
ATOM      8  C   UNL     1       0.269  -1.260  -9.051  0.00  0.00    +0.090 A 
ATOM      9  N   UNL     1       0.147  -1.293  -7.698  0.00  0.00    -0.222 NA
ATOM     10  C   UNL     1       1.336  -1.283  -7.148  0.00  0.00    +0.170 A 
BRANCH   2  12
ATOM     11  C   UNL     1       4.270  -2.672  -7.863  0.00  0.00    +0.027 C 
ATOM     12  C   UNL     1       3.746  -1.235  -7.909  0.00  0.00    +0.121 C 
ENDBRANCH   2  12
ENDBRANCH   1  10
BRANCH   1  13
ATOM     13  C   UNL     1      -0.047  -1.347  -4.788  0.00  0.00    +0.134 C 
BRANCH  13  14
ATOM     14  C   UNL     1      -0.026  -1.377  -3.281  0.00  0.00    +0.070 A 
ATOM     15  C   UNL     1       0.011  -2.489  -2.515  0.00  0.00    +0.116 A 
ATOM     16  N   UNL     1       0.018  -2.080  -1.209  0.00  0.00    -0.306 N 
ATOM     17  C   UNL     1       0.038  -2.763  -0.028  0.00  0.00    +0.093 A 
ATOM     18  C   UNL     1       0.041  -2.102   1.149  0.00  0.00    +0.018 A 
ATOM     19  C   UNL     1       0.023  -0.697   1.172  0.00  0.00    +0.008 A 
ATOM     20  C   UNL     1       0.002  -0.004   0.002  0.00  0.00    -0.008 A 
ATOM     21  C   UNL     1      -0.006  -0.709  -1.218  0.00  0.00    +0.141 A 
ATOM     22  N   UNL     1      -0.029  -0.308  -2.481  0.00  0.00    -0.232 NA
ATOM     23  C   UNL     1      -0.018   1.503   0.010  0.00  0.00    +0.047 C 
ENDBRANCH  13  14
ENDBRANCH   1  13
TORSDOF 4
