REMARK  Name = ZINC50986577
REMARK  5 active torsions:
REMARK  status: ('A' for Active; 'I' for Inactive)
REMARK    1  A    between atoms: C_1  and  C_2
REMARK    2  A    between atoms: C_2  and  C_3
REMARK    3  A    between atoms: C_3  and  N_4
REMARK    4  A    between atoms: C_5  and  C_18
REMARK    5  A    between atoms: C_7  and  C_10
REMARK                            x       y       z     vdW  Elec       q    Type
REMARK                         _______ _______ _______ _____ _____    ______ ____
ROOT
ATOM      1  N   UNL     1       0.762  -1.976   1.234  0.00  0.00    -0.279 N 
ATOM      2  C   UNL     1       1.737  -2.742   0.660  0.00  0.00    +0.073 C 
ATOM      3  N   UNL     1       1.531  -4.006   0.785  0.00  0.00    -0.363 N 
ATOM      4  C   UNL     1       0.275  -4.195   1.526  0.00  0.00    +0.175 C 
ATOM      5  C   UNL     1      -0.197  -2.782   1.808  0.00  0.00    +0.101 C 
ATOM      6  N   UNL     1      -1.262  -2.415   2.442  0.00  0.00    -0.388 N 
ATOM      7  C   UNL     1       2.935  -2.164  -0.048  0.00  0.00    +0.081 C 
ATOM      8  H   UNL     1      -1.458  -1.472   2.556  0.00  0.00    +0.157 HD
ATOM      9  H   UNL     1      -1.865  -3.083   2.804  0.00  0.00    +0.157 HD
ATOM     10  H   UNL     1       2.105  -4.711   0.448  0.00  0.00    +0.162 HD
ENDROOT
BRANCH   4  11
ATOM     11  C   UNL     1      -0.730  -4.936   0.682  0.00  0.00    +0.018 A 
ATOM     12  C   UNL     1      -0.567  -5.002  -0.689  0.00  0.00    +0.024 A 
ATOM     13  C   UNL     1      -1.490  -5.682  -1.463  0.00  0.00    +0.018 A 
ATOM     14  C   UNL     1      -2.576  -6.296  -0.866  0.00  0.00    +0.018 A 
ATOM     15  C   UNL     1      -2.741  -6.230   0.504  0.00  0.00    +0.040 A 
ATOM     16  C   UNL     1      -1.815  -5.555   1.281  0.00  0.00    +0.129 A 
ATOM     17  F   UNL     1      -1.972  -5.495   2.621  0.00  0.00    -0.205 F 
ATOM     18 BR   UNL     1      -1.266  -5.771  -3.339  0.00  0.00    -0.050 Br
ENDBRANCH   4  11
BRANCH   1  19
ATOM     19  C   UNL     1       0.742  -0.511   1.242  0.00  0.00    +0.113 C 
BRANCH  19  21
ATOM     20  C   UNL     1      -0.019   1.526   0.010  0.00  0.00    +0.005 C 
ATOM     21  C   UNL     1       0.002  -0.004   0.002  0.00  0.00    +0.016 C 
ENDBRANCH  19  21
ENDBRANCH   1  19
TORSDOF 3
