REMARK  Name = ZINC17002238
REMARK  4 active torsions:
REMARK  status: ('A' for Active; 'I' for Inactive)
REMARK    1  A    between atoms: C_1  and  C_2
REMARK    2  A    between atoms: C_5  and  N_77
REMARK    3  A    between atoms: C_16  and  C_30
REMARK    4  A    between atoms: C_21  and  N_22
REMARK                            x       y       z     vdW  Elec       q    Type
REMARK                         _______ _______ _______ _____ _____    ______ ____
ROOT
ATOM      1  C   UNL     1       2.085   2.857  -7.469  0.00  0.00    +0.016 C 
ATOM      2  C   UNL     1       2.332   3.745  -6.247  0.00  0.00    -0.004 C 
ATOM      3  C   UNL     1       3.645   3.287  -5.608  0.00  0.00    +0.017 C 
ATOM      4  C   UNL     1       3.567   1.782  -5.348  0.00  0.00    +0.050 C 
ATOM      5  C   UNL     1       2.309   1.413  -4.623  0.00  0.00    -0.009 C 
ATOM      6  C   UNL     1       1.217   2.178  -4.590  0.00  0.00    +0.021 C 
ATOM      7  C   UNL     1       1.220   3.488  -5.274  0.00  0.00    -0.044 C 
ATOM      8  C   UNL     1       0.296   4.349  -4.945  0.00  0.00    -0.022 C 
ATOM      9  C   UNL     1       0.312   5.742  -5.519  0.00  0.00    +0.031 C 
ATOM     10  C   UNL     1       1.777   6.147  -5.726  0.00  0.00    +0.001 C 
ATOM     11  C   UNL     1       2.406   5.173  -6.730  0.00  0.00    +0.003 C 
ATOM     12  C   UNL     1       3.844   5.562  -7.053  0.00  0.00    +0.005 C 
ATOM     13  C   UNL     1       3.938   7.024  -7.560  0.00  0.00    +0.015 C 
ATOM     14  C   UNL     1       3.364   7.880  -6.453  0.00  0.00    +0.034 C 
ATOM     15  C   UNL     1       1.852   7.533  -6.336  0.00  0.00    +0.011 C 
ATOM     16  C   UNL     1       1.400   8.695  -5.442  0.00  0.00    +0.044 C 
ATOM     17  C   UNL     1       2.194   9.870  -6.014  0.00  0.00    +0.009 C 
ATOM     18  C   UNL     1       1.843  11.176  -5.934  0.00  0.00    +0.077 C 
ATOM     19  C   UNL     1       3.360   9.363  -6.643  0.00  0.00    +0.167 C 
ATOM     20  O   UNL     1       4.203  10.015  -7.228  0.00  0.00    -0.292 OA
ATOM     21  C   UNL     1       4.063   7.540  -5.135  0.00  0.00    +0.020 C 
ENDROOT
BRANCH   5  27
ATOM     22  C   UNL     1       1.133  -0.147  -3.099  0.00  0.00    +0.085 C 
ATOM     23  C   UNL     1       0.588  -1.510  -3.539  0.00  0.00    +0.017 C 
ATOM     24  C   UNL     1       1.723  -2.537  -3.526  0.00  0.00    +0.003 C 
ATOM     25  C   UNL     1       2.811  -2.110  -4.513  0.00  0.00    +0.017 C 
ATOM     26  C   UNL     1       3.381  -0.754  -4.084  0.00  0.00    +0.085 C 
ATOM     27  N   UNL     1       2.111   0.052  -4.235  0.00  0.00    -0.396 NA
ATOM     28  H   UNL     1       1.642  -0.363  -5.050  0.00  0.00    +0.126 HD
ENDBRANCH   5  27
BRANCH  18  29
ATOM     29  N   UNL     1       2.720  12.143  -6.327  0.00  0.00    -0.335 N 
ATOM     30  C   UNL     1       2.250  13.325  -7.061  0.00  0.00    +0.104 C 
ATOM     31  C   UNL     1       2.737  14.583  -6.325  0.00  0.00    +0.019 C 
ATOM     32  C   UNL     1       4.256  14.511  -6.156  0.00  0.00    +0.003 C 
ATOM     33  C   UNL     1       4.620  13.288  -5.311  0.00  0.00    +0.019 C 
ATOM     34  C   UNL     1       4.153  12.019  -6.031  0.00  0.00    +0.104 C 
ENDBRANCH  18  29
TORSDOF 2
