REMARK  Name = ZINC21728074
REMARK  8 active torsions:
REMARK  status: ('A' for Active; 'I' for Inactive)
REMARK    1  A    between atoms: C_1  and  C_2
REMARK    2  A    between atoms: C_2  and  C_4
REMARK    3  A    between atoms: C_2  and  O_13
REMARK    4  A    between atoms: N_6  and  C_7
REMARK    5  A    between atoms: O_13  and  C_14
REMARK    6  A    between atoms: C_14  and  C_16
REMARK    7  A    between atoms: N_19  and  S_22
REMARK    8  A    between atoms: S_22  and  C_25
REMARK                            x       y       z     vdW  Elec       q    Type
REMARK                         _______ _______ _______ _____ _____    ______ ____
ROOT
ATOM      1  C   UNL     1       2.814  -1.159   2.225  0.00  0.00    +0.100 C 
ATOM      2  C   UNL     1       2.675  -0.172   3.386  0.00  0.00    +0.032 C 
ATOM      3  C   UNL     1       3.457  -0.699   4.594  0.00  0.00    +0.110 C 
ATOM      4  N   UNL     1       4.844  -0.957   4.184  0.00  0.00    -0.177 NA
ATOM      5  C   UNL     1       5.087  -1.820   3.020  0.00  0.00    +0.110 C 
ATOM      6  C   UNL     1       4.287  -1.282   1.830  0.00  0.00    +0.032 C 
ENDROOT
BRANCH   4   7
ATOM      7  S   UNL     1       6.109  -0.286   5.016  0.00  0.00    +0.061 S 
ATOM      8  O   UNL     1       7.206  -0.234   4.115  0.00  0.00    -0.153 OA
ATOM      9  O   UNL     1       5.600   0.872   5.665  0.00  0.00    -0.153 OA
BRANCH   7  10
ATOM     10  C   UNL     1       6.555  -1.421   6.288  0.00  0.00    +0.106 A 
ATOM     11  C   UNL     1       5.955  -1.340   7.531  0.00  0.00    +0.029 A 
ATOM     12  C   UNL     1       6.312  -2.230   8.523  0.00  0.00    +0.006 A 
ATOM     13  C   UNL     1       7.269  -3.208   8.283  0.00  0.00    -0.044 A 
ATOM     14  C   UNL     1       7.862  -3.292   7.043  0.00  0.00    -0.042 A 
ATOM     15  C   UNL     1       7.500  -2.396   6.045  0.00  0.00    +0.032 A 
ATOM     16  C   UNL     1       8.894  -4.336   6.707  0.00  0.00    +0.035 C 
ATOM     17  C   UNL     1       9.480  -4.942   7.981  0.00  0.00    +0.005 C 
ATOM     18  C   UNL     1       8.321  -5.388   8.881  0.00  0.00    +0.005 C 
ATOM     19  C   UNL     1       7.617  -4.142   9.412  0.00  0.00    +0.035 C 
ENDBRANCH   7  10
ENDBRANCH   4   7
BRANCH   1  20
ATOM     20  C   UNL     1       2.018  -0.662   1.046  0.00  0.00    +0.311 C 
ATOM     21  O   UNL     1       2.572  -0.429  -0.002  0.00  0.00    -0.251 OA
BRANCH  20  22
ATOM     22  O   UNL     1       0.693  -0.477   1.160  0.00  0.00    -0.452 OA
BRANCH  22  24
ATOM     23  C   UNL     1      -0.019   1.526   0.010  0.00  0.00    +0.062 C 
ATOM     24  C   UNL     1       0.002  -0.004   0.002  0.00  0.00    +0.258 C 
BRANCH  24  25
ATOM     25  C   UNL     1      -1.412  -0.526   0.013  0.00  0.00    +0.254 C 
ATOM     26  O   UNL     1      -1.818  -1.157   0.965  0.00  0.00    -0.272 OA
ATOM     27  N   UNL     1      -2.225  -0.290  -1.036  0.00  0.00    -0.309 N 
ATOM     28  H   UNL     1      -1.900   0.215  -1.798  0.00  0.00    +0.149 HD
BRANCH  27  29
ATOM     29  C   UNL     1      -3.599  -0.798  -1.026  0.00  0.00    +0.073 C 
ATOM     30  C   UNL     1      -3.613  -2.243  -1.527  0.00  0.00    +0.022 C 
ATOM     31  C   UNL     1      -5.049  -2.773  -1.516  0.00  0.00    +0.002 C 
ATOM     32  C   UNL     1      -5.918  -1.908  -2.430  0.00  0.00    +0.000 C 
ATOM     33  C   UNL     1      -5.904  -0.462  -1.929  0.00  0.00    +0.002 C 
ATOM     34  C   UNL     1      -4.469   0.068  -1.940  0.00  0.00    +0.022 C 
ENDBRANCH  27  29
ENDBRANCH  24  25
ENDBRANCH  22  24
ENDBRANCH  20  22
ENDBRANCH   1  20
TORSDOF 7
