REMARK  Name = ZINC66940365
REMARK  6 active torsions:
REMARK  status: ('A' for Active; 'I' for Inactive)
REMARK    1  A    between atoms: C_6  and  C_7
REMARK    2  A    between atoms: C_7  and  C_9
REMARK    3  A    between atoms: C_7  and  N_12
REMARK    4  A    between atoms: N_12  and  C_13
REMARK    5  A    between atoms: C_22  and  O_24
REMARK    6  A    between atoms: O_24  and  C_25
REMARK                            x       y       z     vdW  Elec       q    Type
REMARK                         _______ _______ _______ _____ _____    ______ ____
ROOT
ATOM      1  N   UNL     1      -1.681  -2.520  -0.353  0.00  0.00    +0.394 N 
ATOM      2  H   UNL     1      -1.971  -1.578  -0.138  0.00  0.00    -0.083 HD
ATOM      3  H   UNL     1      -1.817  -2.698  -1.337  0.00  0.00    -0.083 HD
ENDROOT
BRANCH   1   4
ATOM      4  C   UNL     1      -2.482  -3.470   0.431  0.00  0.00    -0.039 C 
ATOM      5  C   UNL     1      -2.146  -4.894  -0.006  0.00  0.00    -0.011 C 
ATOM      6  C   UNL     1      -3.139  -5.852   0.661  0.00  0.00    +0.003 C 
ATOM      7  C   UNL     1      -4.513  -5.639   0.029  0.00  0.00    +0.035 C 
ATOM      8  C   UNL     1      -4.879  -4.178   0.036  0.00  0.00    -0.042 A 
ATOM      9  C   UNL     1      -3.945  -3.182   0.216  0.00  0.00    -0.058 A 
ATOM     10  C   UNL     1      -4.347  -1.852   0.205  0.00  0.00    +0.006 A 
ATOM     11  C   UNL     1      -5.671  -1.519   0.018  0.00  0.00    +0.046 A 
ATOM     12  C   UNL     1      -6.613  -2.522  -0.161  0.00  0.00    +0.127 A 
ATOM     13  C   UNL     1      -6.213  -3.846  -0.150  0.00  0.00    +0.049 A 
BRANCH  12  14
ATOM     14  O   UNL     1      -7.922  -2.205  -0.344  0.00  0.00    -0.434 OA
BRANCH  14  15
ATOM     15  C   UNL     1      -8.260  -0.816  -0.342  0.00  0.00    +0.541 C 
ATOM     16  F   UNL     1      -7.905  -0.252   0.889  0.00  0.00    -0.166 F 
ATOM     17  F   UNL     1      -7.568  -0.166  -1.369  0.00  0.00    -0.166 F 
ENDBRANCH  14  15
ENDBRANCH  12  14
ENDBRANCH   1   4
BRANCH   1  18
ATOM     18  C   UNL     1      -0.261  -2.684  -0.017  0.00  0.00    +0.047 C 
BRANCH  18  24
ATOM     19  C   UNL     1       1.545  -0.961   0.172  0.00  0.00    +0.005 A 
ATOM     20  C   UNL     1       2.265   0.104  -0.336  0.00  0.00    +0.038 A 
ATOM     21  C   UNL     1       1.963   0.608  -1.589  0.00  0.00    +0.123 A 
ATOM     22  C   UNL     1       0.940   0.045  -2.333  0.00  0.00    +0.038 A 
ATOM     23  C   UNL     1       0.221  -1.020  -1.823  0.00  0.00    +0.005 A 
ATOM     24  C   UNL     1       0.524  -1.523  -0.572  0.00  0.00    -0.053 A 
ATOM     25  F   UNL     1       2.666   1.650  -2.086  0.00  0.00    -0.205 F 
ENDBRANCH  18  24
BRANCH  18  26
ATOM     26  C   UNL     1       0.252  -3.968  -0.616  0.00  0.00    +0.201 C 
ATOM     27  O   UNL     1      -0.185  -4.360  -1.677  0.00  0.00    -0.277 OA
ATOM     28  N   UNL     1       1.197  -4.682   0.028  0.00  0.00    -0.330 N 
ATOM     29  H   UNL     1       1.547  -4.369   0.877  0.00  0.00    +0.145 HD
ATOM     30  H   UNL     1       1.527  -5.508  -0.357  0.00  0.00    +0.145 HD
ENDBRANCH  18  26
ENDBRANCH   1  18
TORSDOF 6
