REMARK  Name = ZINC43327002
REMARK  8 active torsions:
REMARK  status: ('A' for Active; 'I' for Inactive)
REMARK    1  A    between atoms: C_1  and  C_2
REMARK    2  A    between atoms: C_2  and  C_3
REMARK    3  A    between atoms: C_2  and  C_4
REMARK    4  A    between atoms: C_2  and  O_5
REMARK    5  A    between atoms: O_5  and  C_6
REMARK    6  A    between atoms: C_12  and  N_15
REMARK    7  A    between atoms: N_15  and  C_16
REMARK    8  A    between atoms: C_21  and  O_24
REMARK                            x       y       z     vdW  Elec       q    Type
REMARK                         _______ _______ _______ _____ _____    ______ ____
ROOT
ATOM      1  C   UNL     1       1.952  -0.085  -1.337  0.00  0.00    +0.403 C 
ATOM      2  O   UNL     1       2.488   0.619  -0.503  0.00  0.00    -0.226 OA
ATOM      3  N   UNL     1       2.641  -0.485  -2.424  0.00  0.00    -0.269 N 
ATOM      4  C   UNL     1       2.005  -1.331  -3.443  0.00  0.00    +0.111 C 
ATOM      5  C   UNL     1       2.874  -2.573  -3.666  0.00  0.00    +0.018 C 
ATOM      6  C   UNL     1       4.300  -2.137  -4.011  0.00  0.00    -0.013 C 
ATOM      7  C   UNL     1       4.888  -1.339  -2.845  0.00  0.00    -0.054 C 
ATOM      8  C   UNL     1       4.040  -0.078  -2.616  0.00  0.00    +0.095 C 
ENDROOT
BRANCH   7   9
ATOM      9  N   UNL     1       6.268  -0.949  -3.164  0.00  0.00    +0.384 N 
ATOM     10  H   UNL     1       6.803  -1.771  -3.399  0.00  0.00    -0.085 HD
ATOM     11  H   UNL     1       6.265  -0.313  -3.947  0.00  0.00    -0.085 HD
BRANCH   9  12
ATOM     12  C   UNL     1       6.871  -0.287  -1.999  0.00  0.00    -0.069 C 
ATOM     13  C   UNL     1       6.989  -1.288  -0.848  0.00  0.00    -0.016 C 
ATOM     14  C   UNL     1       7.617  -0.599   0.365  0.00  0.00    +0.001 C 
ATOM     15  C   UNL     1       9.009  -0.083  -0.006  0.00  0.00    +0.031 C 
ATOM     16  C   UNL     1       8.891   0.919  -1.157  0.00  0.00    +0.113 C 
ATOM     17  C   UNL     1       8.262   0.230  -2.370  0.00  0.00    +0.015 C 
BRANCH  16  18
ATOM     18  O   UNL     1       8.068   2.015  -0.753  0.00  0.00    -0.392 OA
ATOM     19  H   UNL     1       8.406   2.499   0.013  0.00  0.00    +0.210 HD
ENDBRANCH  16  18
ENDBRANCH   9  12
ENDBRANCH   7   9
BRANCH   1  20
ATOM     20  O   UNL     1       0.671  -0.465  -1.174  0.00  0.00    -0.445 OA
BRANCH  20  22
ATOM     21  C   UNL     1      -0.019   1.526   0.010  0.00  0.00    +0.055 C 
ATOM     22  C   UNL     1       0.002  -0.004   0.002  0.00  0.00    +0.107 C 
ATOM     23  C   UNL     1       0.742  -0.511   1.242  0.00  0.00    +0.055 C 
ATOM     24  C   UNL     1      -1.433  -0.534   0.013  0.00  0.00    +0.055 C 
ENDBRANCH  20  22
ENDBRANCH   1  20
TORSDOF 5
