REMARK  Name = ZINC39702198
REMARK  10 active torsions:
REMARK  status: ('A' for Active; 'I' for Inactive)
REMARK    1  A    between atoms: C_1  and  C_2
REMARK    2  A    between atoms: C_2  and  O_3
REMARK    3  A    between atoms: O_3  and  C_4
REMARK    4  A    between atoms: C_6  and  C_20
REMARK    5  A    between atoms: C_9  and  O_10
REMARK    6  A    between atoms: O_10  and  C_11
REMARK    7  A    between atoms: C_11  and  C_12
REMARK    8  A    between atoms: C_21  and  C_22
REMARK    9  A    between atoms: C_21  and  C_24
REMARK   10  A    between atoms: C_30  and  C_34
REMARK                            x       y       z     vdW  Elec       q    Type
REMARK                         _______ _______ _______ _____ _____    ______ ____
ROOT
ATOM      1  C   UNL     1       1.262  -2.043  -1.397  0.00  0.00    +0.162 A 
ATOM      2  C   UNL     1       0.508  -2.778  -0.502  0.00  0.00    +0.057 A 
ATOM      3  C   UNL     1       0.590  -4.175  -0.506  0.00  0.00    -0.020 A 
ATOM      4  C   UNL     1       1.435  -4.820  -1.417  0.00  0.00    +0.012 A 
ATOM      5  C   UNL     1       2.183  -4.079  -2.305  0.00  0.00    +0.050 A 
ATOM      6  C   UNL     1       2.097  -2.693  -2.304  0.00  0.00    +0.162 A 
ENDROOT
BRANCH   3   7
ATOM      7  C   UNL     1      -0.209  -4.963   0.443  0.00  0.00    +0.026 C 
ATOM      8  C   UNL     1      -0.750  -6.138   0.058  0.00  0.00    +0.072 C 
BRANCH   8   9
ATOM      9  C   UNL     1      -1.428  -7.024   1.071  0.00  0.00    +0.216 C 
ATOM     10  N   UNL     1      -2.819  -7.273   0.672  0.00  0.00    -0.359 N 
ATOM     11  C   UNL     1      -2.954  -8.557   0.506  0.00  0.00    +0.060 A 
ATOM     12  C   UNL     1      -4.092  -9.400   0.115  0.00  0.00    +0.027 A 
ATOM     13  C   UNL     1      -3.931 -10.735   0.024  0.00  0.00    +0.005 A 
ATOM     14  C   UNL     1      -2.705 -11.370   0.289  0.00  0.00    -0.048 A 
ATOM     15  C   UNL     1      -1.599 -10.692   0.654  0.00  0.00    +0.030 A 
ATOM     16  C   UNL     1      -1.656  -9.229   0.787  0.00  0.00    +0.061 A 
ATOM     17  N   UNL     1      -0.768  -8.335   1.117  0.00  0.00    -0.359 N 
ATOM     18  C   UNL     1      -2.624 -12.869   0.160  0.00  0.00    +0.044 C 
ATOM     19  H   UNL     1      -3.511  -6.603   0.554  0.00  0.00    +0.162 HD
ATOM     20  H   UNL     1       0.158  -8.503   1.350  0.00  0.00    +0.162 HD
ENDBRANCH   8   9
BRANCH   8  21
ATOM     21  C   UNL     1      -0.679  -6.543  -1.314  0.00  0.00    +0.099 C 
ATOM     22  N   UNL     1      -0.623  -6.865  -2.402  0.00  0.00    -0.191 NA
ENDBRANCH   8  21
ENDBRANCH   3   7
BRANCH   1  23
ATOM     23  O   UNL     1       1.185  -0.685  -1.396  0.00  0.00    -0.489 OA
BRANCH  23  25
ATOM     24  C   UNL     1       0.355   1.436  -0.589  0.00  0.00    +0.048 C 
ATOM     25  C   UNL     1       0.309  -0.086  -0.439  0.00  0.00    +0.226 C 
ENDBRANCH  23  25
ENDBRANCH   1  23
BRANCH   6  26
ATOM     26  O   UNL     1       2.833  -1.968  -3.186  0.00  0.00    -0.484 OA
BRANCH  26  27
ATOM     27  C   UNL     1       3.668  -2.697  -4.088  0.00  0.00    +0.266 C 
BRANCH  27  28
ATOM     28  C   UNL     1       4.403  -1.733  -4.984  0.00  0.00    +0.008 A 
ATOM     29  C   UNL     1       4.208  -0.372  -4.841  0.00  0.00    +0.010 A 
ATOM     30  C   UNL     1       4.881   0.513  -5.662  0.00  0.00    +0.020 A 
ATOM     31  C   UNL     1       5.751   0.036  -6.627  0.00  0.00    +0.042 A 
ATOM     32  C   UNL     1       5.946  -1.325  -6.770  0.00  0.00    +0.040 A 
ATOM     33  C   UNL     1       5.276  -2.210  -5.945  0.00  0.00    +0.049 A 
ATOM     34 CL   UNL     1       5.524  -3.919  -6.120  0.00  0.00    -0.083 Cl
ATOM     35 CL   UNL     1       6.596   1.148  -7.659  0.00  0.00    -0.083 Cl
ENDBRANCH  27  28
ENDBRANCH  26  27
ENDBRANCH   6  26
TORSDOF 8
