REMARK  Name = ZINC28953816
REMARK  10 active torsions:
REMARK  status: ('A' for Active; 'I' for Inactive)
REMARK    1  A    between atoms: C_1  and  C_2
REMARK    2  A    between atoms: C_2  and  C_3
REMARK    3  A    between atoms: C_2  and  N_4
REMARK    4  A    between atoms: C_6  and  C_34
REMARK    5  A    between atoms: C_8  and  C_11
REMARK    6  A    between atoms: N_16  and  C_19
REMARK    7  A    between atoms: C_19  and  C_25
REMARK    8  A    between atoms: C_25  and  N_26
REMARK    9  A    between atoms: N_26  and  C_27
REMARK   10  A    between atoms: C_27  and  C_28
REMARK                            x       y       z     vdW  Elec       q    Type
REMARK                         _______ _______ _______ _____ _____    ______ ____
ROOT
ATOM      1  C   UNL     1      -5.263  -1.217   2.564  0.00  0.00    +0.217 C 
ATOM      2  O   UNL     1      -5.970  -0.825   1.660  0.00  0.00    -0.275 OA
ATOM      3  N   UNL     1      -4.441  -0.357   3.199  0.00  0.00    -0.299 N 
ATOM      4  C   UNL     1      -4.385   1.060   2.810  0.00  0.00    +0.123 C 
ATOM      5  C   UNL     1      -2.920   1.445   2.582  0.00  0.00    +0.104 C 
ATOM      6  N   UNL     1      -2.134   1.096   3.773  0.00  0.00    -0.296 NA
ATOM      7  C   UNL     1      -2.143  -0.353   4.012  0.00  0.00    +0.104 C 
ATOM      8  C   UNL     1      -3.577  -0.812   4.298  0.00  0.00    +0.123 C 
ENDROOT
BRANCH   1  12
ATOM      9  N   UNL     1      -7.228  -3.030   4.362  0.00  0.00    +0.382 N 
ATOM     10  C   UNL     1      -7.380  -3.947   3.203  0.00  0.00    -0.070 C 
ATOM     11  C   UNL     1      -6.367  -3.427   2.160  0.00  0.00    +0.012 C 
ATOM     12  C   UNL     1      -5.305  -2.665   2.979  0.00  0.00    +0.064 C 
ATOM     13  C   UNL     1      -5.765  -2.789   4.448  0.00  0.00    -0.065 C 
ATOM     14  H   UNL     1      -7.807  -2.102   4.249  0.00  0.00    -0.081 HD
BRANCH  11  15
ATOM     15  C   UNL     1      -5.734  -4.580   1.425  0.00  0.00    -0.045 A 
ATOM     16  C   UNL     1      -5.088  -5.578   2.131  0.00  0.00    +0.005 A 
ATOM     17  C   UNL     1      -4.512  -6.639   1.458  0.00  0.00    +0.020 A 
ATOM     18  C   UNL     1      -4.571  -6.695   0.076  0.00  0.00    +0.041 A 
ATOM     19  C   UNL     1      -5.213  -5.693  -0.629  0.00  0.00    +0.020 A 
ATOM     20  C   UNL     1      -5.793  -4.636   0.045  0.00  0.00    +0.005 A 
ATOM     21 CL   UNL     1      -3.841  -8.023  -0.770  0.00  0.00    -0.084 Cl
ENDBRANCH  11  15
BRANCH   9  23
ATOM     22  C   UNL     1      -7.454  -2.729   6.782  0.00  0.00    -0.014 C 
ATOM     23  C   UNL     1      -7.732  -3.652   5.594  0.00  0.00    -0.075 C 
ATOM     24  C   UNL     1      -9.240  -3.881   5.470  0.00  0.00    -0.014 C 
ENDBRANCH   9  23
ENDBRANCH   1  12
BRANCH   6  25
ATOM     25  C   UNL     1      -0.760   1.603   3.664  0.00  0.00    +0.007 C 
ATOM     26  C   UNL     1       0.047   1.156   4.885  0.00  0.00    +0.020 C 
ATOM     27  C   UNL     1       1.478   1.684   4.772  0.00  0.00    +0.002 C 
ATOM     28  C   UNL     1       2.127   1.131   3.502  0.00  0.00    +0.000 C 
ATOM     29  C   UNL     1       1.321   1.579   2.281  0.00  0.00    +0.002 C 
ATOM     30  C   UNL     1      -0.111   1.050   2.394  0.00  0.00    +0.020 C 
BRANCH  25  31
ATOM     31  C   UNL     1      -0.784   3.132   3.601  0.00  0.00    -0.060 C 
BRANCH  31  32
ATOM     32  N   UNL     1      -1.532   3.658   4.751  0.00  0.00    +0.383 N 
ATOM     33  H   UNL     1      -2.562   3.273   4.724  0.00  0.00    -0.085 HD
ATOM     34  H   UNL     1      -1.045   3.337   5.683  0.00  0.00    -0.085 HD
BRANCH  32  35
ATOM     35  C   UNL     1      -1.576   5.126   4.723  0.00  0.00    -0.045 C 
BRANCH  35  36
ATOM     36  C   UNL     1      -2.350   5.628   5.915  0.00  0.00    -0.046 A 
ATOM     37  C   UNL     1      -3.720   5.825   5.830  0.00  0.00    +0.005 A 
ATOM     38  C   UNL     1      -4.392   6.283   6.952  0.00  0.00    +0.020 A 
ATOM     39  C   UNL     1      -3.677   6.536   8.108  0.00  0.00    +0.111 A 
ATOM     40  N   UNL     1      -2.374   6.342   8.151  0.00  0.00    -0.263 NA
ATOM     41  C   UNL     1      -1.703   5.903   7.104  0.00  0.00    +0.112 A 
ENDBRANCH  35  36
ENDBRANCH  32  35
ENDBRANCH  31  32
ENDBRANCH  25  31
ENDBRANCH   6  25
TORSDOF 8
