REMARK  Name = ZINC41353556
REMARK  6 active torsions:
REMARK  status: ('A' for Active; 'I' for Inactive)
REMARK    1  A    between atoms: C_1  and  C_2
REMARK    2  A    between atoms: C_3  and  O_15
REMARK    3  A    between atoms: C_10  and  C_11
REMARK    4  A    between atoms: C_10  and  C_12
REMARK    5  A    between atoms: O_15  and  C_16
REMARK    6  A    between atoms: C_16  and  C_18
REMARK                            x       y       z     vdW  Elec       q    Type
REMARK                         _______ _______ _______ _____ _____    ______ ____
ROOT
ATOM      1  C   UNL     1      -0.120   1.520  -0.003  0.00  0.00    +0.051 C 
ATOM      2  C   UNL     1      -0.049   0.014   0.002  0.00  0.00    +0.035 A 
ATOM      3  C   UNL     1       0.004  -0.680  -1.196  0.00  0.00    +0.138 A 
ATOM      4  C   UNL     1       0.070  -2.071  -1.206  0.00  0.00    +0.047 A 
ATOM      5  C   UNL     1       0.084  -2.766  -0.030  0.00  0.00    +0.019 A 
ATOM      6  C   UNL     1       0.031  -2.079   1.184  0.00  0.00    +0.068 A 
ATOM      7  C   UNL     1      -0.030  -0.676   1.207  0.00  0.00    +0.146 A 
ATOM      8  O   UNL     1      -0.066  -0.239   2.485  0.00  0.00    -0.451 OA
ATOM      9  C   UNL     1      -0.028  -1.264   3.370  0.00  0.00    +0.174 C 
ATOM     10  C   UNL     1      -0.048  -1.160   4.703  0.00  0.00    -0.030 C 
ATOM     11  C   UNL     1      -0.120   0.198   5.352  0.00  0.00    +0.042 C 
ATOM     12  C   UNL     1       0.000  -2.401   5.557  0.00  0.00    +0.042 C 
ATOM     13  C   UNL     1       0.029  -2.520   2.591  0.00  0.00    +0.231 C 
ATOM     14  O   UNL     1       0.076  -3.660   3.015  0.00  0.00    -0.283 OA
ENDROOT
BRANCH   3  15
ATOM     15  O   UNL     1      -0.010   0.001  -2.370  0.00  0.00    -0.420 OA
BRANCH  15  16
ATOM     16  C   UNL     1       1.154   0.518  -2.816  0.00  0.00    +0.380 C 
ATOM     17  O   UNL     1       2.190   0.282  -2.225  0.00  0.00    -0.241 OA
BRANCH  16  18
ATOM     18  C   UNL     1       1.169   1.365  -4.015  0.00  0.00    +0.213 A 
ATOM     19  C   UNL     1       2.278   1.933  -4.557  0.00  0.00    +0.065 A 
ATOM     20  C   UNL     1       1.820   2.680  -5.727  0.00  0.00    +0.022 A 
ATOM     21  C   UNL     1       2.456   3.467  -6.691  0.00  0.00    +0.027 A 
ATOM     22  C   UNL     1       1.720   4.045  -7.687  0.00  0.00    +0.019 A 
ATOM     23  C   UNL     1       0.345   3.856  -7.746  0.00  0.00    +0.019 A 
ATOM     24  C   UNL     1      -0.301   3.084  -6.805  0.00  0.00    +0.048 A 
ATOM     25  C   UNL     1       0.427   2.485  -5.783  0.00  0.00    +0.136 A 
ATOM     26  O   UNL     1       0.085   1.692  -4.749  0.00  0.00    -0.448 OA
ATOM     27 BR   UNL     1       2.578   5.111  -8.992  0.00  0.00    -0.050 Br
ENDBRANCH  16  18
ENDBRANCH  15  16
ENDBRANCH   3  15
TORSDOF 3
