REMARK  Name = ZINC29360180
REMARK  6 active torsions:
REMARK  status: ('A' for Active; 'I' for Inactive)
REMARK    1  A    between atoms: C_1  and  C_2
REMARK    2  A    between atoms: C_4  and  C_26
REMARK    3  A    between atoms: C_6  and  O_8
REMARK    4  A    between atoms: O_8  and  C_9
REMARK    5  A    between atoms: C_9  and  C_10
REMARK    6  A    between atoms: C_14  and  C_23
REMARK                            x       y       z     vdW  Elec       q    Type
REMARK                         _______ _______ _______ _____ _____    ______ ____
ROOT
ATOM      1  C   UNL     1      -0.912   0.769   2.273  0.00  0.00    +0.258 C 
ATOM      2  O   UNL     1      -0.582  -0.397   2.224  0.00  0.00    -0.272 OA
ATOM      3  N   UNL     1      -0.720   1.569   1.206  0.00  0.00    -0.261 N 
ATOM      4  C   UNL     1      -1.195   2.964   1.204  0.00  0.00    +0.168 C 
ATOM      5  C   UNL     1      -0.096   3.829   0.571  0.00  0.00    +0.276 C 
ATOM      6  O   UNL     1       0.168   3.346  -0.748  0.00  0.00    -0.476 OA
ATOM      7  C   UNL     1       0.380   2.013  -0.904  0.00  0.00    +0.143 A 
ATOM      8  C   UNL     1      -0.057   1.104   0.057  0.00  0.00    +0.078 A 
ATOM      9  C   UNL     1       0.163  -0.253  -0.116  0.00  0.00    +0.027 A 
ATOM     10  C   UNL     1       0.819  -0.705  -1.246  0.00  0.00    +0.002 A 
ATOM     11  C   UNL     1       1.256   0.194  -2.200  0.00  0.00    +0.004 A 
ATOM     12  C   UNL     1       1.039   1.549  -2.033  0.00  0.00    +0.047 A 
ENDROOT
BRANCH   5  13
ATOM     13  C   UNL     1      -0.558   5.261   0.501  0.00  0.00    +0.253 C 
ATOM     14  O   UNL     1      -0.728   5.792  -0.576  0.00  0.00    -0.272 OA
ATOM     15  N   UNL     1      -0.782   5.953   1.636  0.00  0.00    -0.326 N 
ATOM     16  H   UNL     1      -1.119   6.999   1.585  0.00  0.00    +0.145 HD
ATOM     17  H   UNL     1      -0.628   5.472   2.613  0.00  0.00    +0.145 HD
ENDBRANCH   5  13
BRANCH   1  18
ATOM     18  C   UNL     1      -1.538   1.322   3.527  0.00  0.00    +0.325 C 
BRANCH  18  19
ATOM     19  O   UNL     1      -1.529   0.320   4.546  0.00  0.00    -0.483 OA
BRANCH  19  25
ATOM     20  C   UNL     1      -3.688   3.653   7.385  0.00  0.00    +0.044 C 
ATOM     21  C   UNL     1      -3.122   2.273   7.171  0.00  0.00    -0.047 A 
ATOM     22  C   UNL     1      -3.144   1.350   8.200  0.00  0.00    +0.007 A 
ATOM     23  C   UNL     1      -2.627   0.082   8.007  0.00  0.00    -0.047 A 
ATOM     24  C   UNL     1      -2.085  -0.265   6.784  0.00  0.00    +0.049 A 
ATOM     25  C   UNL     1      -2.061   0.659   5.750  0.00  0.00    +0.122 A 
ATOM     26  C   UNL     1      -2.576   1.932   5.948  0.00  0.00    +0.049 A 
ATOM     27  C   UNL     1      -2.654  -0.921   9.131  0.00  0.00    +0.044 C 
ENDBRANCH  19  25
ENDBRANCH  18  19
ENDBRANCH   1  18
TORSDOF 4
