REMARK  Name = ZINC36610441
REMARK  12 active torsions:
REMARK  status: ('A' for Active; 'I' for Inactive)
REMARK    1  A    between atoms: C_1  and  C_2
REMARK    2  A    between atoms: C_2  and  C_3
REMARK    3  A    between atoms: C_3  and  C_4
REMARK    4  A    between atoms: C_4  and  C_5
REMARK    5  A    between atoms: C_5  and  C_6
REMARK    6  A    between atoms: C_6  and  C_8
REMARK    7  A    between atoms: C_6  and  N_17
REMARK    8  A    between atoms: N_10  and  C_11
REMARK    9  A    between atoms: N_17  and  C_18
REMARK   10  A    between atoms: C_24  and  C_26
REMARK   11  A    between atoms: C_30  and  O_33
REMARK   12  A    between atoms: C_31  and  O_32
REMARK                            x       y       z     vdW  Elec       q    Type
REMARK                         _______ _______ _______ _____ _____    ______ ____
ROOT
ATOM      1  N   UNL     1      -2.255  -5.178   1.153  0.00  0.00    -0.255 N 
ATOM      2  C   UNL     1      -0.912  -5.185   1.039  0.00  0.00    +0.255 C 
ATOM      3  O   UNL     1      -0.392  -4.949  -0.034  0.00  0.00    -0.269 OA
ENDROOT
BRANCH   1   4
ATOM      4  C   UNL     1      -2.855  -5.490   2.377  0.00  0.00    +0.037 A 
ATOM      5  C   UNL     1      -3.672  -4.561   3.008  0.00  0.00    +0.023 A 
ATOM      6  C   UNL     1      -4.263  -4.872   4.217  0.00  0.00    +0.002 A 
ATOM      7  C   UNL     1      -4.041  -6.106   4.800  0.00  0.00    +0.000 A 
ATOM      8  C   UNL     1      -3.228  -7.033   4.174  0.00  0.00    +0.002 A 
ATOM      9  C   UNL     1      -2.639  -6.731   2.962  0.00  0.00    +0.023 A 
ENDBRANCH   1   4
BRANCH   2  10
ATOM     10  C   UNL     1      -0.074  -5.479   2.217  0.00  0.00    +0.082 A 
ATOM     11  C   UNL     1      -0.569  -5.255   3.505  0.00  0.00    +0.017 A 
ATOM     12  C   UNL     1       0.217  -5.530   4.603  0.00  0.00    +0.005 A 
ATOM     13  C   UNL     1       1.499  -6.028   4.438  0.00  0.00    +0.049 A 
ATOM     14  C   UNL     1       2.004  -6.255   3.169  0.00  0.00    +0.159 A 
ATOM     15  C   UNL     1       1.220  -5.987   2.050  0.00  0.00    +0.171 A 
BRANCH  15  16
ATOM     16  O   UNL     1       1.709  -6.213   0.805  0.00  0.00    -0.503 OA
ATOM     17  H   UNL     1       2.171  -5.456   0.420  0.00  0.00    +0.292 HD
ENDBRANCH  15  16
BRANCH  14  18
ATOM     18  O   UNL     1       3.264  -6.743   3.015  0.00  0.00    -0.503 OA
ATOM     19  H   UNL     1       3.311  -7.709   2.992  0.00  0.00    +0.292 HD
ENDBRANCH  14  18
ENDBRANCH   2  10
BRANCH   1  20
ATOM     20  C   UNL     1      -3.087  -4.845  -0.006  0.00  0.00    +0.167 C 
BRANCH  20  21
ATOM     21  C   UNL     1      -4.070  -5.959  -0.257  0.00  0.00    +0.234 C 
ATOM     22  O   UNL     1      -4.075  -6.936   0.462  0.00  0.00    -0.274 OA
ATOM     23  N   UNL     1      -4.943  -5.871  -1.280  0.00  0.00    -0.311 N 
ATOM     24  H   UNL     1      -4.938  -5.090  -1.855  0.00  0.00    +0.149 HD
BRANCH  23  25
ATOM     25  C   UNL     1      -5.898  -6.954  -1.523  0.00  0.00    +0.073 C 
ATOM     26  C   UNL     1      -5.235  -8.037  -2.376  0.00  0.00    +0.022 C 
ATOM     27  C   UNL     1      -6.233  -9.169  -2.630  0.00  0.00    +0.002 C 
ATOM     28  C   UNL     1      -7.454  -8.616  -3.368  0.00  0.00    +0.000 C 
ATOM     29  C   UNL     1      -8.117  -7.532  -2.515  0.00  0.00    +0.002 C 
ATOM     30  C   UNL     1      -7.119  -6.401  -2.261  0.00  0.00    +0.022 C 
ENDBRANCH  23  25
ENDBRANCH  20  21
BRANCH  20  31
ATOM     31  C   UNL     1      -3.847  -3.546   0.268  0.00  0.00    +0.032 C 
BRANCH  31  32
ATOM     32  C   UNL     1      -2.849  -2.418   0.539  0.00  0.00    +0.002 C 
BRANCH  32  33
ATOM     33  C   UNL     1      -3.610  -1.119   0.814  0.00  0.00    -0.000 C 
BRANCH  33  35
ATOM     34  C   UNL     1      -3.373   1.307   1.359  0.00  0.00    +0.004 C 
ATOM     35  C   UNL     1      -2.612   0.009   1.084  0.00  0.00    -0.003 C 
ENDBRANCH  33  35
ENDBRANCH  32  33
ENDBRANCH  31  32
ENDBRANCH  20  31
ENDBRANCH   1  20
TORSDOF 11
