REMARK  Name = ZINC39405520
REMARK  11 active torsions:
REMARK  status: ('A' for Active; 'I' for Inactive)
REMARK    1  A    between atoms: C_1  and  C_2
REMARK    2  A    between atoms: C_4  and  C_9
REMARK    3  A    between atoms: C_5  and  C_8
REMARK    4  A    between atoms: C_9  and  N_10
REMARK    5  A    between atoms: N_10  and  C_11
REMARK    6  A    between atoms: N_10  and  C_12
REMARK    7  A    between atoms: C_12  and  C_13
REMARK    8  A    between atoms: N_15  and  C_27
REMARK    9  A    between atoms: C_17  and  C_19
REMARK   10  A    between atoms: C_23  and  O_25
REMARK   11  A    between atoms: O_25  and  C_26
REMARK                            x       y       z     vdW  Elec       q    Type
REMARK                         _______ _______ _______ _____ _____    ______ ____
ROOT
ATOM      1  C   UNL     1      -2.159  -2.310  -4.957  0.00  0.00    -0.048 C 
ATOM      2  C   UNL     1      -3.459  -2.181  -5.129  0.00  0.00    +0.093 C 
ATOM      3  N   UNL     1      -4.034  -3.353  -5.580  0.00  0.00    -0.242 N 
ATOM      4  N   UNL     1      -3.096  -4.335  -5.727  0.00  0.00    -0.225 NA
ATOM      5  C   UNL     1      -1.805  -3.731  -5.339  0.00  0.00    +0.129 C 
ATOM      6  H   UNL     1      -3.314  -5.133  -5.149  0.00  0.00    +0.146 HD
ENDROOT
BRANCH   5   7
ATOM      7  C   UNL     1      -1.217  -4.463  -4.161  0.00  0.00    -0.021 A 
ATOM      8  C   UNL     1      -2.033  -4.864  -3.119  0.00  0.00    +0.006 A 
ATOM      9  C   UNL     1      -1.496  -5.535  -2.037  0.00  0.00    +0.004 A 
ATOM     10  C   UNL     1      -0.142  -5.808  -1.993  0.00  0.00    +0.045 A 
ATOM     11  C   UNL     1       0.679  -5.406  -3.037  0.00  0.00    +0.120 A 
ATOM     12  C   UNL     1       0.136  -4.738  -4.125  0.00  0.00    +0.051 A 
BRANCH  11  13
ATOM     13  O   UNL     1       2.011  -5.673  -2.997  0.00  0.00    -0.495 OA
ATOM     14  C   UNL     1       2.498  -6.370  -1.848  0.00  0.00    +0.277 C 
ENDBRANCH  11  13
ENDBRANCH   5   7
BRANCH   3  15
ATOM     15  C   UNL     1      -5.395  -3.514  -5.850  0.00  0.00    +0.049 A 
ATOM     16  C   UNL     1      -5.877  -4.738  -6.295  0.00  0.00    +0.025 A 
ATOM     17  C   UNL     1      -7.223  -4.893  -6.561  0.00  0.00    +0.002 A 
ATOM     18  C   UNL     1      -8.091  -3.831  -6.385  0.00  0.00    +0.000 A 
ATOM     19  C   UNL     1      -7.615  -2.611  -5.942  0.00  0.00    +0.002 A 
ATOM     20  C   UNL     1      -6.271  -2.450  -5.668  0.00  0.00    +0.025 A 
ENDBRANCH   3  15
BRANCH   1  21
ATOM     21  C   UNL     1      -1.206  -1.245  -4.478  0.00  0.00    -0.044 C 
BRANCH  21  22
ATOM     22  N   UNL     1      -0.556  -0.613  -5.634  0.00  0.00    +0.383 N 
ATOM     23  C   UNL     1      -1.561   0.112  -6.424  0.00  0.00    -0.095 C 
ATOM     24  H   UNL     1      -0.126  -1.323  -6.207  0.00  0.00    -0.081 HD
BRANCH  22  25
ATOM     25  C   UNL     1       0.470   0.328  -5.166  0.00  0.00    -0.043 C 
BRANCH  25  28
ATOM     26  C   UNL     1       3.603   0.140  -6.124  0.00  0.00    +0.039 C 
ATOM     27  C   UNL     1       2.409   0.280  -7.071  0.00  0.00    +0.151 C 
ATOM     28  C   UNL     1       1.219   0.885  -6.349  0.00  0.00    -0.038 C 
ATOM     29  C   UNL     1       0.990   2.024  -7.006  0.00  0.00    +0.060 C 
ATOM     30  N   UNL     1       1.874   2.182  -8.015  0.00  0.00    -0.159 NA
ATOM     31  N   UNL     1       2.696   1.264  -8.128  0.00  0.00    -0.180 NA
ATOM     32  C   UNL     1      -0.107   3.001  -6.667  0.00  0.00    +0.067 C 
ENDBRANCH  25  28
ENDBRANCH  22  25
ENDBRANCH  21  22
ENDBRANCH   1  21
TORSDOF 7
