REMARK  Name = ZINC44167523
REMARK  6 active torsions:
REMARK  status: ('A' for Active; 'I' for Inactive)
REMARK    1  A    between atoms: C_3  and  C_9
REMARK    2  A    between atoms: C_6  and  C_7
REMARK    3  A    between atoms: C_14  and  C_17
REMARK    4  A    between atoms: N_19  and  C_20
REMARK    5  A    between atoms: C_20  and  C_21
REMARK    6  A    between atoms: C_21  and  C_22
REMARK                            x       y       z     vdW  Elec       q    Type
REMARK                         _______ _______ _______ _____ _____    ______ ____
ROOT
ATOM      1  C   UNL     1       3.653   2.179   0.013  0.00  0.00    -0.030 C 
ATOM      2  C   UNL     1       4.181   2.230  -1.426  0.00  0.00    +0.058 C 
ATOM      3  S   UNL     1       5.699   3.234  -1.441  0.00  0.00    -0.163 S 
ATOM      4  C   UNL     1       6.670   2.508  -0.083  0.00  0.00    +0.062 C 
ATOM      5  C   UNL     1       5.770   2.415   1.155  0.00  0.00    +0.027 C 
ATOM      6  N   UNL     1       4.638   1.528   0.879  0.00  0.00    +0.392 N 
ATOM      7  H   UNL     1       4.196   1.276   1.751  0.00  0.00    -0.084 HD
ATOM      8  H   UNL     1       4.974   0.691   0.427  0.00  0.00    -0.084 HD
ENDROOT
BRANCH   1  11
ATOM      9  C   UNL     1      -0.030   1.363   0.106  0.00  0.00    +0.019 A 
ATOM     10  C   UNL     1       1.154   2.070   0.076  0.00  0.00    +0.003 A 
ATOM     11  C   UNL     1       2.364   1.399   0.046  0.00  0.00    -0.061 A 
ATOM     12  C   UNL     1       2.395   0.016   0.045  0.00  0.00    +0.003 A 
ATOM     13  C   UNL     1       1.219  -0.704   0.075  0.00  0.00    +0.019 A 
ATOM     14  C   UNL     1      -0.005  -0.033   0.106  0.00  0.00    +0.052 A 
BRANCH  14  15
ATOM     15  C   UNL     1      -1.230  -0.774   0.138  0.00  0.00    +0.099 C 
ATOM     16  N   UNL     1      -2.202  -1.362   0.163  0.00  0.00    -0.191 NA
ENDBRANCH  14  15
ENDBRANCH   1  11
BRANCH   5  17
ATOM     17  C   UNL     1       5.256   3.788   1.505  0.00  0.00    +0.200 C 
ATOM     18  O   UNL     1       4.132   3.922   1.940  0.00  0.00    -0.278 OA
ATOM     19  N   UNL     1       6.045   4.867   1.334  0.00  0.00    -0.316 N 
ATOM     20  H   UNL     1       6.944   4.760   0.986  0.00  0.00    +0.149 HD
BRANCH  19  21
ATOM     21  C   UNL     1       5.546   6.202   1.673  0.00  0.00    +0.109 C 
BRANCH  21  22
ATOM     22  C   UNL     1       6.632   7.241   1.387  0.00  0.00    +0.055 C 
BRANCH  22  23
ATOM     23  C   UNL     1       6.118   8.614   1.737  0.00  0.00    -0.027 A 
ATOM     24  C   UNL     1       5.553   9.410   0.758  0.00  0.00    +0.006 A 
ATOM     25  C   UNL     1       5.082  10.669   1.078  0.00  0.00    +0.020 A 
ATOM     26  C   UNL     1       5.175  11.133   2.378  0.00  0.00    +0.042 A 
ATOM     27  C   UNL     1       5.739  10.337   3.358  0.00  0.00    +0.040 A 
ATOM     28  C   UNL     1       6.206   9.074   3.038  0.00  0.00    +0.046 A 
ATOM     29 CL   UNL     1       6.909   8.071   4.269  0.00  0.00    -0.083 Cl
ATOM     30 CL   UNL     1       4.583  12.715   2.780  0.00  0.00    -0.083 Cl
ENDBRANCH  22  23
ENDBRANCH  21  22
ENDBRANCH  19  21
ENDBRANCH   5  17
TORSDOF 6
