REMARK  Name = ZINC19898755
REMARK  6 active torsions:
REMARK  status: ('A' for Active; 'I' for Inactive)
REMARK    1  A    between atoms: C_1  and  C_2
REMARK    2  A    between atoms: N_4  and  C_5
REMARK    3  A    between atoms: C_6  and  C_24
REMARK    4  A    between atoms: N_7  and  C_17
REMARK    5  A    between atoms: N_9  and  C_10
REMARK    6  A    between atoms: C_17  and  C_18
REMARK                            x       y       z     vdW  Elec       q    Type
REMARK                         _______ _______ _______ _____ _____    ______ ____
ROOT
ATOM      1  C   UNL     1       0.385  -2.682  -0.318  0.00  0.00    +0.099 A 
ATOM      2  C   UNL     1      -0.832  -2.218   0.066  0.00  0.00    +0.079 A 
ATOM      3  N   UNL     1      -0.982  -0.885   0.355  0.00  0.00    -0.317 N 
ATOM      4  C   UNL     1       0.107  -0.057   0.234  0.00  0.00    +0.154 A 
ATOM      5  N   UNL     1       0.193   1.242   0.451  0.00  0.00    -0.336 N 
ATOM      6  S   UNL     1       1.377  -1.198  -0.288  0.00  0.00    -0.036 S 
ATOM      7  H   UNL     1      -0.711   1.821   0.692  0.00  0.00    +0.168 HD
ENDROOT
BRANCH   5   8
ATOM      8  C   UNL     1       1.406   1.869   0.378  0.00  0.00    +0.041 A 
ATOM      9  C   UNL     1       2.250   1.897   1.492  0.00  0.00    +0.025 A 
ATOM     10  C   UNL     1       3.475   2.526   1.409  0.00  0.00    +0.002 A 
ATOM     11  C   UNL     1       3.864   3.137   0.230  0.00  0.00    +0.000 A 
ATOM     12  C   UNL     1       3.031   3.118  -0.875  0.00  0.00    +0.002 A 
ATOM     13  C   UNL     1       1.806   2.488  -0.809  0.00  0.00    +0.025 A 
ENDBRANCH   5   8
BRANCH   2  14
ATOM     14  C   UNL     1      -1.979  -3.140   0.178  0.00  0.00    +0.001 A 
ATOM     15  C   UNL     1      -2.722  -3.196   1.360  0.00  0.00    +0.010 A 
ATOM     16  C   UNL     1      -3.796  -4.056   1.456  0.00  0.00    +0.001 A 
ATOM     17  C   UNL     1      -4.132  -4.870   0.389  0.00  0.00    +0.000 A 
ATOM     18  C   UNL     1      -3.397  -4.824  -0.783  0.00  0.00    +0.001 A 
ATOM     19  C   UNL     1      -2.324  -3.965  -0.895  0.00  0.00    +0.010 A 
ENDBRANCH   2  14
BRANCH   1  23
ATOM     20  C   UNL     1       2.464  -5.668  -1.265  0.00  0.00    +0.109 C 
ATOM     21  C   UNL     1       2.056  -4.263  -0.906  0.00  0.00    +0.215 C 
ATOM     22  O   UNL     1       2.891  -3.385  -0.846  0.00  0.00    -0.276 OA
ATOM     23  N   UNL     1       0.763  -3.981  -0.650  0.00  0.00    -0.279 N 
ATOM     24  H   UNL     1       0.006  -4.777  -0.704  0.00  0.00    +0.155 HD
ENDBRANCH   1  23
BRANCH   3  25
ATOM     25  C   UNL     1      -2.280  -0.354   0.780  0.00  0.00    +0.156 C 
BRANCH  25  26
ATOM     26  C   UNL     1      -3.135  -0.052  -0.452  0.00  0.00    +0.138 C 
ATOM     27  C   UNL     1      -4.546   0.388  -0.015  0.00  0.00    +0.035 C 
ATOM     28  C   UNL     1      -4.711   1.800  -0.629  0.00  0.00    +0.031 C 
ATOM     29  C   UNL     1      -3.653   1.786  -1.762  0.00  0.00    +0.160 C 
ATOM     30  O   UNL     1      -2.558   1.037  -1.192  0.00  0.00    -0.375 OA
ENDBRANCH  25  26
ENDBRANCH   3  25
TORSDOF 5
