REMARK  Name = ZINC32687697
REMARK  11 active torsions:
REMARK  status: ('A' for Active; 'I' for Inactive)
REMARK    1  A    between atoms: C_1  and  C_2
REMARK    2  A    between atoms: C_2  and  C_3
REMARK    3  A    between atoms: C_2  and  C_4
REMARK    4  A    between atoms: C_4  and  C_6
REMARK    5  A    between atoms: C_4  and  N_19
REMARK    6  A    between atoms: N_8  and  C_9
REMARK    7  A    between atoms: C_9  and  C_10
REMARK    8  A    between atoms: C_15  and  N_16
REMARK    9  A    between atoms: N_16  and  C_17
REMARK   10  A    between atoms: N_16  and  C_18
REMARK   11  A    between atoms: C_20  and  C_22
REMARK                            x       y       z     vdW  Elec       q    Type
REMARK                         _______ _______ _______ _____ _____    ______ ____
ROOT
ATOM      1  C   UNL     1      -1.122  -0.536  -0.181  0.00  0.00    +0.161 C 
ENDROOT
BRANCH   1   2
ATOM      2  C   UNL     1      -2.092  -0.145  -1.267  0.00  0.00    +0.234 C 
ATOM      3  O   UNL     1      -2.503  -0.982  -2.043  0.00  0.00    -0.274 OA
ATOM      4  N   UNL     1      -2.503   1.134  -1.375  0.00  0.00    -0.310 N 
ATOM      5  H   UNL     1      -2.225   1.790  -0.716  0.00  0.00    +0.149 HD
BRANCH   4   6
ATOM      6  C   UNL     1      -3.369   1.533  -2.486  0.00  0.00    +0.143 C 
BRANCH   6   7
ATOM      7  C   UNL     1      -3.604   3.021  -2.431  0.00  0.00    +0.008 A 
ATOM      8  C   UNL     1      -2.907   3.872  -3.269  0.00  0.00    +0.010 A 
ATOM      9  C   UNL     1      -3.155   5.236  -3.184  0.00  0.00    +0.018 A 
ATOM     10  C   UNL     1      -4.082   5.699  -2.272  0.00  0.00    +0.084 A 
ATOM     11  N   UNL     1      -4.731   4.864  -1.484  0.00  0.00    -0.349 N 
ATOM     12  C   UNL     1      -4.528   3.556  -1.539  0.00  0.00    +0.103 A 
ATOM     13  H   UNL     1      -5.377   5.215  -0.852  0.00  0.00    +0.167 HD
BRANCH  12  14
ATOM     14  N   UNL     1      -5.239   2.712  -0.695  0.00  0.00    -0.323 N 
ATOM     15  C   UNL     1      -4.773   2.484   0.676  0.00  0.00    +0.130 C 
ATOM     16  C   UNL     1      -6.454   2.049  -1.175  0.00  0.00    +0.130 C 
ENDBRANCH  12  14
ENDBRANCH   6   7
ENDBRANCH   4   6
ENDBRANCH   1   2
BRANCH   1  17
ATOM     17  N   UNL     1      -1.171  -1.987   0.018  0.00  0.00    -0.303 N 
ATOM     18  C   UNL     1      -0.813  -2.516   1.204  0.00  0.00    +0.220 C 
ATOM     19  O   UNL     1      -0.451  -1.792   2.107  0.00  0.00    -0.275 OA
ATOM     20  H   UNL     1      -1.460  -2.566  -0.704  0.00  0.00    +0.149 HD
BRANCH  18  21
ATOM     21  C   UNL     1      -0.863  -4.008   1.409  0.00  0.00    +0.048 C 
ATOM     22  C   UNL     1       0.066  -4.693   0.404  0.00  0.00    +0.019 C 
ATOM     23  C   UNL     1       0.015  -6.208   0.612  0.00  0.00    -0.009 C 
ATOM     24  C   UNL     1       0.467  -6.543   2.035  0.00  0.00    +0.007 C 
ATOM     25  C   UNL     1      -0.462  -5.858   3.040  0.00  0.00    -0.009 C 
ATOM     26  C   UNL     1      -0.411  -4.343   2.832  0.00  0.00    +0.019 C 
ATOM     27  C   UNL     1      -1.894  -6.354   2.830  0.00  0.00    +0.007 C 
ATOM     28  C   UNL     1      -2.346  -6.019   1.408  0.00  0.00    -0.009 C 
ATOM     29  C   UNL     1      -1.417  -6.704   0.403  0.00  0.00    +0.007 C 
ATOM     30  C   UNL     1      -2.296  -4.504   1.200  0.00  0.00    +0.019 C 
ENDBRANCH  18  21
ENDBRANCH   1  17
BRANCH   1  32
ATOM     31  C   UNL     1       0.371   1.400  -0.696  0.00  0.00    +0.009 C 
ATOM     32  C   UNL     1       0.294  -0.125  -0.590  0.00  0.00    +0.012 C 
ATOM     33  C   UNL     1       1.291  -0.614   0.462  0.00  0.00    +0.009 C 
ENDBRANCH   1  32
TORSDOF 7
