REMARK  Name = ZINC44243680
REMARK  4 active torsions:
REMARK  status: ('A' for Active; 'I' for Inactive)
REMARK    1  A    between atoms: C_2  and  S_8
REMARK    2  A    between atoms: S_8  and  N_11
REMARK    3  A    between atoms: N_11  and  C_12
REMARK    4  A    between atoms: C_18  and  N_20
REMARK                            x       y       z     vdW  Elec       q    Type
REMARK                         _______ _______ _______ _____ _____    ______ ____
ROOT
ATOM      1  N   UNL     1       1.257   4.302   1.595  0.00  0.00    -0.188 NA
ATOM      2  H   UNL     1       0.509   4.799   1.962  0.00  0.00    +0.148 HD
ENDROOT
BRANCH   1   3
ATOM      3  C   UNL     1       2.408   3.978   2.440  0.00  0.00    +0.062 C 
ATOM      4  C   UNL     1       2.124   2.690   3.217  0.00  0.00    +0.019 C 
ATOM      5  C   UNL     1       3.326   2.352   4.100  0.00  0.00    +0.001 C 
ATOM      6  C   UNL     1       3.574   3.496   5.084  0.00  0.00    -0.001 C 
ATOM      7  C   UNL     1       3.858   4.784   4.308  0.00  0.00    -0.015 C 
ATOM      8  C   UNL     1       2.656   5.123   3.425  0.00  0.00    -0.056 C 
BRANCH   8   9
ATOM      9  N   UNL     1       2.929   6.359   2.679  0.00  0.00    +0.381 N 
ATOM     10  H   UNL     1       2.136   6.582   2.097  0.00  0.00    -0.090 HD
ATOM     11  H   UNL     1       3.093   7.114   3.329  0.00  0.00    -0.090 HD
ATOM     12  H   UNL     1       3.745   6.229   2.101  0.00  0.00    -0.090 HD
ENDBRANCH   8   9
ENDBRANCH   1   3
BRANCH   1  13
ATOM     13  S   UNL     1       1.231   3.821   0.010  0.00  0.00    +0.060 S 
ATOM     14  O   UNL     1       2.480   4.203  -0.550  0.00  0.00    -0.153 OA
ATOM     15  O   UNL     1      -0.010   4.256  -0.527  0.00  0.00    -0.153 OA
BRANCH  13  17
ATOM     16  C   UNL     1      -0.017   1.383   0.010  0.00  0.00    +0.046 A 
ATOM     17  C   UNL     1       1.194   2.059   0.002  0.00  0.00    +0.124 A 
ATOM     18  C   UNL     1       2.370   1.334  -0.013  0.00  0.00    +0.139 A 
ATOM     19  N   UNL     1       2.351   0.016  -0.020  0.00  0.00    -0.260 NA
ATOM     20  C   UNL     1       1.219  -0.661  -0.013  0.00  0.00    +0.126 A 
ATOM     21  C   UNL     1       0.002  -0.004   0.002  0.00  0.00    +0.038 A 
ATOM     22 BR   UNL     1      -1.615  -0.984   0.013  0.00  0.00    -0.049 Br
ENDBRANCH  13  17
ENDBRANCH   1  13
TORSDOF 4
