REMARK  Name = ZINC39942652
REMARK  15 active torsions:
REMARK  status: ('A' for Active; 'I' for Inactive)
REMARK    1  A    between atoms: C_1  and  C_2
REMARK    2  A    between atoms: C_2  and  O_4
REMARK    3  A    between atoms: O_4  and  C_5
REMARK    4  A    between atoms: C_5  and  C_6
REMARK    5  A    between atoms: C_6  and  C_8
REMARK    6  A    between atoms: C_12  and  O_40
REMARK    7  A    between atoms: C_13  and  C_39
REMARK    8  A    between atoms: C_22  and  O_38
REMARK    9  A    between atoms: C_23  and  C_33
REMARK   10  A    between atoms: C_26  and  O_29
REMARK   11  A    between atoms: O_29  and  C_30
REMARK   12  A    between atoms: C_30  and  C_32
REMARK   13  A    between atoms: C_33  and  O_34
REMARK   14  A    between atoms: O_34  and  C_35
REMARK   15  A    between atoms: C_35  and  C_37
REMARK                            x       y       z     vdW  Elec       q    Type
REMARK                         _______ _______ _______ _____ _____    ______ ____
ROOT
ATOM      1  C   UNL     1       0.152  -4.206  -2.739  0.00  0.00    +0.067 C 
ATOM      2  C   UNL     1       1.527  -4.853  -3.038  0.00  0.00    +0.014 C 
ATOM      3  C   UNL     1       1.389  -5.560  -4.414  0.00  0.00    +0.036 C 
ATOM      4  C   UNL     1      -0.119  -5.812  -4.520  0.00  0.00    +0.075 C 
ATOM      5  C   UNL     1      -0.702  -4.480  -3.973  0.00  0.00    +0.007 C 
ATOM      6  C   UNL     1      -2.184  -4.694  -3.736  0.00  0.00    +0.010 C 
ATOM      7  C   UNL     1      -2.832  -4.960  -5.106  0.00  0.00    +0.005 C 
ATOM      8  C   UNL     1      -2.192  -6.156  -5.802  0.00  0.00    +0.007 C 
ATOM      9  C   UNL     1      -0.664  -5.990  -5.925  0.00  0.00    +0.025 C 
ATOM     10  C   UNL     1      -0.071  -7.242  -6.572  0.00  0.00    +0.009 C 
ATOM     11  C   UNL     1      -0.675  -7.426  -7.967  0.00  0.00    +0.036 C 
ATOM     12  C   UNL     1      -1.666  -6.294  -8.245  0.00  0.00    +0.078 C 
ATOM     13  C   UNL     1      -2.792  -6.329  -7.198  0.00  0.00    +0.037 C 
ATOM     14  C   UNL     1      -3.783  -5.195  -7.473  0.00  0.00    +0.017 C 
ATOM     15  C   UNL     1      -4.384  -5.371  -8.869  0.00  0.00    +0.045 C 
ATOM     16  C   UNL     1      -3.266  -5.337  -9.913  0.00  0.00    +0.179 C 
ATOM     17  C   UNL     1      -2.265  -6.471  -9.642  0.00  0.00    +0.080 C 
ATOM     18  C   UNL     1      -0.498  -3.365  -5.001  0.00  0.00    +0.015 C 
ENDROOT
BRANCH   1  19
ATOM     19  C   UNL     1       0.308  -2.722  -2.531  0.00  0.00    +0.174 C 
ATOM     20  O   UNL     1       1.261  -2.143  -2.995  0.00  0.00    -0.293 OA
BRANCH  19  21
ATOM     21  C   UNL     1      -0.726  -1.959  -1.743  0.00  0.00    +0.306 C 
BRANCH  21  22
ATOM     22  O   UNL     1      -0.358  -0.579  -1.685  0.00  0.00    -0.457 OA
BRANCH  22  24
ATOM     23  C   UNL     1      -0.858   1.712  -0.912  0.00  0.00    +0.136 C 
ATOM     24  C   UNL     1      -1.180   0.243  -1.015  0.00  0.00    +0.304 C 
ATOM     25  O   UNL     1      -2.179  -0.194  -0.494  0.00  0.00    -0.251 OA
ENDBRANCH  22  24
ENDBRANCH  21  22
ENDBRANCH  19  21
ENDBRANCH   1  19
BRANCH  12  26
ATOM     26  O   UNL     1      -0.988  -5.039  -8.173  0.00  0.00    -0.388 OA
ATOM     27  H   UNL     1      -0.264  -4.946  -8.807  0.00  0.00    +0.210 HD
ENDBRANCH  12  26
BRANCH   4  28
ATOM     28  O   UNL     1      -0.498  -6.917  -3.697  0.00  0.00    -0.388 OA
ATOM     29  H   UNL     1      -0.078  -7.753  -3.942  0.00  0.00    +0.210 HD
ENDBRANCH   4  28
BRANCH  16  30
ATOM     30  O   UNL     1      -3.828  -5.501 -11.217  0.00  0.00    -0.461 OA
BRANCH  30  31
ATOM     31  C   UNL     1      -4.192  -4.386 -11.868  0.00  0.00    +0.304 C 
ATOM     32  O   UNL     1      -4.040  -3.306 -11.349  0.00  0.00    -0.251 OA
ATOM     33  C   UNL     1      -4.792  -4.481 -13.248  0.00  0.00    +0.136 C 
ENDBRANCH  30  31
ENDBRANCH  16  30
BRANCH  13  34
ATOM     34  C   UNL     1      -3.522  -7.671  -7.276  0.00  0.00    +0.242 C 
BRANCH  34  35
ATOM     35  O   UNL     1      -4.622  -7.670  -6.364  0.00  0.00    -0.464 OA
BRANCH  35  36
ATOM     36  C   UNL     1      -5.370  -8.783  -6.310  0.00  0.00    +0.304 C 
ATOM     37  O   UNL     1      -5.100  -9.727  -7.013  0.00  0.00    -0.251 OA
ATOM     38  C   UNL     1      -6.547  -8.855  -5.371  0.00  0.00    +0.136 C 
ENDBRANCH  35  36
ENDBRANCH  34  35
ENDBRANCH  13  34
TORSDOF 11
