REMARK  Name = ZINC01570576
REMARK  7 active torsions:
REMARK  status: ('A' for Active; 'I' for Inactive)
REMARK    1  A    between atoms: C_6  and  C_7
REMARK    2  A    between atoms: C_12  and  C_13
REMARK    3  A    between atoms: C_13  and  C_14
REMARK    4  A    between atoms: C_14  and  N_15
REMARK    5  A    between atoms: C_18  and  C_21
REMARK    6  A    between atoms: C_21  and  C_22
REMARK    7  A    between atoms: C_22  and  O_23
REMARK                            x       y       z     vdW  Elec       q    Type
REMARK                         _______ _______ _______ _____ _____    ______ ____
ROOT
ATOM      1  C   UNL     1      -1.983   3.082   1.746  0.00  0.00    +0.013 A 
ATOM      2  C   UNL     1      -1.363   3.453   2.920  0.00  0.00    +0.016 A 
ATOM      3  C   UNL     1      -0.073   3.979   2.900  0.00  0.00    +0.020 A 
ATOM      4  C   UNL     1       0.587   4.134   1.679  0.00  0.00    -0.003 A 
ATOM      5  C   UNL     1      -0.056   3.760   0.496  0.00  0.00    +0.022 A 
ATOM      6  C   UNL     1      -1.333   3.240   0.534  0.00  0.00    +0.055 A 
ATOM      7  C   UNL     1       1.953   4.684   1.607  0.00  0.00    -0.013 C 
ATOM      8  C   UNL     1       2.369   5.236   0.457  0.00  0.00    -0.020 C 
ATOM      9  C   UNL     1       2.877   4.650   2.756  0.00  0.00    -0.004 A 
ATOM     10  C   UNL     1       4.253   4.729   2.520  0.00  0.00    +0.012 A 
ATOM     11  C   UNL     1       5.141   4.696   3.573  0.00  0.00    +0.039 A 
ATOM     12  C   UNL     1       4.673   4.582   4.874  0.00  0.00    +0.124 A 
ATOM     13  C   UNL     1       3.317   4.504   5.120  0.00  0.00    +0.054 A 
ATOM     14  C   UNL     1       2.407   4.537   4.066  0.00  0.00    +0.023 A 
ATOM     15  S   UNL     1       0.688   4.436   4.417  0.00  0.00    -0.088 S 
ATOM     16  F   UNL     1       5.548   4.548   5.904  0.00  0.00    -0.205 F 
ENDROOT
BRANCH   6  17
ATOM     17  C   UNL     1      -2.019   2.838  -0.746  0.00  0.00    +0.417 C 
ATOM     18  F   UNL     1      -1.734   1.498  -1.027  0.00  0.00    -0.166 F 
ATOM     19  F   UNL     1      -3.401   3.001  -0.605  0.00  0.00    -0.166 F 
ATOM     20  F   UNL     1      -1.560   3.643  -1.794  0.00  0.00    -0.166 F 
ENDBRANCH   6  17
BRANCH   8  21
ATOM     21  C   UNL     1       3.558   6.162   0.452  0.00  0.00    +0.009 C 
BRANCH  21  22
ATOM     22  C   UNL     1       3.185   7.466  -0.255  0.00  0.00    -0.075 C 
BRANCH  22  23
ATOM     23  N   UNL     1       4.343   8.370  -0.260  0.00  0.00    +0.380 N 
ATOM     24  C   UNL     1       5.566   7.656  -0.651  0.00  0.00    -0.079 C 
ATOM     25  C   UNL     1       6.771   8.587  -0.504  0.00  0.00    -0.015 C 
ATOM     26  C   UNL     1       6.570   9.818  -1.393  0.00  0.00    -0.012 C 
ATOM     27  C   UNL     1       5.266  10.516  -0.998  0.00  0.00    -0.015 C 
ATOM     28  C   UNL     1       4.104   9.528  -1.130  0.00  0.00    -0.079 C 
ATOM     29  H   UNL     1       4.487   8.743   0.765  0.00  0.00    -0.082 HD
BRANCH  26  30
ATOM     30  C   UNL     1       7.743  10.782  -1.206  0.00  0.00    +0.031 C 
BRANCH  30  31
ATOM     31  C   UNL     1       9.028  10.128  -1.718  0.00  0.00    +0.156 C 
BRANCH  31  32
ATOM     32  O   UNL     1      10.123  11.028  -1.544  0.00  0.00    -0.395 OA
ATOM     33  H   UNL     1      11.135  10.731  -1.856  0.00  0.00    +0.209 HD
ENDBRANCH  31  32
ENDBRANCH  30  31
ENDBRANCH  26  30
ENDBRANCH  22  23
ENDBRANCH  21  22
ENDBRANCH   8  21
TORSDOF 7
