REMARK  Name = ZINC46577438
REMARK  6 active torsions:
REMARK  status: ('A' for Active; 'I' for Inactive)
REMARK    1  A    between atoms: C_1  and  C_2
REMARK    2  A    between atoms: C_2  and  C_4
REMARK    3  A    between atoms: C_2  and  N_18
REMARK    4  A    between atoms: N_6  and  C_7
REMARK    5  A    between atoms: C_8  and  C_15
REMARK    6  A    between atoms: C_22  and  C_25
REMARK                            x       y       z     vdW  Elec       q    Type
REMARK                         _______ _______ _______ _____ _____    ______ ____
ROOT
ATOM      1  C   UNL     1       0.654  -0.470   1.278  0.00  0.00    +0.235 C 
ATOM      2  O   UNL     1       0.001  -1.057   2.114  0.00  0.00    -0.274 OA
ATOM      3  N   UNL     1       1.965  -0.235   1.490  0.00  0.00    -0.278 N 
ATOM      4  H   UNL     1       2.488   0.234   0.821  0.00  0.00    +0.155 HD
ENDROOT
BRANCH   3   5
ATOM      5  C   UNL     1       2.565  -0.665   2.664  0.00  0.00    +0.084 A 
ATOM      6  C   UNL     1       3.883  -0.509   3.051  0.00  0.00    +0.068 A 
ATOM      7  C   UNL     1       4.269  -1.057   4.350  0.00  0.00    -0.023 A 
ATOM      8  C   UNL     1       3.264  -1.657   5.013  0.00  0.00    -0.004 A 
ATOM      9  S   UNL     1       1.858  -1.486   3.943  0.00  0.00    -0.077 S 
ATOM     10  C   UNL     1       3.715  -2.206   6.339  0.00  0.00    +0.043 C 
ATOM     11  C   UNL     1       5.256  -2.246   6.240  0.00  0.00    +0.010 C 
ATOM     12  C   UNL     1       5.535  -1.142   5.200  0.00  0.00    +0.037 C 
BRANCH   6  13
ATOM     13  C   UNL     1       4.854   0.178   2.194  0.00  0.00    +0.244 C 
ATOM     14  O   UNL     1       5.014   1.380   2.297  0.00  0.00    -0.270 OA
ATOM     15  N   UNL     1       5.570  -0.522   1.291  0.00  0.00    -0.325 N 
ATOM     16  H   UNL     1       5.442  -1.480   1.209  0.00  0.00    +0.145 HD
ATOM     17  H   UNL     1       6.212  -0.068   0.724  0.00  0.00    +0.145 HD
ENDBRANCH   6  13
ENDBRANCH   3   5
BRANCH   1  19
ATOM     18  C   UNL     1      -0.207   1.510   0.060  0.00  0.00    +0.034 C 
ATOM     19  C   UNL     1       0.002  -0.004   0.002  0.00  0.00    +0.140 C 
BRANCH  19  20
ATOM     20  N   UNL     1      -1.296  -0.672  -0.157  0.00  0.00    -0.287 NA
ATOM     21  C   UNL     1      -1.790  -0.544  -1.536  0.00  0.00    +0.113 C 
ATOM     22  C   UNL     1      -3.112  -1.304  -1.671  0.00  0.00    +0.176 C 
ATOM     23  O   UNL     1      -4.046  -0.799  -0.713  0.00  0.00    -0.369 OA
ATOM     24  C   UNL     1      -3.598  -0.908   0.641  0.00  0.00    +0.162 C 
ATOM     25  C   UNL     1      -2.281  -0.145   0.800  0.00  0.00    +0.121 C 
BRANCH  24  26
ATOM     26  C   UNL     1      -4.635  -0.321   1.563  0.00  0.00    -0.018 A 
ATOM     27  C   UNL     1      -5.377   0.774   1.161  0.00  0.00    +0.009 A 
ATOM     28  C   UNL     1      -6.329   1.313   2.006  0.00  0.00    +0.039 A 
ATOM     29  C   UNL     1      -6.539   0.756   3.256  0.00  0.00    +0.123 A 
ATOM     30  C   UNL     1      -5.796  -0.341   3.658  0.00  0.00    +0.039 A 
ATOM     31  C   UNL     1      -4.848  -0.881   2.809  0.00  0.00    +0.009 A 
ATOM     32  F   UNL     1      -7.469   1.283   4.082  0.00  0.00    -0.205 F 
ENDBRANCH  24  26
ENDBRANCH  19  20
ENDBRANCH   1  19
TORSDOF 5
