REMARK  Name = ZINC63660923
REMARK  7 active torsions:
REMARK  status: ('A' for Active; 'I' for Inactive)
REMARK    1  A    between atoms: C_1  and  O_2
REMARK    2  A    between atoms: O_2  and  C_3
REMARK    3  A    between atoms: C_9  and  C_12
REMARK    4  A    between atoms: C_12  and  C_13
REMARK    5  A    between atoms: C_13  and  N_14
REMARK    6  A    between atoms: C_15  and  C_17
REMARK    7  A    between atoms: C_27  and  C_29
REMARK                            x       y       z     vdW  Elec       q    Type
REMARK                         _______ _______ _______ _____ _____    ______ ____
ROOT
ATOM      1  N   UNL     1      -1.362  -5.389   3.953  0.00  0.00    -0.313 N 
ATOM      2  C   UNL     1      -0.853  -6.526   4.466  0.00  0.00    +0.234 C 
ATOM      3  O   UNL     1      -1.281  -6.964   5.513  0.00  0.00    -0.274 OA
ATOM      4  H   UNL     1      -1.019  -5.039   3.115  0.00  0.00    +0.149 HD
ENDROOT
BRANCH   2   5
ATOM      5  C   UNL     1       0.248  -7.255   3.739  0.00  0.00    +0.172 C 
ATOM      6  C   UNL     1       1.503  -6.373   3.651  0.00  0.00    +0.069 C 
ATOM      7  C   UNL     1       2.568  -7.150   4.392  0.00  0.00    -0.024 A 
ATOM      8  C   UNL     1       3.895  -6.858   4.640  0.00  0.00    +0.005 A 
ATOM      9  C   UNL     1       4.680  -7.745   5.353  0.00  0.00    +0.000 A 
ATOM     10  C   UNL     1       4.132  -8.927   5.819  0.00  0.00    +0.002 A 
ATOM     11  C   UNL     1       2.808  -9.223   5.573  0.00  0.00    +0.024 A 
ATOM     12  C   UNL     1       2.010  -8.332   4.853  0.00  0.00    +0.041 A 
ATOM     13  N   UNL     1       0.660  -8.439   4.497  0.00  0.00    -0.255 N 
ATOM     14  C   UNL     1      -0.142  -9.477   4.806  0.00  0.00    +0.252 C 
ATOM     15  O   UNL     1       0.308 -10.438   5.400  0.00  0.00    -0.270 OA
BRANCH  14  16
ATOM     16  C   UNL     1      -1.569  -9.448   4.422  0.00  0.00    +0.037 A 
ATOM     17  C   UNL     1      -1.941  -9.049   3.137  0.00  0.00    +0.013 A 
ATOM     18  C   UNL     1      -3.275  -9.024   2.785  0.00  0.00    +0.001 A 
ATOM     19  C   UNL     1      -4.242  -9.395   3.702  0.00  0.00    +0.000 A 
ATOM     20  C   UNL     1      -3.880  -9.791   4.977  0.00  0.00    +0.001 A 
ATOM     21  C   UNL     1      -2.550  -9.825   5.340  0.00  0.00    +0.013 A 
ENDBRANCH  14  16
ENDBRANCH   2   5
BRANCH   1  22
ATOM     22  C   UNL     1      -2.432  -4.680   4.660  0.00  0.00    +0.108 C 
BRANCH  22  23
ATOM     23  C   UNL     1      -2.825  -3.430   3.869  0.00  0.00    +0.052 C 
BRANCH  23  30
ATOM     24  C   UNL     1      -2.784   0.069   6.844  0.00  0.00    +0.121 A 
ATOM     25  C   UNL     1      -4.055   0.461   7.300  0.00  0.00    +0.047 A 
ATOM     26  C   UNL     1      -5.191  -0.145   6.895  0.00  0.00    +0.029 A 
ATOM     27  C   UNL     1      -5.123  -1.257   5.941  0.00  0.00    +0.043 A 
ATOM     28  N   UNL     1      -6.053  -2.002   5.398  0.00  0.00    -0.380 N 
ATOM     29  C   UNL     1      -5.410  -2.976   4.508  0.00  0.00    +0.144 C 
ATOM     30  C   UNL     1      -3.925  -2.702   4.596  0.00  0.00    -0.040 C 
ATOM     31  C   UNL     1      -3.785  -1.671   5.460  0.00  0.00    +0.002 A 
ATOM     32  C   UNL     1      -2.614  -0.943   5.960  0.00  0.00    +0.055 A 
ATOM     33  H   UNL     1      -7.006  -1.924   5.557  0.00  0.00    +0.160 HD
BRANCH  24  35
ATOM     34  C   UNL     1      -1.915   1.791   8.234  0.00  0.00    +0.277 C 
ATOM     35  O   UNL     1      -1.689   0.731   7.302  0.00  0.00    -0.495 OA
ENDBRANCH  24  35
ENDBRANCH  23  30
ENDBRANCH  22  23
ENDBRANCH   1  22
TORSDOF 6
