REMARK  Name = ZINC21810263
REMARK  8 active torsions:
REMARK  status: ('A' for Active; 'I' for Inactive)
REMARK    1  A    between atoms: C_1  and  C_2
REMARK    2  A    between atoms: C_2  and  C_3
REMARK    3  A    between atoms: C_6  and  N_9
REMARK    4  A    between atoms: C_10  and  C_12
REMARK    5  A    between atoms: C_12  and  S_13
REMARK    6  A    between atoms: S_13  and  C_14
REMARK    7  A    between atoms: N_23  and  C_25
REMARK    8  A    between atoms: C_25  and  C_26
REMARK                            x       y       z     vdW  Elec       q    Type
REMARK                         _______ _______ _______ _____ _____    ______ ____
ROOT
ATOM      1  C   UNL     1       1.132  -0.680  -0.004  0.00  0.00    +0.192 A 
ATOM      2  N   UNL     1       2.333  -0.040  -0.018  0.00  0.00    -0.183 NA
ATOM      3  C   UNL     1       2.369   1.309   0.001  0.00  0.00    +0.276 A 
ATOM      4  O   UNL     1       3.436   1.900  -0.010  0.00  0.00    -0.266 OA
ATOM      5  C   UNL     1       1.155   2.023   0.033  0.00  0.00    +0.024 A 
ATOM      6  C   UNL     1      -0.016   1.331   0.040  0.00  0.00    +0.049 A 
ATOM      7  N   UNL     1       0.002  -0.004   0.024  0.00  0.00    -0.227 NA
ATOM      8  C   UNL     1      -1.350   2.032   0.053  0.00  0.00    +0.037 C 
ATOM      9  C   UNL     1      -1.171   3.489   0.483  0.00  0.00    -0.072 C 
ATOM     10  N   UNL     1      -0.099   4.087  -0.328  0.00  0.00    +0.385 N 
ATOM     11  C   UNL     1       1.200   3.526   0.058  0.00  0.00    -0.035 C 
ATOM     12  H   UNL     1      -0.281   3.843  -1.385  0.00  0.00    -0.081 HD
ENDROOT
BRANCH   1  13
ATOM     13  S   UNL     1       1.088  -2.442  -0.022  0.00  0.00    -0.077 S 
BRANCH  13  14
ATOM     14  C   UNL     1      -0.702  -2.712   0.007  0.00  0.00    +0.173 C 
BRANCH  14  16
ATOM     15  N   UNL     1      -2.260  -4.633   0.014  0.00  0.00    -0.285 N 
ATOM     16  C   UNL     1      -0.987  -4.192  -0.004  0.00  0.00    +0.227 C 
ATOM     17  O   UNL     1      -0.070  -4.986  -0.030  0.00  0.00    -0.275 OA
ATOM     18  H   UNL     1      -3.089  -3.917   0.114  0.00  0.00    +0.155 HD
BRANCH  15  22
ATOM     19  C   UNL     1      -3.057  -8.710  -0.307  0.00  0.00    -0.048 A 
ATOM     20  C   UNL     1      -1.933  -8.278   0.372  0.00  0.00    +0.005 A 
ATOM     21  C   UNL     1      -1.666  -6.927   0.481  0.00  0.00    +0.023 A 
ATOM     22  C   UNL     1      -2.527  -6.002  -0.094  0.00  0.00    +0.033 A 
ATOM     23  C   UNL     1      -3.659  -6.439  -0.771  0.00  0.00    +0.023 A 
ATOM     24  C   UNL     1      -3.917  -7.791  -0.881  0.00  0.00    +0.005 A 
BRANCH  19  26
ATOM     25  C   UNL     1      -4.203 -10.631   0.761  0.00  0.00    +0.009 C 
ATOM     26  C   UNL     1      -3.345 -10.184  -0.424  0.00  0.00    +0.032 C 
ENDBRANCH  19  26
ENDBRANCH  15  22
ENDBRANCH  14  16
ENDBRANCH  13  14
ENDBRANCH   1  13
BRANCH  10  27
ATOM     27  C   UNL     1      -0.099   5.551  -0.204  0.00  0.00    -0.042 C 
BRANCH  27  28
ATOM     28  C   UNL     1       0.858   6.140  -1.208  0.00  0.00    -0.060 A 
ATOM     29  C   UNL     1       0.410   6.478  -2.471  0.00  0.00    +0.005 A 
ATOM     30  C   UNL     1       1.284   7.019  -3.396  0.00  0.00    +0.050 A 
ATOM     31  C   UNL     1       2.612   7.224  -3.058  0.00  0.00    +0.166 A 
ATOM     32  C   UNL     1       3.063   6.883  -1.785  0.00  0.00    +0.166 A 
ATOM     33  C   UNL     1       2.180   6.347  -0.862  0.00  0.00    +0.051 A 
ATOM     34  O   UNL     1       4.393   7.179  -1.699  0.00  0.00    -0.453 OA
ATOM     35  C   UNL     1       4.658   8.079  -2.791  0.00  0.00    +0.466 C 
ATOM     36  O   UNL     1       3.660   7.733  -3.770  0.00  0.00    -0.453 OA
ENDBRANCH  27  28
ENDBRANCH  10  27
TORSDOF 7
