REMARK  Name = ZINC03653665
REMARK  3 active torsions:
REMARK  status: ('A' for Active; 'I' for Inactive)
REMARK    1  A    between atoms: C_4  and  S_7
REMARK    2  A    between atoms: S_7  and  N_10
REMARK    3  A    between atoms: N_10  and  C_11
REMARK                            x       y       z     vdW  Elec       q    Type
REMARK                         _______ _______ _______ _____ _____    ______ ____
ROOT
ATOM      1  C   UNL     1      -0.194   5.177  -0.139  0.00  0.00    +0.057 A 
ATOM      2  C   UNL     1       1.032   5.780  -0.221  0.00  0.00    +0.044 A 
ATOM      3  C   UNL     1       2.177   5.024  -0.403  0.00  0.00    +0.063 A 
ATOM      4  C   UNL     1       2.167   3.636  -0.512  0.00  0.00    +0.154 A 
ATOM      5  C   UNL     1       0.896   3.002  -0.427  0.00  0.00    +0.027 A 
ATOM      6  C   UNL     1      -0.275   3.770  -0.242  0.00  0.00    +0.008 A 
ATOM      7  C   UNL     1      -1.518   3.119  -0.162  0.00  0.00    +0.010 A 
ATOM      8  C   UNL     1      -1.577   1.763  -0.269  0.00  0.00    +0.001 A 
ATOM      9  C   UNL     1      -0.421   1.006  -0.446  0.00  0.00    +0.001 A 
ATOM     10  C   UNL     1       0.800   1.603  -0.528  0.00  0.00    +0.012 A 
ATOM     11  O   UNL     1       3.374   3.061  -0.684  0.00  0.00    -0.416 OA
ATOM     12  C   UNL     1       4.496   3.796  -0.744  0.00  0.00    +0.379 A 
ATOM     13  O   UNL     1       5.643   3.420  -0.895  0.00  0.00    -0.237 OA
ATOM     14  S   UNL     1       3.904   5.416  -0.554  0.00  0.00    -0.004 S 
ENDROOT
BRANCH   1  15
ATOM     15  N   UNL     1      -1.348   5.941   0.044  0.00  0.00    -0.216 N 
ATOM     16  H   UNL     1      -2.076   5.599   0.587  0.00  0.00    +0.174 HD
BRANCH  15  17
ATOM     17  S   UNL     1      -1.475   7.432  -0.665  0.00  0.00    +0.072 S 
ATOM     18  O   UNL     1      -2.794   7.894  -0.407  0.00  0.00    -0.150 OA
ATOM     19  O   UNL     1      -0.322   8.166  -0.277  0.00  0.00    -0.150 OA
BRANCH  17  23
ATOM     20  C   UNL     1      -1.171   6.816  -5.139  0.00  0.00    +0.000 A 
ATOM     21  C   UNL     1      -2.406   6.780  -4.519  0.00  0.00    +0.002 A 
ATOM     22  C   UNL     1      -2.499   6.967  -3.152  0.00  0.00    +0.029 A 
ATOM     23  C   UNL     1      -1.357   7.192  -2.406  0.00  0.00    +0.108 A 
ATOM     24  C   UNL     1      -0.123   7.235  -3.028  0.00  0.00    +0.029 A 
ATOM     25  C   UNL     1      -0.029   7.042  -4.393  0.00  0.00    +0.002 A 
ENDBRANCH  17  23
ENDBRANCH  15  17
ENDBRANCH   1  15
TORSDOF 3
