REMARK  Name = ZINC39561060
REMARK  12 active torsions:
REMARK  status: ('A' for Active; 'I' for Inactive)
REMARK    1  A    between atoms: C_1  and  C_2
REMARK    2  A    between atoms: C_2  and  C_3
REMARK    3  A    between atoms: C_5  and  C_25
REMARK    4  A    between atoms: C_6  and  N_8
REMARK    5  A    between atoms: C_9  and  C_11
REMARK    6  A    between atoms: C_11  and  O_12
REMARK    7  A    between atoms: O_12  and  C_13
REMARK    8  A    between atoms: C_13  and  C_15
REMARK    9  A    between atoms: C_17  and  N_23
REMARK   10  A    between atoms: C_25  and  O_27
REMARK   11  A    between atoms: O_27  and  C_28
REMARK   12  A    between atoms: C_28  and  C_29
REMARK                            x       y       z     vdW  Elec       q    Type
REMARK                         _______ _______ _______ _____ _____    ______ ____
ROOT
ATOM      1  N   UNL     1      -5.014  -1.859   1.205  0.00  0.00    -0.277 N 
ATOM      2  C   UNL     1      -5.138  -1.910   2.546  0.00  0.00    +0.255 C 
ATOM      3  O   UNL     1      -4.213  -1.572   3.254  0.00  0.00    -0.272 OA
ATOM      4  H   UNL     1      -5.754  -2.130   0.639  0.00  0.00    +0.155 HD
ENDROOT
BRANCH   1   8
ATOM      5  C   UNL     1      -1.412  -0.526   0.013  0.00  0.00    -0.008 A 
ATOM      6  C   UNL     1      -2.203  -0.814  -1.037  0.00  0.00    +0.028 A 
ATOM      7  C   UNL     1      -3.524  -1.303  -0.714  0.00  0.00    +0.088 A 
ATOM      8  C   UNL     1      -3.830  -1.421   0.635  0.00  0.00    +0.086 A 
ATOM      9  S   UNL     1      -2.433  -0.916   1.416  0.00  0.00    -0.078 S 
BRANCH   5  11
ATOM     10  C   UNL     1      -0.019   1.526   0.010  0.00  0.00    +0.009 C 
ATOM     11  C   UNL     1       0.002  -0.004   0.002  0.00  0.00    +0.039 C 
ENDBRANCH   5  11
BRANCH   7  12
ATOM     12  C   UNL     1      -4.491  -1.656  -1.756  0.00  0.00    +0.342 C 
ATOM     13  O   UNL     1      -5.595  -2.064  -1.449  0.00  0.00    -0.245 OA
BRANCH  12  14
ATOM     14  O   UNL     1      -4.157  -1.528  -3.057  0.00  0.00    -0.461 OA
BRANCH  14  15
ATOM     15  C   UNL     1      -5.148  -1.890  -4.020  0.00  0.00    +0.229 C 
ATOM     16  C   UNL     1      -4.591  -1.679  -5.429  0.00  0.00    +0.048 C 
ENDBRANCH  14  15
ENDBRANCH  12  14
ENDBRANCH   7  12
ENDBRANCH   1   8
BRANCH   2  17
ATOM     17  C   UNL     1      -6.426  -2.387   3.167  0.00  0.00    +0.328 C 
BRANCH  17  18
ATOM     18  O   UNL     1      -6.311  -2.350   4.590  0.00  0.00    -0.451 OA
BRANCH  18  19
ATOM     19  C   UNL     1      -7.385  -2.748   5.301  0.00  0.00    +0.360 C 
ATOM     20  O   UNL     1      -8.390  -3.117   4.728  0.00  0.00    -0.243 OA
BRANCH  19  21
ATOM     21  C   UNL     1      -7.338  -2.737   6.779  0.00  0.00    +0.169 A 
ATOM     22  C   UNL     1      -8.449  -3.155   7.507  0.00  0.00    +0.095 A 
ATOM     23  C   UNL     1      -8.389  -3.139   8.901  0.00  0.00    +0.067 A 
ATOM     24  C   UNL     1      -7.213  -2.702   9.508  0.00  0.00    +0.100 A 
ATOM     25  C   UNL     1      -6.149  -2.301   8.714  0.00  0.00    +0.150 A 
ATOM     26  N   UNL     1      -6.235  -2.332   7.401  0.00  0.00    -0.226 NA
ATOM     27 CL   UNL     1      -4.681  -1.755   9.463  0.00  0.00    -0.060 Cl
ATOM     28 CL   UNL     1      -7.081  -2.659  11.238  0.00  0.00    -0.078 Cl
ATOM     29 CL   UNL     1      -9.887  -3.688   6.693  0.00  0.00    -0.079 Cl
BRANCH  23  30
ATOM     30  N   UNL     1      -9.478  -3.549   9.668  0.00  0.00    -0.356 N 
ATOM     31  H   UNL     1     -10.291  -3.850   9.233  0.00  0.00    +0.142 HD
ATOM     32  H   UNL     1      -9.423  -3.532  10.636  0.00  0.00    +0.142 HD
ENDBRANCH  23  30
ENDBRANCH  19  21
ENDBRANCH  18  19
ENDBRANCH  17  18
ENDBRANCH   2  17
TORSDOF 10
