REMARK  Name = ZINC34747973
REMARK  7 active torsions:
REMARK  status: ('A' for Active; 'I' for Inactive)
REMARK    1  A    between atoms: C_4  and  C_7
REMARK    2  A    between atoms: C_7  and  C_8
REMARK    3  A    between atoms: C_8  and  C_9
REMARK    4  A    between atoms: C_9  and  N_10
REMARK    5  A    between atoms: N_28  and  C_29
REMARK    6  A    between atoms: C_29  and  C_30
REMARK    7  A    between atoms: N_32  and  C_33
REMARK                            x       y       z     vdW  Elec       q    Type
REMARK                         _______ _______ _______ _____ _____    ______ ____
ROOT
ATOM      1  N   UNL     1       5.234  -1.391   3.922  0.00  0.00    +0.382 N 
ATOM      2  C   UNL     1       5.585  -1.358   5.347  0.00  0.00    -0.060 C 
ATOM      3  C   UNL     1       6.917  -2.084   5.561  0.00  0.00    +0.089 C 
ATOM      4  N   UNL     1       6.807  -3.437   4.994  0.00  0.00    -0.304 N 
ATOM      5  C   UNL     1       6.305  -3.573   3.618  0.00  0.00    +0.089 C 
ATOM      6  C   UNL     1       5.002  -2.776   3.496  0.00  0.00    -0.060 C 
ATOM      7  C   UNL     1       7.163  -4.541   5.728  0.00  0.00    +0.202 A 
ATOM      8  N   UNL     1       6.263  -5.136   6.482  0.00  0.00    -0.208 NA
ATOM      9  C   UNL     1       6.582  -6.207   7.202  0.00  0.00    +0.117 A 
ATOM     10  C   UNL     1       7.874  -6.751   7.196  0.00  0.00    +0.076 A 
ATOM     11  C   UNL     1       8.079  -7.938   8.043  0.00  0.00    -0.023 A 
ATOM     12  C   UNL     1       7.016  -8.382   8.733  0.00  0.00    -0.004 A 
ATOM     13  S   UNL     1       5.695  -7.269   8.312  0.00  0.00    -0.073 S 
ATOM     14  C   UNL     1       7.342  -9.600   9.556  0.00  0.00    +0.043 C 
ATOM     15  C   UNL     1       8.665 -10.128   8.961  0.00  0.00    +0.010 C 
ATOM     16  C   UNL     1       9.271  -8.846   8.358  0.00  0.00    +0.037 C 
ATOM     17  C   UNL     1       8.831  -6.085   6.368  0.00  0.00    +0.264 A 
ATOM     18  O   UNL     1       9.979  -6.490   6.301  0.00  0.00    -0.267 OA
ATOM     19  N   UNL     1       8.443  -5.008   5.660  0.00  0.00    -0.271 N 
ATOM     20  H   UNL     1       5.991  -0.997   3.383  0.00  0.00    -0.082 HD
ENDROOT
BRANCH   1  21
ATOM     21  C   UNL     1       4.015  -0.601   3.701  0.00  0.00    -0.078 C 
BRANCH  21  22
ATOM     22  C   UNL     1       4.293   0.868   4.027  0.00  0.00    -0.014 C 
BRANCH  22  23
ATOM     23  C   UNL     1       3.023   1.690   3.797  0.00  0.00    +0.033 C 
BRANCH  23  27
ATOM     24  C   UNL     1       3.797   5.792   4.706  0.00  0.00    +0.000 A 
ATOM     25  C   UNL     1       4.001   5.318   3.423  0.00  0.00    +0.000 A 
ATOM     26  C   UNL     1       3.751   3.990   3.129  0.00  0.00    +0.003 A 
ATOM     27  C   UNL     1       3.297   3.137   4.118  0.00  0.00    -0.047 A 
ATOM     28  C   UNL     1       3.094   3.611   5.400  0.00  0.00    +0.003 A 
ATOM     29  C   UNL     1       3.342   4.939   5.694  0.00  0.00    +0.000 A 
ENDBRANCH  23  27
ENDBRANCH  22  23
ENDBRANCH  21  22
ENDBRANCH   1  21
BRANCH  19  30
ATOM     30  C   UNL     1       9.414  -4.322   4.804  0.00  0.00    +0.223 C 
BRANCH  30  31
ATOM     31  C   UNL     1      10.175  -3.309   5.620  0.00  0.00    +0.233 C 
ATOM     32  O   UNL     1       9.930  -3.174   6.800  0.00  0.00    -0.274 OA
ATOM     33  N   UNL     1      11.128  -2.554   5.038  0.00  0.00    -0.311 N 
ATOM     34  H   UNL     1      11.323  -2.662   4.095  0.00  0.00    +0.149 HD
BRANCH  33  35
ATOM     35  C   UNL     1      11.867  -1.569   5.832  0.00  0.00    +0.073 C 
ATOM     36  C   UNL     1      11.074  -0.262   5.891  0.00  0.00    +0.022 C 
ATOM     37  C   UNL     1      11.847   0.766   6.720  0.00  0.00    +0.002 C 
ATOM     38  C   UNL     1      13.208   1.025   6.071  0.00  0.00    +0.000 C 
ATOM     39  C   UNL     1      14.001  -0.282   6.011  0.00  0.00    +0.002 C 
ATOM     40  C   UNL     1      13.229  -1.311   5.183  0.00  0.00    +0.022 C 
ENDBRANCH  33  35
ENDBRANCH  30  31
ENDBRANCH  19  30
TORSDOF 7
