REMARK  Name = ZINC63573196
REMARK  4 active torsions:
REMARK  status: ('A' for Active; 'I' for Inactive)
REMARK    1  A    between atoms: C_1  and  O_2
REMARK    2  A    between atoms: O_2  and  C_3
REMARK    3  A    between atoms: C_10  and  C_28
REMARK    4  A    between atoms: N_20  and  C_21
REMARK                            x       y       z     vdW  Elec       q    Type
REMARK                         _______ _______ _______ _____ _____    ______ ____
ROOT
ATOM      1  C   UNL     1       0.781  -0.358  -1.124  0.00  0.00    +0.121 A 
ATOM      2  C   UNL     1       1.339   0.413  -2.158  0.00  0.00    +0.047 A 
ATOM      3  C   UNL     1       1.932  -0.142  -3.237  0.00  0.00    +0.029 A 
ATOM      4  C   UNL     1       2.011  -1.600  -3.358  0.00  0.00    +0.043 A 
ATOM      5  N   UNL     1       2.506  -2.376  -4.293  0.00  0.00    -0.375 N 
ATOM      6  C   UNL     1       2.379  -3.765  -3.859  0.00  0.00    +0.131 C 
ATOM      7  C   UNL     1       1.584  -4.608  -4.864  0.00  0.00    +0.134 C 
ATOM      8  N   UNL     1       1.162  -5.842  -4.184  0.00  0.00    -0.276 N 
ATOM      9  C   UNL     1       0.313  -5.783  -2.989  0.00  0.00    +0.114 C 
ATOM     10  C   UNL     1       1.020  -4.950  -1.903  0.00  0.00    +0.052 C 
ATOM     11  C   UNL     1       1.578  -3.713  -2.569  0.00  0.00    -0.035 C 
ATOM     12  C   UNL     1       1.416  -2.417  -2.270  0.00  0.00    +0.003 A 
ATOM     13  C   UNL     1       0.803  -1.712  -1.138  0.00  0.00    +0.055 A 
ATOM     14  C   UNL     1       1.557  -7.037  -4.664  0.00  0.00    +0.307 C 
ATOM     15  O   UNL     1       2.353  -7.091  -5.582  0.00  0.00    -0.252 OA
ATOM     16  N   UNL     1       1.070  -8.174  -4.127  0.00  0.00    -0.268 N 
ATOM     17  H   UNL     1       0.375  -8.132  -3.452  0.00  0.00    +0.156 HD
ATOM     18  H   UNL     1       2.891  -2.078  -5.132  0.00  0.00    +0.160 HD
ENDROOT
BRANCH  16  19
ATOM     19  C   UNL     1       1.569  -9.414  -4.543  0.00  0.00    +0.049 A 
ATOM     20  C   UNL     1       2.468  -9.484  -5.598  0.00  0.00    +0.024 A 
ATOM     21  C   UNL     1       2.958 -10.709  -6.006  0.00  0.00    +0.002 A 
ATOM     22  C   UNL     1       2.554 -11.866  -5.365  0.00  0.00    +0.001 A 
ATOM     23  C   UNL     1       1.659 -11.800  -4.313  0.00  0.00    +0.017 A 
ATOM     24  C   UNL     1       1.169 -10.577  -3.897  0.00  0.00    +0.039 A 
ATOM     25 BR   UNL     1      -0.050 -10.487  -2.454  0.00  0.00    -0.048 Br
ENDBRANCH  16  19
BRANCH   7  26
ATOM     26  C   UNL     1       2.455  -4.948  -6.046  0.00  0.00    -0.025 A 
ATOM     27  C   UNL     1       1.880  -5.206  -7.276  0.00  0.00    +0.008 A 
ATOM     28  C   UNL     1       2.678  -5.518  -8.361  0.00  0.00    +0.038 A 
ATOM     29  C   UNL     1       4.054  -5.571  -8.215  0.00  0.00    +0.123 A 
ATOM     30  C   UNL     1       4.629  -5.312  -6.982  0.00  0.00    +0.038 A 
ATOM     31  C   UNL     1       3.829  -4.995  -5.900  0.00  0.00    +0.008 A 
ATOM     32  F   UNL     1       4.835  -5.876  -9.274  0.00  0.00    -0.205 F 
ENDBRANCH   7  26
BRANCH   1  34
ATOM     33  C   UNL     1       0.203   1.706  -0.096  0.00  0.00    +0.277 C 
ATOM     34  O   UNL     1       0.204   0.278  -0.070  0.00  0.00    -0.495 OA
ENDBRANCH   1  34
TORSDOF 3
