REMARK  Name = ZINC09433324
REMARK  15 active torsions:
REMARK  status: ('A' for Active; 'I' for Inactive)
REMARK    1  A    between atoms: C_1  and  C_2
REMARK    2  A    between atoms: C_2  and  C_3
REMARK    3  A    between atoms: C_2  and  C_4
REMARK    4  A    between atoms: C_4  and  N_5
REMARK    5  A    between atoms: C_6  and  C_34
REMARK    6  A    between atoms: C_8  and  C_18
REMARK    7  A    between atoms: N_20  and  C_21
REMARK    8  A    between atoms: C_21  and  C_22
REMARK    9  A    between atoms: C_22  and  C_23
REMARK   10  A    between atoms: C_23  and  N_76
REMARK   11  A    between atoms: C_24  and  C_25
REMARK   12  A    between atoms: C_24  and  N_76
REMARK   13  A    between atoms: C_31  and  C_32
REMARK   14  A    between atoms: C_31  and  C_33
REMARK   15  A    between atoms: C_31  and  N_76
REMARK                            x       y       z     vdW  Elec       q    Type
REMARK                         _______ _______ _______ _____ _____    ______ ____
ROOT
ATOM      1  N   UNL     1       1.130   4.669  -5.823  0.00  0.00    -0.289 N 
ATOM      2  C   UNL     1       1.144   3.213  -5.935  0.00  0.00    +0.129 C 
ATOM      3  C   UNL     1       1.757   2.574  -4.692  0.00  0.00    +0.131 C 
ATOM      4  C   UNL     1       3.082   3.218  -4.378  0.00  0.00    -0.021 A 
ATOM      5  C   UNL     1       4.107   2.484  -3.821  0.00  0.00    +0.005 A 
ATOM      6  C   UNL     1       5.314   3.095  -3.526  0.00  0.00    +0.000 A 
ATOM      7  C   UNL     1       5.499   4.441  -3.784  0.00  0.00    +0.001 A 
ATOM      8  C   UNL     1       4.482   5.186  -4.347  0.00  0.00    +0.013 A 
ATOM      9  C   UNL     1       3.268   4.574  -4.653  0.00  0.00    +0.041 A 
ATOM     10  C   UNL     1       2.173   5.335  -5.290  0.00  0.00    +0.247 C 
ATOM     11  O   UNL     1       2.212   6.549  -5.332  0.00  0.00    -0.270 OA
ENDROOT
BRANCH   2  12
ATOM     12  C   UNL     1       1.952   2.817  -7.144  0.00  0.00    +0.011 A 
ATOM     13  C   UNL     1       1.695   1.858  -8.067  0.00  0.00    +0.013 A 
ATOM     14  C   UNL     1       2.587   1.669  -9.105  0.00  0.00    +0.008 A 
ATOM     15  C   UNL     1       3.694   2.450  -9.170  0.00  0.00    +0.045 A 
ATOM     16  S   UNL     1       3.493   3.497  -7.738  0.00  0.00    -0.100 S 
ENDBRANCH   2  12
BRANCH   3  17
ATOM     17  C   UNL     1       0.823   2.757  -3.523  0.00  0.00    +0.223 C 
ATOM     18  O   UNL     1      -0.223   3.352  -3.671  0.00  0.00    -0.275 OA
ATOM     19  N   UNL     1       1.151   2.260  -2.314  0.00  0.00    -0.315 N 
ATOM     20  H   UNL     1       1.988   1.784  -2.196  0.00  0.00    +0.149 HD
BRANCH  19  21
ATOM     21  C   UNL     1       0.243   2.439  -1.179  0.00  0.00    +0.102 C 
BRANCH  21  22
ATOM     22  C   UNL     1       0.848   1.785   0.066  0.00  0.00    +0.000 C 
BRANCH  22  23
ATOM     23  C   UNL     1      -0.100   1.971   1.252  0.00  0.00    -0.076 C 
BRANCH  23  24
ATOM     24  N   UNL     1       0.507   1.354   2.449  0.00  0.00    +0.384 N 
ATOM     25  H   UNL     1       1.463   1.712   2.561  0.00  0.00    -0.081 HD
BRANCH  24  26
ATOM     26  C   UNL     1       0.560  -0.115   2.288  0.00  0.00    -0.074 C 
ATOM     27  C   UNL     1       1.393  -0.706   3.428  0.00  0.00    -0.014 C 
ATOM     28  C   UNL     1      -0.849  -0.710   2.324  0.00  0.00    -0.014 C 
ENDBRANCH  24  26
BRANCH  24  29
ATOM     29  C   UNL     1      -0.279   1.702   3.651  0.00  0.00    -0.043 C 
BRANCH  29  30
ATOM     30  C   UNL     1       0.053   3.116   4.053  0.00  0.00    -0.064 A 
ATOM     31  C   UNL     1       1.163   3.369   4.838  0.00  0.00    +0.002 A 
ATOM     32  C   UNL     1       1.470   4.666   5.202  0.00  0.00    +0.000 A 
ATOM     33  C   UNL     1       0.663   5.710   4.790  0.00  0.00    +0.000 A 
ATOM     34  C   UNL     1      -0.450   5.456   4.010  0.00  0.00    +0.000 A 
ATOM     35  C   UNL     1      -0.755   4.159   3.641  0.00  0.00    +0.002 A 
ENDBRANCH  29  30
ENDBRANCH  24  29
ENDBRANCH  23  24
ENDBRANCH  22  23
ENDBRANCH  21  22
ENDBRANCH  19  21
ENDBRANCH   3  17
BRANCH   1  36
ATOM     36  C   UNL     1      -0.037   5.418  -6.297  0.00  0.00    +0.111 C 
BRANCH  36  38
ATOM     37  C   UNL     1      -0.516   6.236  -3.985  0.00  0.00    +0.009 C 
ATOM     38  C   UNL     1      -1.088   5.481  -5.187  0.00  0.00    +0.000 C 
ATOM     39  C   UNL     1      -2.331   6.208  -5.702  0.00  0.00    +0.009 C 
ENDBRANCH  36  38
ENDBRANCH   1  36
TORSDOF 11
