REMARK  Name = ZINC05649535
REMARK  3 active torsions:
REMARK  status: ('A' for Active; 'I' for Inactive)
REMARK    1  A    between atoms: C_6  and  C_7
REMARK    2  A    between atoms: C_7  and  C_8
REMARK    3  A    between atoms: N_14  and  C_15
REMARK                            x       y       z     vdW  Elec       q    Type
REMARK                         _______ _______ _______ _____ _____    ______ ____
ROOT
ATOM      1  C   UNL     1      -1.745  -1.028  -1.429  0.00  0.00    +0.144 C 
ATOM      2  C   UNL     1      -3.036  -1.830  -1.468  0.00  0.00    +0.232 C 
ATOM      3  O   UNL     1      -3.110  -2.955  -1.021  0.00  0.00    -0.274 OA
ATOM      4  N   UNL     1      -4.074  -1.224  -2.019  0.00  0.00    -0.264 N 
ATOM      5  C   UNL     1      -3.999   0.055  -2.529  0.00  0.00    +0.161 C 
ATOM      6  N   UNL     1      -4.951   0.759  -3.095  0.00  0.00    -0.226 NA
ATOM      7  S   UNL     1      -2.300   0.530  -2.237  0.00  0.00    -0.077 S 
ATOM      8  H   UNL     1      -4.920  -1.697  -2.066  0.00  0.00    +0.157 HD
ENDROOT
BRANCH   6   9
ATOM      9  C   UNL     1      -6.205   0.226  -3.235  0.00  0.00    +0.067 A 
ATOM     10  C   UNL     1      -6.364  -1.085  -3.688  0.00  0.00    +0.029 A 
ATOM     11  C   UNL     1      -7.630  -1.615  -3.827  0.00  0.00    +0.022 A 
ATOM     12  C   UNL     1      -8.742  -0.850  -3.518  0.00  0.00    +0.041 A 
ATOM     13  C   UNL     1      -8.591   0.451  -3.068  0.00  0.00    +0.022 A 
ATOM     14  C   UNL     1      -7.330   0.991  -2.920  0.00  0.00    +0.029 A 
ATOM     15 CL   UNL     1     -10.331  -1.525  -3.696  0.00  0.00    -0.084 Cl
ENDBRANCH   6   9
BRANCH   1  16
ATOM     16  C   UNL     1      -1.293  -0.775   0.011  0.00  0.00    +0.059 C 
BRANCH  16  22
ATOM     17  C   UNL     1      -0.017   1.378   0.010  0.00  0.00    +0.005 A 
ATOM     18  C   UNL     1       1.171   2.086   0.002  0.00  0.00    +0.020 A 
ATOM     19  C   UNL     1       2.378   1.410  -0.013  0.00  0.00    +0.041 A 
ATOM     20  C   UNL     1       2.396   0.027  -0.021  0.00  0.00    +0.020 A 
ATOM     21  C   UNL     1       1.208  -0.679  -0.013  0.00  0.00    +0.005 A 
ATOM     22  C   UNL     1       0.002  -0.004   0.002  0.00  0.00    -0.046 A 
ATOM     23 CL   UNL     1       3.870   2.298  -0.023  0.00  0.00    -0.084 Cl
ENDBRANCH  16  22
ENDBRANCH   1  16
TORSDOF 3
