REMARK  Name = ZINC15016669
REMARK  9 active torsions:
REMARK  status: ('A' for Active; 'I' for Inactive)
REMARK    1  A    between atoms: C_1  and  N_2
REMARK    2  A    between atoms: C_4  and  C_11
REMARK    3  A    between atoms: C_11  and  C_12
REMARK    4  A    between atoms: C_11  and  C_24
REMARK    5  A    between atoms: C_15  and  O_23
REMARK    6  A    between atoms: C_16  and  O_21
REMARK    7  A    between atoms: C_17  and  N_18
REMARK    8  A    between atoms: O_21  and  C_22
REMARK    9  A    between atoms: N_26  and  C_33
REMARK                            x       y       z     vdW  Elec       q    Type
REMARK                         _______ _______ _______ _____ _____    ______ ____
ROOT
ATOM      1  C   UNL     1       3.028   5.065   0.001  0.00  0.00    +0.085 C 
ENDROOT
BRANCH   1   5
ATOM      2  C   UNL     1       2.995   0.038  -0.026  0.00  0.00    +0.149 C 
ATOM      3  N   UNL     1       2.507   1.420  -0.014  0.00  0.00    -0.349 N 
ATOM      4  C   UNL     1       3.301   2.534  -0.016  0.00  0.00    +0.091 A 
ATOM      5  C   UNL     1       2.539   3.639  -0.003  0.00  0.00    -0.010 A 
ATOM      6  C   UNL     1       1.143   3.196   0.008  0.00  0.00    +0.004 A 
ATOM      7  C   UNL     1       1.181   1.790   0.000  0.00  0.00    +0.049 A 
ATOM      8  C   UNL     1      -0.013   1.076   0.008  0.00  0.00    +0.026 A 
ATOM      9  C   UNL     1      -1.214   1.751   0.017  0.00  0.00    +0.002 A 
ATOM     10  C   UNL     1      -1.246   3.138   0.031  0.00  0.00    +0.001 A 
ATOM     11  C   UNL     1      -0.085   3.860   0.024  0.00  0.00    +0.010 A 
ENDBRANCH   1   5
BRANCH   1  12
ATOM     12  C   UNL     1       3.875   5.302   1.225  0.00  0.00    -0.010 A 
ATOM     13  C   UNL     1       5.003   4.653   1.553  0.00  0.00    +0.091 A 
ATOM     14  N   UNL     1       5.495   5.142   2.733  0.00  0.00    -0.349 N 
ATOM     15  C   UNL     1       4.671   6.136   3.208  0.00  0.00    +0.049 A 
ATOM     16  C   UNL     1       3.619   6.281   2.285  0.00  0.00    +0.004 A 
ATOM     17  C   UNL     1       2.619   7.229   2.510  0.00  0.00    +0.010 A 
ATOM     18  C   UNL     1       2.667   8.012   3.628  0.00  0.00    +0.001 A 
ATOM     19  C   UNL     1       3.702   7.874   4.543  0.00  0.00    +0.002 A 
ATOM     20  C   UNL     1       4.699   6.945   4.340  0.00  0.00    +0.026 A 
ATOM     21  C   UNL     1       6.716   4.673   3.394  0.00  0.00    +0.149 C 
ENDBRANCH   1  12
BRANCH   1  22
ATOM     22  C   UNL     1       3.851   5.317  -1.236  0.00  0.00    -0.001 A 
ATOM     23  C   UNL     1       4.995   4.576  -1.466  0.00  0.00    +0.010 A 
ATOM     24  C   UNL     1       5.750   4.800  -2.602  0.00  0.00    +0.049 A 
ATOM     25  C   UNL     1       5.367   5.776  -3.508  0.00  0.00    +0.161 A 
ATOM     26  C   UNL     1       4.218   6.526  -3.273  0.00  0.00    +0.192 A 
ATOM     27  C   UNL     1       3.462   6.292  -2.135  0.00  0.00    +0.175 A 
BRANCH  27  28
ATOM     28  N   UNL     1       2.240   7.087  -1.883  0.00  0.00    +0.060 N 
ATOM     29  O   UNL     1       2.308   8.127  -1.253  0.00  0.00    -0.126 OA
ATOM     30  O   UNL     1       1.164   6.701  -2.305  0.00  0.00    -0.126 OA
ENDBRANCH  27  28
BRANCH  26  31
ATOM     31  O   UNL     1       3.838   7.485  -4.159  0.00  0.00    -0.489 OA
ATOM     32  C   UNL     1       4.348   8.803  -3.946  0.00  0.00    +0.277 C 
ENDBRANCH  26  31
BRANCH  25  33
ATOM     33  O   UNL     1       6.111   6.001  -4.623  0.00  0.00    -0.503 OA
ATOM     34  H   UNL     1       6.806   6.663  -4.505  0.00  0.00    +0.292 HD
ENDBRANCH  25  33
ENDBRANCH   1  22
TORSDOF 6
