REMARK  Name = ZINC19096719
REMARK  4 active torsions:
REMARK  status: ('A' for Active; 'I' for Inactive)
REMARK    1  A    between atoms: C_1  and  C_2
REMARK    2  A    between atoms: C_2  and  C_3
REMARK    3  A    between atoms: N_12  and  S_13
REMARK    4  A    between atoms: S_13  and  C_16
REMARK                            x       y       z     vdW  Elec       q    Type
REMARK                         _______ _______ _______ _____ _____    ______ ____
ROOT
ATOM      1  S   UNL     1      -1.555   2.275   0.022  0.00  0.00    +0.064 S 
ATOM      2  O   UNL     1      -2.342   1.686   1.048  0.00  0.00    -0.153 OA
ATOM      3  O   UNL     1      -1.245   3.662   0.001  0.00  0.00    -0.153 OA
ENDROOT
BRANCH   1  12
ATOM      4  C   UNL     1      -3.215   0.782  -1.522  0.00  0.00    +0.110 C 
ATOM      5  C   UNL     1      -2.853   0.031  -2.802  0.00  0.00    -0.018 A 
ATOM      6  C   UNL     1      -3.321  -1.249  -3.094  0.00  0.00    +0.013 A 
ATOM      7  C   UNL     1      -2.962  -1.853  -4.250  0.00  0.00    +0.046 A 
ATOM      8  S   UNL     1      -1.918  -0.614  -5.004  0.00  0.00    -0.101 S 
ATOM      9  C   UNL     1      -2.038   0.609  -3.725  0.00  0.00    -0.004 A 
ATOM     10  C   UNL     1      -1.395   1.957  -3.667  0.00  0.00    +0.060 C 
ATOM     11  C   UNL     1      -2.104   2.796  -2.586  0.00  0.00    +0.115 C 
ATOM     12  N   UNL     1      -2.316   1.938  -1.410  0.00  0.00    -0.169 NA
BRANCH   4  14
ATOM     13  C   UNL     1      -5.047   1.938  -0.277  0.00  0.00    +0.006 C 
ATOM     14  C   UNL     1      -4.667   1.260  -1.595  0.00  0.00    +0.022 C 
ENDBRANCH   4  14
ENDBRANCH   1  12
BRANCH   1  15
ATOM     15  C   UNL     1      -0.017   1.415   0.010  0.00  0.00    +0.134 A 
ATOM     16  C   UNL     1       1.146   2.108   0.002  0.00  0.00    +0.031 A 
ATOM     17  C   UNL     1       2.382   1.461  -0.012  0.00  0.00    +0.004 A 
ATOM     18  C   UNL     1       2.473   0.110  -0.021  0.00  0.00    +0.031 A 
ATOM     19  C   UNL     1       1.295  -0.682  -0.014  0.00  0.00    +0.102 A 
ATOM     20  C   UNL     1       0.002  -0.004   0.002  0.00  0.00    +0.126 A 
ATOM     21  N   UNL     1      -1.014  -0.865   0.007  0.00  0.00    -0.189 NA
ATOM     22  S   UNL     1      -0.375  -2.296  -0.007  0.00  0.00    +0.117 S 
ATOM     23  N   UNL     1       1.165  -2.007  -0.020  0.00  0.00    -0.191 NA
ENDBRANCH   1  15
TORSDOF 3
