REMARK  Name = ZINC27345074
REMARK  5 active torsions:
REMARK  status: ('A' for Active; 'I' for Inactive)
REMARK    1  A    between atoms: C_1  and  C_2
REMARK    2  A    between atoms: C_2  and  C_3
REMARK    3  A    between atoms: C_3  and  C_32
REMARK    4  A    between atoms: C_7  and  N_24
REMARK    5  A    between atoms: C_14  and  N_19
REMARK                            x       y       z     vdW  Elec       q    Type
REMARK                         _______ _______ _______ _____ _____    ______ ____
ROOT
ATOM      1  C   UNL     1      -0.026   0.034   0.184  0.00  0.00    +0.071 C 
ATOM      2  C   UNL     1      -0.029   1.563   0.132  0.00  0.00    +0.071 C 
ATOM      3  C   UNL     1       1.387   2.071   0.059  0.00  0.00    -0.025 A 
ATOM      4  C   UNL     1       2.451   1.286   0.376  0.00  0.00    +0.020 A 
ATOM      5  C   UNL     1       3.748   1.805   0.299  0.00  0.00    +0.105 A 
ATOM      6  N   UNL     1       3.950   3.054  -0.085  0.00  0.00    -0.337 N 
ATOM      7  C   UNL     1       2.943   3.839  -0.405  0.00  0.00    +0.089 A 
ATOM      8  C   UNL     1       1.602   3.410  -0.351  0.00  0.00    +0.031 A 
ATOM      9  C   UNL     1       0.601   4.414  -0.727  0.00  0.00    +0.055 A 
ATOM     10  C   UNL     1       1.072   5.636  -1.109  0.00  0.00    +0.050 A 
ATOM     11  S   UNL     1       2.826   5.523  -0.964  0.00  0.00    -0.070 S 
ATOM     12  C   UNL     1       0.206   6.778  -1.546  0.00  0.00    +0.191 C 
ATOM     13  N   UNL     1      -1.134   6.512  -0.981  0.00  0.00    -0.359 N 
ATOM     14  C   UNL     1      -1.574   5.215  -0.877  0.00  0.00    +0.157 C 
ATOM     15  N   UNL     1      -0.774   4.202  -0.734  0.00  0.00    -0.306 N 
ATOM     16  C   UNL     1       2.270  -0.145   0.811  0.00  0.00    +0.199 C 
ATOM     17  O   UNL     1       0.913  -0.382   1.183  0.00  0.00    -0.369 OA
ATOM     18  C   UNL     1       0.388  -0.528  -1.177  0.00  0.00    +0.042 C 
ATOM     19  H   UNL     1      -1.777   7.339  -0.645  0.00  0.00    +0.162 HD
ATOM     20  H   UNL     1       4.973   3.454  -0.143  0.00  0.00    +0.168 HD
ATOM     21  H   UNL     1      -1.175   3.184  -0.620  0.00  0.00    +0.153 HD
ENDROOT
BRANCH   5  22
ATOM     22  N   UNL     1       4.833   1.001   0.631  0.00  0.00    -0.312 N 
ATOM     23  C   UNL     1       5.572   1.559   1.774  0.00  0.00    +0.134 C 
ATOM     24  C   UNL     1       6.719   0.615   2.142  0.00  0.00    +0.178 C 
ATOM     25  O   UNL     1       7.556   0.421   0.999  0.00  0.00    -0.377 OA
ATOM     26  C   UNL     1       6.870  -0.121  -0.132  0.00  0.00    +0.178 C 
ATOM     27  C   UNL     1       5.724   0.816  -0.524  0.00  0.00    +0.134 C 
ENDBRANCH   5  22
BRANCH  12  28
ATOM     28  N   UNL     1       0.136   6.827  -3.012  0.00  0.00    -0.279 NA
ATOM     29  C   UNL     1      -0.303   5.522  -3.568  0.00  0.00    +0.087 C 
ATOM     30  C   UNL     1      -0.818   5.894  -4.981  0.00  0.00    +0.017 C 
ATOM     31  C   UNL     1      -1.502   7.261  -4.752  0.00  0.00    +0.017 C 
ATOM     32  C   UNL     1      -0.869   7.815  -3.462  0.00  0.00    +0.087 C 
ENDBRANCH  12  28
BRANCH   1  34
ATOM     33  C   UNL     1      -1.415  -2.001   0.598  0.00  0.00    +0.007 C 
ATOM     34  C   UNL     1      -1.423  -0.472   0.547  0.00  0.00    +0.032 C 
ENDBRANCH   1  34
TORSDOF 3
