REMARK  Name = ZINC59644329
REMARK  10 active torsions:
REMARK  status: ('A' for Active; 'I' for Inactive)
REMARK    1  A    between atoms: C_1  and  C_2
REMARK    2  A    between atoms: C_6  and  C_8
REMARK    3  A    between atoms: C_8  and  O_9
REMARK    4  A    between atoms: O_9  and  C_10
REMARK    5  A    between atoms: C_13  and  C_18
REMARK    6  A    between atoms: C_15  and  O_16
REMARK    7  A    between atoms: O_16  and  C_17
REMARK    8  A    between atoms: N_19  and  N_20
REMARK    9  A    between atoms: C_21  and  C_23
REMARK   10  A    between atoms: C_23  and  C_24
REMARK                            x       y       z     vdW  Elec       q    Type
REMARK                         _______ _______ _______ _____ _____    ______ ____
ROOT
ATOM      1  C   UNL     1       1.599  -3.745   4.055  0.00  0.00    +0.163 A 
ATOM      2  C   UNL     1       0.507  -4.190   4.786  0.00  0.00    +0.065 A 
ATOM      3  C   UNL     1       0.697  -4.878   5.967  0.00  0.00    +0.030 A 
ATOM      4  C   UNL     1       1.993  -5.128   6.428  0.00  0.00    +0.012 A 
ATOM      5  C   UNL     1       3.092  -4.680   5.691  0.00  0.00    +0.060 A 
ATOM      6  C   UNL     1       2.893  -3.996   4.507  0.00  0.00    +0.162 A 
ATOM      7 BR   UNL     1      -0.794  -5.482   6.960  0.00  0.00    -0.050 Br
ENDROOT
BRANCH   6   8
ATOM      8  O   UNL     1       3.961  -3.564   3.784  0.00  0.00    -0.491 OA
ATOM      9  C   UNL     1       5.259  -3.856   4.306  0.00  0.00    +0.277 C 
ENDBRANCH   6   8
BRANCH   4  10
ATOM     10  C   UNL     1       2.199  -5.863   7.690  0.00  0.00    +0.139 C 
ATOM     11  N   UNL     1       1.177  -6.278   8.373  0.00  0.00    -0.188 NA
BRANCH  11  12
ATOM     12  N   UNL     1       1.372  -6.976   9.572  0.00  0.00    -0.207 N 
ATOM     13  C   UNL     1       0.311  -7.407  10.282  0.00  0.00    +0.238 C 
ATOM     14  O   UNL     1      -0.814  -7.191   9.883  0.00  0.00    -0.274 OA
ATOM     15  H   UNL     1       2.272  -7.149   9.891  0.00  0.00    +0.177 HD
BRANCH  13  16
ATOM     16  C   UNL     1       0.522  -8.158  11.572  0.00  0.00    +0.153 C 
BRANCH  16  17
ATOM     17  C   UNL     1      -0.815  -8.524  12.164  0.00  0.00    +0.059 A 
ATOM     18  C   UNL     1      -1.122  -9.806  12.478  0.00  0.00    +0.072 A 
ATOM     19  S   UNL     1      -2.778  -9.605  13.115  0.00  0.00    -0.061 S 
ATOM     20  C   UNL     1      -2.904  -7.939  12.917  0.00  0.00    +0.156 A 
ATOM     21  N   UNL     1      -1.737  -7.609  12.404  0.00  0.00    -0.230 NA
ATOM     22  N   UNL     1      -3.974  -7.113  13.225  0.00  0.00    -0.338 N 
ATOM     23  H   UNL     1      -4.782  -7.489  13.607  0.00  0.00    +0.144 HD
ATOM     24  H   UNL     1      -3.914  -6.159  13.059  0.00  0.00    +0.144 HD
ENDBRANCH  16  17
ENDBRANCH  13  16
ENDBRANCH  11  12
ENDBRANCH   4  10
BRANCH   1  25
ATOM     25  O   UNL     1       1.406  -3.067   2.893  0.00  0.00    -0.484 OA
BRANCH  25  26
ATOM     26  C   UNL     1       0.054  -2.845   2.489  0.00  0.00    +0.264 C 
BRANCH  26  32
ATOM     27  C   UNL     1      -0.018   1.503   0.010  0.00  0.00    +0.044 C 
ATOM     28  C   UNL     1       0.002  -0.004   0.002  0.00  0.00    -0.050 A 
ATOM     29  C   UNL     1       0.006  -0.689  -1.199  0.00  0.00    +0.003 A 
ATOM     30  C   UNL     1       0.025  -2.071  -1.207  0.00  0.00    +0.001 A 
ATOM     31  C   UNL     1       0.040  -2.768  -0.013  0.00  0.00    +0.007 A 
ATOM     32  C   UNL     1       0.037  -2.084   1.188  0.00  0.00    -0.010 A 
ATOM     33  C   UNL     1       0.023  -0.702   1.195  0.00  0.00    +0.010 A 
ENDBRANCH  26  32
ENDBRANCH  25  26
ENDBRANCH   1  25
TORSDOF 8
