REMARK  Name = ZINC39580184
REMARK  10 active torsions:
REMARK  status: ('A' for Active; 'I' for Inactive)
REMARK    1  A    between atoms: C_1  and  C_2
REMARK    2  A    between atoms: C_7  and  C_9
REMARK    3  A    between atoms: C_7  and  C_10
REMARK    4  A    between atoms: N_13  and  C_17
REMARK    5  A    between atoms: C_17  and  C_18
REMARK    6  A    between atoms: C_18  and  O_20
REMARK    7  A    between atoms: O_20  and  C_21
REMARK    8  A    between atoms: C_21  and  C_23
REMARK    9  A    between atoms: C_21  and  C_24
REMARK   10  A    between atoms: N_26  and  C_27
REMARK                            x       y       z     vdW  Elec       q    Type
REMARK                         _______ _______ _______ _____ _____    ______ ____
ROOT
ATOM      1  C   UNL     1       0.361  -3.398  -4.729  0.00  0.00    +0.238 C 
ENDROOT
BRANCH   1  13
ATOM      2  C   UNL     1       0.715   1.481   0.400  0.00  0.00    +0.007 C 
ATOM      3  C   UNL     1       0.470  -0.015   0.195  0.00  0.00    -0.011 C 
ATOM      4  C   UNL     1       1.053  -0.447  -1.154  0.00  0.00    +0.038 C 
ATOM      5  C   UNL     1       0.829  -1.942  -1.350  0.00  0.00    +0.113 C 
ATOM      6  C   UNL     1       1.482  -2.738  -0.226  0.00  0.00    +0.041 C 
ATOM      7  C   UNL     1       0.898  -2.298   1.119  0.00  0.00    -0.032 C 
ATOM      8  C   UNL     1       1.149  -0.802   1.318  0.00  0.00    +0.009 C 
ATOM      9  C   UNL     1      -0.608  -2.569   1.135  0.00  0.00    +0.011 C 
ATOM     10  C   UNL     1       1.569  -3.082   2.249  0.00  0.00    +0.011 C 
ATOM     11  C   UNL     1       1.366  -2.385  -2.691  0.00  0.00    +0.247 C 
ATOM     12  O   UNL     1       2.514  -2.327  -3.078  0.00  0.00    -0.273 OA
ATOM     13  N   UNL     1       0.299  -2.859  -3.368  0.00  0.00    -0.213 N 
ATOM     14  C   UNL     1      -0.822  -2.775  -2.642  0.00  0.00    +0.310 C 
ATOM     15  O   UNL     1      -1.912  -3.140  -3.037  0.00  0.00    -0.252 OA
ATOM     16  N   UNL     1      -0.607  -2.241  -1.424  0.00  0.00    -0.285 N 
ATOM     17  H   UNL     1      -1.270  -2.085  -0.733  0.00  0.00    +0.151 HD
ENDBRANCH   1  13
BRANCH   1  18
ATOM     18  C   UNL     1       0.625  -4.881  -4.670  0.00  0.00    +0.326 C 
ATOM     19  O   UNL     1       0.750  -5.430  -3.601  0.00  0.00    -0.249 OA
BRANCH  18  20
ATOM     20  O   UNL     1       0.723  -5.590  -5.805  0.00  0.00    -0.451 OA
BRANCH  20  21
ATOM     21  C   UNL     1       0.974  -6.991  -5.675  0.00  0.00    +0.259 C 
ATOM     22  C   UNL     1      -0.356  -7.743  -5.593  0.00  0.00    +0.062 C 
BRANCH  21  23
ATOM     23  C   UNL     1       1.752  -7.475  -6.872  0.00  0.00    +0.258 C 
ATOM     24  O   UNL     1       2.060  -6.697  -7.750  0.00  0.00    -0.271 OA
ATOM     25  N   UNL     1       2.105  -8.772  -6.966  0.00  0.00    -0.282 N 
ATOM     26  H   UNL     1       1.794  -9.409  -6.304  0.00  0.00    +0.155 HD
BRANCH  25  27
ATOM     27  C   UNL     1       2.920  -9.201  -8.021  0.00  0.00    +0.034 A 
ATOM     28  C   UNL     1       2.752 -10.470  -8.558  0.00  0.00    +0.025 A 
ATOM     29  C   UNL     1       3.558 -10.891  -9.598  0.00  0.00    +0.022 A 
ATOM     30  C   UNL     1       4.532 -10.048 -10.104  0.00  0.00    +0.041 A 
ATOM     31  C   UNL     1       4.700  -8.782  -9.571  0.00  0.00    +0.022 A 
ATOM     32  C   UNL     1       3.894  -8.355  -8.535  0.00  0.00    +0.025 A 
ATOM     33 CL   UNL     1       5.543 -10.580 -11.411  0.00  0.00    -0.084 Cl
ENDBRANCH  25  27
ENDBRANCH  21  23
ENDBRANCH  20  21
ENDBRANCH  18  20
ENDBRANCH   1  18
TORSDOF 6
