REMARK  Name = ZINC22321596
REMARK  11 active torsions:
REMARK  status: ('A' for Active; 'I' for Inactive)
REMARK    1  A    between atoms: C_1  and  C_2
REMARK    2  A    between atoms: C_5  and  S_8
REMARK    3  A    between atoms: S_8  and  N_11
REMARK    4  A    between atoms: N_11  and  C_12
REMARK    5  A    between atoms: N_11  and  C_29
REMARK    6  A    between atoms: C_12  and  C_13
REMARK    7  A    between atoms: N_15  and  C_16
REMARK    8  A    between atoms: C_19  and  C_27
REMARK    9  A    between atoms: C_19  and  C_28
REMARK   10  A    between atoms: C_32  and  O_35
REMARK   11  A    between atoms: O_35  and  C_36
REMARK                            x       y       z     vdW  Elec       q    Type
REMARK                         _______ _______ _______ _____ _____    ______ ____
ROOT
ATOM      1  N   UNL     1       2.395   1.055  -0.025  0.00  0.00    -0.194 N 
ENDROOT
BRANCH   1   2
ATOM      2  C   UNL     1       2.864   0.521   1.181  0.00  0.00    +0.052 A 
ATOM      3  C   UNL     1       4.200   0.165   1.309  0.00  0.00    +0.028 A 
ATOM      4  C   UNL     1       4.664  -0.357   2.501  0.00  0.00    +0.047 A 
ATOM      5  C   UNL     1       3.793  -0.535   3.566  0.00  0.00    +0.120 A 
ATOM      6  C   UNL     1       2.457  -0.184   3.437  0.00  0.00    +0.047 A 
ATOM      7  C   UNL     1       1.993   0.343   2.247  0.00  0.00    +0.028 A 
BRANCH   5   8
ATOM      8  O   UNL     1       4.249  -1.054   4.737  0.00  0.00    -0.495 OA
ATOM      9  C   UNL     1       5.636  -1.394   4.800  0.00  0.00    +0.277 C 
ENDBRANCH   5   8
ENDBRANCH   1   2
BRANCH   1  10
ATOM     10  S   UNL     1       2.562   0.197  -1.431  0.00  0.00    +0.075 S 
ATOM     11  O   UNL     1       2.801  -1.153  -1.057  0.00  0.00    -0.150 OA
ATOM     12  O   UNL     1       1.477   0.574  -2.269  0.00  0.00    -0.150 OA
BRANCH  10  17
ATOM     13  C   UNL     1       7.589   2.155  -4.132  0.00  0.00    +0.044 C 
ATOM     14  C   UNL     1       6.333   1.666  -3.458  0.00  0.00    -0.050 A 
ATOM     15  C   UNL     1       6.372   0.539  -2.658  0.00  0.00    +0.005 A 
ATOM     16  C   UNL     1       5.221   0.091  -2.039  0.00  0.00    +0.029 A 
ATOM     17  C   UNL     1       4.030   0.769  -2.220  0.00  0.00    +0.109 A 
ATOM     18  C   UNL     1       3.990   1.893  -3.023  0.00  0.00    +0.029 A 
ATOM     19  C   UNL     1       5.143   2.345  -3.638  0.00  0.00    +0.005 A 
ENDBRANCH  10  17
ENDBRANCH   1  10
BRANCH   1  20
ATOM     20  C   UNL     1       1.756   2.373  -0.043  0.00  0.00    +0.227 C 
BRANCH  20  21
ATOM     21  C   UNL     1       0.294   2.227   0.295  0.00  0.00    +0.233 C 
ATOM     22  O   UNL     1      -0.168   1.131   0.527  0.00  0.00    -0.274 OA
ATOM     23  N   UNL     1      -0.500   3.315   0.333  0.00  0.00    -0.307 N 
ATOM     24  H   UNL     1      -0.081   4.310   0.122  0.00  0.00    +0.149 HD
BRANCH  23  25
ATOM     25  C   UNL     1      -1.923   3.173   0.655  0.00  0.00    +0.110 C 
ATOM     26  C   UNL     1      -2.447   4.488   1.238  0.00  0.00    +0.074 C 
ATOM     27  C   UNL     1      -3.978   4.415   1.290  0.00  0.00    +0.107 C 
ATOM     28  O   UNL     1      -4.470   4.339  -0.049  0.00  0.00    -0.486 OA
ATOM     29  C   UNL     1      -3.909   3.422  -0.880  0.00  0.00    +0.126 A 
ATOM     30  C   UNL     1      -2.689   2.832  -0.598  0.00  0.00    +0.015 A 
ATOM     31  C   UNL     1      -2.152   1.907  -1.477  0.00  0.00    +0.009 A 
ATOM     32  C   UNL     1      -2.829   1.569  -2.633  0.00  0.00    +0.001 A 
ATOM     33  C   UNL     1      -4.049   2.154  -2.916  0.00  0.00    +0.004 A 
ATOM     34  C   UNL     1      -4.588   3.078  -2.044  0.00  0.00    +0.046 A 
ATOM     35  C   UNL     1      -4.531   5.668   1.972  0.00  0.00    +0.055 C 
ATOM     36  C   UNL     1      -4.410   3.171   2.069  0.00  0.00    +0.055 C 
ENDBRANCH  23  25
ENDBRANCH  20  21
ENDBRANCH   1  20
TORSDOF 7
