REMARK  Name = ZINC39469621
REMARK  7 active torsions:
REMARK  status: ('A' for Active; 'I' for Inactive)
REMARK    1  A    between atoms: C_1  and  S_2
REMARK    2  A    between atoms: S_2  and  C_3
REMARK    3  A    between atoms: C_15  and  C_16
REMARK    4  A    between atoms: C_21  and  O_22
REMARK    5  A    between atoms: P_25  and  S_28
REMARK    6  A    between atoms: S_28  and  O_31
REMARK    7  A    between atoms: O_31  and  C_32
REMARK                            x       y       z     vdW  Elec       q    Type
REMARK                         _______ _______ _______ _____ _____    ______ ____
ROOT
ATOM      1  C   UNL     1      -1.702  -0.454   0.016  0.00  0.00    +0.011 C 
ATOM      2  C   UNL     1      -2.650   0.494   0.024  0.00  0.00    -0.010 C 
ATOM      3  C   UNL     1      -4.093   0.075   0.024  0.00  0.00    +0.005 C 
ATOM      4  C   UNL     1      -4.998   1.179  -0.510  0.00  0.00    -0.046 C 
ATOM      5  N   UNL     1      -6.405   0.743  -0.451  0.00  0.00    +0.398 N 
ATOM      6  C   UNL     1      -6.627  -0.458  -1.256  0.00  0.00    -0.020 C 
ATOM      7  C   UNL     1      -5.712  -1.604  -0.802  0.00  0.00    -0.003 C 
ATOM      8  C   UNL     1      -4.257  -1.151  -0.884  0.00  0.00    +0.016 C 
ATOM      9  C   UNL     1      -3.321  -2.232  -0.418  0.00  0.00    -0.013 C 
ATOM     10  C   UNL     1      -2.097  -1.883   0.012  0.00  0.00    -0.005 C 
ATOM     11  C   UNL     1      -8.067  -0.968  -1.117  0.00  0.00    +0.158 C 
ATOM     12  O   UNL     1      -8.977   0.037  -1.600  0.00  0.00    -0.301 OA
ATOM     13  P   UNL     1      -8.801   1.553  -1.036  0.00  0.00    +0.431 P 
ATOM     14  O   UNL     1      -9.429   1.680   0.298  0.00  0.00    -0.246 OA
ATOM     15  N   UNL     1      -7.155   1.793  -0.937  0.00  0.00    -0.271 NA
ATOM     16  H   UNL     1      -6.739   2.632  -1.193  0.00  0.00    +0.113 HD
ATOM     17  H   UNL     1      -6.662   0.561   0.507  0.00  0.00    -0.055 HD
ENDROOT
BRANCH  10  18
ATOM     18  C   UNL     1      -1.150  -2.922   0.484  0.00  0.00    +0.024 A 
ATOM     19  C   UNL     1      -0.495  -3.741  -0.433  0.00  0.00    +0.012 A 
ATOM     20  C   UNL     1       0.385  -4.706   0.011  0.00  0.00    +0.001 A 
ATOM     21  C   UNL     1       0.620  -4.864   1.366  0.00  0.00    +0.004 A 
ATOM     22  C   UNL     1      -0.024  -4.057   2.285  0.00  0.00    +0.046 A 
ATOM     23  C   UNL     1      -0.906  -3.080   1.852  0.00  0.00    +0.125 A 
BRANCH  23  24
ATOM     24  O   UNL     1      -1.535  -2.282   2.754  0.00  0.00    -0.506 OA
ATOM     25  H   UNL     1      -2.381  -2.633   3.066  0.00  0.00    +0.292 HD
ENDBRANCH  23  24
ENDBRANCH  10  18
BRANCH  13  26
ATOM     26  S   UNL     1      -9.658   2.944  -2.386  0.00  0.00    +0.209 S 
ATOM     27  O   UNL     1      -9.591   4.216  -1.756  0.00  0.00    -0.126 OA
ATOM     28  O   UNL     1      -9.073   2.691  -3.656  0.00  0.00    -0.126 OA
BRANCH  26  29
ATOM     29  O   UNL     1     -11.135   2.598  -2.511  0.00  0.00    -0.339 OA
BRANCH  29  30
ATOM     30  C   UNL     1     -11.881   2.963  -1.435  0.00  0.00    +0.157 A 
ATOM     31  C   UNL     1     -12.051   2.083  -0.376  0.00  0.00    +0.048 A 
ATOM     32  C   UNL     1     -12.809   2.457   0.716  0.00  0.00    +0.004 A 
ATOM     33  C   UNL     1     -13.400   3.707   0.754  0.00  0.00    +0.000 A 
ATOM     34  C   UNL     1     -13.233   4.585  -0.300  0.00  0.00    +0.004 A 
ATOM     35  C   UNL     1     -12.470   4.219  -1.392  0.00  0.00    +0.048 A 
ENDBRANCH  29  30
ENDBRANCH  26  29
ENDBRANCH  13  26
BRANCH   1  37
ATOM     36  C   UNL     1      -0.022   1.810   0.012  0.00  0.00    +0.090 C 
ATOM     37  S   UNL     1       0.002  -0.004   0.002  0.00  0.00    -0.128 S 
ENDBRANCH   1  37
TORSDOF 6
