REMARK  Name = ZINC32109225
REMARK  10 active torsions:
REMARK  status: ('A' for Active; 'I' for Inactive)
REMARK    1  A    between atoms: C_1  and  C_2
REMARK    2  A    between atoms: C_2  and  C_3
REMARK    3  A    between atoms: C_2  and  C_4
REMARK    4  A    between atoms: C_7  and  O_10
REMARK    5  A    between atoms: O_10  and  C_11
REMARK    6  A    between atoms: C_11  and  C_12
REMARK    7  A    between atoms: N_14  and  N_15
REMARK    8  A    between atoms: C_16  and  C_17
REMARK    9  A    between atoms: C_17  and  C_25
REMARK   10  A    between atoms: C_18  and  C_19
REMARK                            x       y       z     vdW  Elec       q    Type
REMARK                         _______ _______ _______ _____ _____    ______ ____
ROOT
ATOM      1  C   UNL     1       1.700   6.402  -0.859  0.00  0.00    +0.270 C 
ATOM      2  O   UNL     1       0.708   6.817  -0.298  0.00  0.00    -0.270 OA
ATOM      3  N   UNL     1       2.863   7.076  -0.759  0.00  0.00    -0.204 N 
ATOM      4  H   UNL     1       3.763   6.699  -1.268  0.00  0.00    +0.177 HD
ENDROOT
BRANCH   3   5
ATOM      5  N   UNL     1       2.926   8.256  -0.006  0.00  0.00    -0.188 NA
ATOM      6  C   UNL     1       4.072   8.839   0.195  0.00  0.00    +0.133 C 
BRANCH   6   7
ATOM      7  C   UNL     1       5.275   8.095   0.089  0.00  0.00    -0.030 C 
ATOM      8  C   UNL     1       6.466   8.725   0.158  0.00  0.00    +0.012 C 
ATOM      9  C   UNL     1       5.222   6.601  -0.101  0.00  0.00    +0.045 C 
BRANCH   8  10
ATOM     10  C   UNL     1       7.708   7.981  -0.110  0.00  0.00    -0.025 A 
ATOM     11  C   UNL     1       8.877   8.291   0.593  0.00  0.00    +0.008 A 
ATOM     12  C   UNL     1      10.035   7.586   0.341  0.00  0.00    +0.001 A 
ATOM     13  C   UNL     1      10.045   6.582  -0.612  0.00  0.00    +0.000 A 
ATOM     14  C   UNL     1       8.894   6.274  -1.316  0.00  0.00    +0.001 A 
ATOM     15  C   UNL     1       7.726   6.966  -1.071  0.00  0.00    +0.008 A 
ENDBRANCH   8  10
ENDBRANCH   6   7
ENDBRANCH   3   5
BRANCH   1  16
ATOM     16  C   UNL     1       1.633   5.132  -1.669  0.00  0.00    +0.326 C 
BRANCH  16  17
ATOM     17  O   UNL     1       0.304   4.608  -1.623  0.00  0.00    -0.483 OA
BRANCH  17  21
ATOM     18  C   UNL     1      -0.404   1.114  -3.699  0.00  0.00    -0.045 A 
ATOM     19  C   UNL     1      -1.431   1.723  -3.001  0.00  0.00    +0.007 A 
ATOM     20  C   UNL     1      -1.196   2.892  -2.305  0.00  0.00    +0.046 A 
ATOM     21  C   UNL     1       0.071   3.457  -2.306  0.00  0.00    +0.121 A 
ATOM     22  C   UNL     1       1.100   2.845  -3.007  0.00  0.00    +0.046 A 
ATOM     23  C   UNL     1       0.860   1.675  -3.702  0.00  0.00    +0.007 A 
BRANCH  18  25
ATOM     24  C   UNL     1      -0.358   0.055  -5.941  0.00  0.00    +0.012 C 
ATOM     25  C   UNL     1      -0.663  -0.162  -4.457  0.00  0.00    +0.013 C 
ATOM     26  C   UNL     1       0.237  -1.272  -3.909  0.00  0.00    +0.012 C 
ENDBRANCH  18  25
ENDBRANCH  17  21
ENDBRANCH  16  17
ENDBRANCH   1  16
TORSDOF 7
