REMARK  Name = ZINC63732964
REMARK  7 active torsions:
REMARK  status: ('A' for Active; 'I' for Inactive)
REMARK    1  A    between atoms: C_1  and  C_2
REMARK    2  A    between atoms: C_4  and  C_14
REMARK    3  A    between atoms: C_5  and  C_13
REMARK    4  A    between atoms: C_14  and  C_15
REMARK    5  A    between atoms: N_17  and  C_18
REMARK    6  A    between atoms: C_18  and  C_19
REMARK    7  A    between atoms: C_19  and  C_20
REMARK                            x       y       z     vdW  Elec       q    Type
REMARK                         _______ _______ _______ _____ _____    ______ ____
ROOT
ATOM      1  C   UNL     1       0.878  -2.401  -2.840  0.00  0.00    +0.214 C 
ATOM      2  O   UNL     1       1.552  -1.641  -3.504  0.00  0.00    -0.276 OA
ATOM      3  N   UNL     1       0.586  -3.629  -3.311  0.00  0.00    -0.315 N 
ATOM      4  H   UNL     1       0.047  -4.237  -2.781  0.00  0.00    +0.149 HD
ENDROOT
BRANCH   1   5
ATOM      5  C   UNL     1       0.368  -1.971  -1.489  0.00  0.00    +0.107 C 
BRANCH   5   8
ATOM      6  C   UNL     1       0.552   1.749  -2.361  0.00  0.00    +0.033 C 
ATOM      7  C   UNL     1      -0.082   0.361  -2.256  0.00  0.00    +0.117 C 
ATOM      8  C   UNL     1       0.708  -0.496  -1.261  0.00  0.00    +0.066 C 
ATOM      9  C   UNL     1       0.377  -0.129   0.157  0.00  0.00    +0.025 C 
ATOM     10  N   UNL     1      -0.793   0.293   0.517  0.00  0.00    -0.220 NA
ATOM     11  C   UNL     1      -1.759   0.440  -0.437  0.00  0.00    +0.250 A 
ATOM     12  N   UNL     1      -1.454   0.480  -1.763  0.00  0.00    -0.224 N 
ATOM     13  N   UNL     1      -2.653   0.643  -2.449  0.00  0.00    -0.132 NA
ATOM     14  C   UNL     1      -3.606   0.688  -1.540  0.00  0.00    +0.234 A 
ATOM     15  N   UNL     1      -3.058   0.564  -0.323  0.00  0.00    -0.177 NA
ATOM     16  N   UNL     1      -4.967   0.842  -1.803  0.00  0.00    -0.326 N 
ATOM     17  C   UNL     1       1.452  -0.256   1.205  0.00  0.00    +0.061 C 
ATOM     18  H   UNL     1      -5.278   0.926  -2.718  0.00  0.00    +0.145 HD
ATOM     19  H   UNL     1      -5.603   0.865  -1.071  0.00  0.00    +0.145 HD
ENDBRANCH   5   8
ENDBRANCH   1   5
BRANCH   3  20
ATOM     20  C   UNL     1       1.082  -4.047  -4.625  0.00  0.00    +0.108 C 
BRANCH  20  21
ATOM     21  C   UNL     1       0.611  -5.473  -4.918  0.00  0.00    +0.052 C 
BRANCH  21  22
ATOM     22  C   UNL     1       1.121  -5.903  -6.269  0.00  0.00    -0.040 C 
ATOM     23  C   UNL     1       2.244  -6.612  -6.526  0.00  0.00    -0.001 A 
ATOM     24  C   UNL     1       3.287  -7.173  -5.659  0.00  0.00    +0.010 A 
ATOM     25  C   UNL     1       4.314  -7.850  -6.221  0.00  0.00    +0.001 A 
ATOM     26  C   UNL     1       4.408  -8.028  -7.608  0.00  0.00    +0.002 A 
ATOM     27  C   UNL     1       3.489  -7.543  -8.469  0.00  0.00    +0.026 A 
ATOM     28  C   UNL     1       2.366  -6.815  -7.988  0.00  0.00    +0.043 A 
ATOM     29  N   UNL     1       1.358  -6.253  -8.610  0.00  0.00    -0.380 N 
ATOM     30  C   UNL     1       0.478  -5.634  -7.611  0.00  0.00    +0.144 C 
ATOM     31  H   UNL     1       1.216  -6.250  -9.569  0.00  0.00    +0.160 HD
ENDBRANCH  21  22
ENDBRANCH  20  21
ENDBRANCH   3  20
TORSDOF 5
