REMARK  Name = ZINC64136923
REMARK  6 active torsions:
REMARK  status: ('A' for Active; 'I' for Inactive)
REMARK    1  A    between atoms: C_1  and  C_2
REMARK    2  A    between atoms: C_2  and  C_3
REMARK    3  A    between atoms: C_6  and  C_9
REMARK    4  A    between atoms: N_10  and  N_11
REMARK    5  A    between atoms: C_12  and  C_14
REMARK    6  A    between atoms: C_17  and  C_19
REMARK                            x       y       z     vdW  Elec       q    Type
REMARK                         _______ _______ _______ _____ _____    ______ ____
ROOT
ATOM      1  N   UNL     1       4.631  -2.517  -5.861  0.00  0.00    -0.202 N 
ATOM      2  C   UNL     1       5.962  -2.729  -5.840  0.00  0.00    +0.280 C 
ATOM      3  O   UNL     1       6.595  -2.527  -4.820  0.00  0.00    -0.267 OA
ATOM      4  H   UNL     1       4.128  -2.678  -6.674  0.00  0.00    +0.178 HD
ENDROOT
BRANCH   2   5
ATOM      5  C   UNL     1       6.648  -3.203  -7.046  0.00  0.00    +0.132 C 
ATOM      6  N   UNL     1       6.119  -3.460  -8.214  0.00  0.00    -0.148 NA
ATOM      7  N   UNL     1       6.952  -3.861  -9.092  0.00  0.00    -0.153 NA
ATOM      8  C   UNL     1       8.190  -3.943  -8.664  0.00  0.00    +0.078 C 
ATOM      9  C   UNL     1       8.130  -3.496  -7.213  0.00  0.00    +0.120 C 
BRANCH   8  10
ATOM     10  C   UNL     1       9.372  -4.369  -9.421  0.00  0.00    +0.017 A 
ATOM     11  C   UNL     1      10.629  -4.405  -8.804  0.00  0.00    +0.011 A 
ATOM     12  C   UNL     1      11.734  -4.806  -9.522  0.00  0.00    +0.001 A 
ATOM     13  C   UNL     1      11.606  -5.173 -10.852  0.00  0.00    +0.001 A 
ATOM     14  C   UNL     1      10.369  -5.141 -11.471  0.00  0.00    +0.020 A 
ATOM     15  C   UNL     1       9.250  -4.747 -10.766  0.00  0.00    +0.050 A 
ATOM     16 CL   UNL     1       7.698  -4.714 -11.543  0.00  0.00    -0.083 Cl
ENDBRANCH   8  10
ENDBRANCH   2   5
BRANCH   1  18
ATOM     17  C   UNL     1       2.694  -1.860  -4.729  0.00  0.00    +0.138 C 
ATOM     18  N   UNL     1       3.976  -2.064  -4.709  0.00  0.00    -0.187 NA
BRANCH  17  22
ATOM     19  C   UNL     1       0.707  -0.490  -1.238  0.00  0.00    -0.048 A 
ATOM     20  C   UNL     1      -0.015  -0.718  -2.396  0.00  0.00    +0.004 A 
ATOM     21  C   UNL     1       0.624  -1.163  -3.535  0.00  0.00    +0.010 A 
ATOM     22  C   UNL     1       2.004  -1.384  -3.517  0.00  0.00    -0.005 A 
ATOM     23  C   UNL     1       2.726  -1.151  -2.343  0.00  0.00    +0.010 A 
ATOM     24  C   UNL     1       2.075  -0.701  -1.214  0.00  0.00    +0.004 A 
BRANCH  19  26
ATOM     25  C   UNL     1      -0.019   1.526   0.010  0.00  0.00    +0.009 C 
ATOM     26  C   UNL     1       0.002  -0.004   0.002  0.00  0.00    +0.032 C 
ENDBRANCH  19  26
ENDBRANCH  17  22
ENDBRANCH   1  18
TORSDOF 5
