REMARK  Name = ZINC41168722
REMARK  5 active torsions:
REMARK  status: ('A' for Active; 'I' for Inactive)
REMARK    1  A    between atoms: C_1  and  C_2
REMARK    2  A    between atoms: C_6  and  C_15
REMARK    3  A    between atoms: C_13  and  C_14
REMARK    4  A    between atoms: C_15  and  N_16
REMARK    5  A    between atoms: C_17  and  C_19
REMARK                            x       y       z     vdW  Elec       q    Type
REMARK                         _______ _______ _______ _____ _____    ______ ____
ROOT
ATOM      1  C   UNL     1       0.053  -4.980  -3.675  0.00  0.00    +0.145 C 
ENDROOT
BRANCH   1   7
ATOM      2  C   UNL     1      -0.018   1.503   0.010  0.00  0.00    +0.044 C 
ATOM      3  C   UNL     1       0.002  -0.004   0.002  0.00  0.00    -0.047 A 
ATOM      4  C   UNL     1       0.005  -0.675  -1.188  0.00  0.00    +0.013 A 
ATOM      5  C   UNL     1       0.025  -2.073  -1.196  0.00  0.00    -0.001 A 
ATOM      6  C   UNL     1       0.029  -2.823  -2.454  0.00  0.00    +0.020 A 
ATOM      7  C   UNL     1       0.048  -4.178  -2.399  0.00  0.00    +0.034 A 
ATOM      8  C   UNL     1       0.063  -4.839  -1.153  0.00  0.00    +0.254 A 
ATOM      9  O   UNL     1       0.080  -6.058  -1.127  0.00  0.00    -0.268 OA
ATOM     10  N   UNL     1       0.059  -4.159   0.007  0.00  0.00    -0.322 N 
ATOM     11  H   UNL     1       0.070  -4.645   0.846  0.00  0.00    +0.169 HD
ATOM     12  C   UNL     1       0.040  -2.781   0.021  0.00  0.00    +0.049 A 
ATOM     13  C   UNL     1       0.035  -2.077   1.220  0.00  0.00    +0.030 A 
ATOM     14  C   UNL     1       0.023  -0.698   1.204  0.00  0.00    -0.046 A 
ATOM     15  C   UNL     1       0.025   0.063   2.505  0.00  0.00    +0.044 C 
ENDBRANCH   1   7
BRANCH   1  16
ATOM     16  N   UNL     1       1.432  -5.323  -4.031  0.00  0.00    -0.311 N 
ATOM     17  C   UNL     1       1.682  -6.043  -5.142  0.00  0.00    +0.219 C 
ATOM     18  O   UNL     1       0.765  -6.408  -5.848  0.00  0.00    -0.275 OA
ATOM     19  H   UNL     1       2.166  -5.032  -3.467  0.00  0.00    +0.149 HD
BRANCH  17  20
ATOM     20  C   UNL     1       3.101  -6.396  -5.508  0.00  0.00    +0.048 C 
ATOM     21  C   UNL     1       3.910  -5.113  -5.710  0.00  0.00    +0.019 C 
ATOM     22  C   UNL     1       5.350  -5.471  -6.082  0.00  0.00    -0.009 C 
ATOM     23  C   UNL     1       5.355  -6.286  -7.377  0.00  0.00    +0.007 C 
ATOM     24  C   UNL     1       4.546  -7.569  -7.175  0.00  0.00    -0.009 C 
ATOM     25  C   UNL     1       3.106  -7.211  -6.804  0.00  0.00    +0.019 C 
ATOM     26  C   UNL     1       5.173  -8.395  -6.051  0.00  0.00    +0.007 C 
ATOM     27  C   UNL     1       5.168  -7.581  -4.755  0.00  0.00    -0.009 C 
ATOM     28  C   UNL     1       5.977  -6.298  -4.957  0.00  0.00    +0.007 C 
ATOM     29  C   UNL     1       3.728  -7.223  -4.384  0.00  0.00    +0.019 C 
ENDBRANCH  17  20
ENDBRANCH   1  16
TORSDOF 3
