REMARK  Name = ZINC21250632
REMARK  7 active torsions:
REMARK  status: ('A' for Active; 'I' for Inactive)
REMARK    1  A    between atoms: C_1  and  C_2
REMARK    2  A    between atoms: C_2  and  O_3
REMARK    3  A    between atoms: O_3  and  C_4
REMARK    4  A    between atoms: C_7  and  C_12
REMARK    5  A    between atoms: C_9  and  O_10
REMARK    6  A    between atoms: O_10  and  C_11
REMARK    7  A    between atoms: C_17  and  C_27
REMARK                            x       y       z     vdW  Elec       q    Type
REMARK                         _______ _______ _______ _____ _____    ______ ____
ROOT
ATOM      1  C   UNL     1      -0.854   1.563  -1.265  0.00  0.00    +0.032 C 
ATOM      2  C   UNL     1      -2.306   1.105  -1.137  0.00  0.00    +0.059 C 
ATOM      3  C   UNL     1      -2.912   1.661   0.142  0.00  0.00    +0.017 C 
ATOM      4  C   UNL     1      -2.150   1.841   1.233  0.00  0.00    +0.036 C 
ATOM      5  C   UNL     1      -2.624   2.361   2.570  0.00  0.00    +0.136 C 
ATOM      6  N   UNL     1      -3.957   2.924   2.554  0.00  0.00    -0.331 N 
ATOM      7  C   UNL     1      -5.070   2.131   2.278  0.00  0.00    +0.049 A 
ATOM      8  C   UNL     1      -6.047   1.896   3.232  0.00  0.00    +0.025 A 
ATOM      9  C   UNL     1      -7.110   1.065   2.927  0.00  0.00    +0.002 A 
ATOM     10  C   UNL     1      -7.199   0.470   1.681  0.00  0.00    +0.002 A 
ATOM     11  C   UNL     1      -6.233   0.716   0.720  0.00  0.00    +0.025 A 
ATOM     12  C   UNL     1      -5.180   1.564   1.018  0.00  0.00    +0.052 A 
ATOM     13  N   UNL     1      -4.238   1.937   0.067  0.00  0.00    -0.316 N 
ATOM     14  C   UNL     1      -0.764   1.538   1.198  0.00  0.00    +0.163 C 
ATOM     15  O   UNL     1      -0.100   1.689   2.205  0.00  0.00    -0.292 OA
ATOM     16  C   UNL     1      -0.089   1.038  -0.044  0.00  0.00    +0.088 C 
ATOM     17  H   UNL     1      -4.105   3.994   2.763  0.00  0.00    +0.147 HD
ATOM     18  H   UNL     1      -4.636   2.495  -0.794  0.00  0.00    +0.152 HD
ENDROOT
BRANCH   5  19
ATOM     19  C   UNL     1      -2.599   1.225   3.560  0.00  0.00    -0.023 A 
ATOM     20  C   UNL     1      -1.755   1.281   4.654  0.00  0.00    +0.008 A 
ATOM     21  C   UNL     1      -1.735   0.243   5.565  0.00  0.00    +0.038 A 
ATOM     22  C   UNL     1      -2.552  -0.859   5.377  0.00  0.00    +0.123 A 
ATOM     23  C   UNL     1      -3.393  -0.916   4.279  0.00  0.00    +0.038 A 
ATOM     24  C   UNL     1      -3.416   0.126   3.371  0.00  0.00    +0.008 A 
ATOM     25  F   UNL     1      -2.530  -1.877   6.265  0.00  0.00    -0.205 F 
ENDBRANCH   5  19
BRANCH   1  29
ATOM     26  C   UNL     1       0.858  -0.037  -4.843  0.00  0.00    +0.162 A 
ATOM     27  C   UNL     1       0.340  -0.887  -3.879  0.00  0.00    +0.050 A 
ATOM     28  C   UNL     1      -0.212  -0.367  -2.723  0.00  0.00    +0.008 A 
ATOM     29  C   UNL     1      -0.250   1.001  -2.526  0.00  0.00    -0.040 A 
ATOM     30  C   UNL     1       0.261   1.855  -3.486  0.00  0.00    +0.053 A 
ATOM     31  C   UNL     1       0.821   1.339  -4.644  0.00  0.00    +0.162 A 
BRANCH  31  32
ATOM     32  O   UNL     1       1.328   2.178  -5.588  0.00  0.00    -0.491 OA
ATOM     33  C   UNL     1       1.256   3.579  -5.317  0.00  0.00    +0.277 C 
ENDBRANCH  31  32
BRANCH  26  34
ATOM     34  O   UNL     1       1.401  -0.548  -5.980  0.00  0.00    -0.489 OA
BRANCH  34  36
ATOM     35  C   UNL     1       2.051  -2.354  -7.449  0.00  0.00    +0.048 C 
ATOM     36  C   UNL     1       1.405  -1.970  -6.116  0.00  0.00    +0.226 C 
ENDBRANCH  34  36
ENDBRANCH  26  34
ENDBRANCH   1  29
TORSDOF 5
