REMARK  Name = ZINC04995518
REMARK  8 active torsions:
REMARK  status: ('A' for Active; 'I' for Inactive)
REMARK    1  A    between atoms: C_1  and  C_2
REMARK    2  A    between atoms: C_2  and  C_3
REMARK    3  A    between atoms: C_3  and  C_4
REMARK    4  A    between atoms: C_4  and  O_5
REMARK    5  A    between atoms: O_5  and  C_6
REMARK    6  A    between atoms: C_6  and  C_8
REMARK    7  A    between atoms: C_9  and  N_29
REMARK    8  A    between atoms: N_20  and  C_23
REMARK                            x       y       z     vdW  Elec       q    Type
REMARK                         _______ _______ _______ _____ _____    ______ ____
ROOT
ATOM      1  C   UNL     1       2.178  -4.345  -3.724  0.00  0.00    +0.117 C 
ATOM      2  C   UNL     1       2.348  -5.688  -3.849  0.00  0.00    +0.195 C 
ATOM      3  O   UNL     1       2.938  -6.213  -4.934  0.00  0.00    -0.446 OA
ATOM      4  C   UNL     1       3.731  -5.457  -5.718  0.00  0.00    +0.115 C 
ATOM      5  C   UNL     1       3.650  -4.113  -5.701  0.00  0.00    +0.057 C 
ATOM      6  C   UNL     1       2.651  -3.421  -4.808  0.00  0.00    +0.141 C 
ATOM      7  C   UNL     1       1.498  -2.894  -5.606  0.00  0.00    -0.002 A 
ATOM      8  C   UNL     1       0.554  -3.534  -6.379  0.00  0.00    +0.007 A 
ATOM      9  C   UNL     1      -0.400  -2.736  -6.999  0.00  0.00    +0.000 A 
ATOM     10  C   UNL     1      -0.400  -1.364  -6.845  0.00  0.00    +0.002 A 
ATOM     11  C   UNL     1       0.546  -0.713  -6.069  0.00  0.00    +0.024 A 
ATOM     12  C   UNL     1       1.510  -1.504  -5.441  0.00  0.00    +0.041 A 
ATOM     13  N   UNL     1       2.558  -1.125  -4.620  0.00  0.00    -0.273 N 
ATOM     14  C   UNL     1       3.280  -2.185  -4.201  0.00  0.00    +0.240 C 
ATOM     15  O   UNL     1       4.251  -2.153  -3.475  0.00  0.00    -0.274 OA
ATOM     16  C   UNL     1       2.848   0.262  -4.249  0.00  0.00    +0.138 C 
ATOM     17  C   UNL     1       4.488  -3.320  -6.509  0.00  0.00    +0.164 C 
ATOM     18  O   UNL     1       4.375  -2.111  -6.478  0.00  0.00    -0.292 OA
ATOM     19  C   UNL     1       5.519  -3.943  -7.410  0.00  0.00    +0.080 C 
ATOM     20  C   UNL     1       5.956  -5.285  -6.812  0.00  0.00    +0.016 C 
ATOM     21  C   UNL     1       4.714  -6.159  -6.624  0.00  0.00    +0.075 C 
ENDROOT
BRANCH   2  22
ATOM     22  N   UNL     1       1.911  -6.519  -2.852  0.00  0.00    -0.329 N 
ATOM     23  H   UNL     1       1.407  -6.157  -2.106  0.00  0.00    +0.145 HD
ATOM     24  H   UNL     1       2.107  -7.468  -2.891  0.00  0.00    +0.145 HD
ENDBRANCH   2  22
BRANCH   1  25
ATOM     25  C   UNL     1       1.553  -3.821  -2.582  0.00  0.00    +0.342 C 
ATOM     26  O   UNL     1       0.387  -3.475  -2.630  0.00  0.00    -0.245 OA
BRANCH  25  27
ATOM     27  O   UNL     1       2.246  -3.702  -1.428  0.00  0.00    -0.461 OA
BRANCH  27  28
ATOM     28  C   UNL     1       1.547  -3.161  -0.305  0.00  0.00    +0.232 C 
BRANCH  28  29
ATOM     29  C   UNL     1       2.487  -3.103   0.901  0.00  0.00    +0.041 C 
BRANCH  29  31
ATOM     30  C   UNL     1       2.680  -2.467   3.309  0.00  0.00    +0.004 C 
ATOM     31  C   UNL     1       1.740  -2.525   2.103  0.00  0.00    -0.000 C 
ENDBRANCH  29  31
ENDBRANCH  28  29
ENDBRANCH  27  28
ENDBRANCH  25  27
ENDBRANCH   1  25
TORSDOF 6
