REMARK  Name = ZINC20724300
REMARK  10 active torsions:
REMARK  status: ('A' for Active; 'I' for Inactive)
REMARK    1  A    between atoms: C_1  and  C_2
REMARK    2  A    between atoms: C_7  and  N_8
REMARK    3  A    between atoms: N_8  and  C_9
REMARK    4  A    between atoms: C_9  and  N_11
REMARK    5  A    between atoms: N_11  and  C_12
REMARK    6  A    between atoms: C_14  and  S_25
REMARK    7  A    between atoms: C_17  and  N_18
REMARK    8  A    between atoms: C_21  and  C_24
REMARK    9  A    between atoms: S_25  and  N_28
REMARK   10  A    between atoms: C_31  and  C_34
REMARK                            x       y       z     vdW  Elec       q    Type
REMARK                         _______ _______ _______ _____ _____    ______ ____
ROOT
ATOM      1  C   UNL     1       1.664   3.650  -5.993  0.00  0.00    +0.056 A 
ATOM      2  C   UNL     1       0.953   4.677  -5.391  0.00  0.00    +0.053 A 
ATOM      3  C   UNL     1       1.426   5.255  -4.227  0.00  0.00    +0.107 A 
ATOM      4  C   UNL     1       2.610   4.815  -3.663  0.00  0.00    +0.030 A 
ATOM      5  C   UNL     1       3.321   3.787  -4.253  0.00  0.00    +0.027 A 
ATOM      6  C   UNL     1       2.854   3.202  -5.421  0.00  0.00    +0.051 A 
ENDROOT
BRANCH   6   7
ATOM      7  N   UNL     1       3.576   2.165  -6.023  0.00  0.00    -0.328 N 
ATOM      8  C   UNL     1       4.903   2.023  -5.411  0.00  0.00    +0.105 C 
ATOM      9  C   UNL     1       5.715   0.983  -6.187  0.00  0.00    +0.022 C 
ATOM     10  C   UNL     1       4.975  -0.357  -6.162  0.00  0.00    -0.011 C 
ATOM     11  C   UNL     1       3.578  -0.171  -6.761  0.00  0.00    +0.022 C 
ATOM     12  C   UNL     1       2.828   0.903  -5.969  0.00  0.00    +0.105 C 
ATOM     13  C   UNL     1       5.751  -1.385  -6.987  0.00  0.00    +0.007 C 
ENDBRANCH   6   7
BRANCH   3  14
ATOM     14  S   UNL     1       0.522   6.561  -3.464  0.00  0.00    +0.061 S 
ATOM     15  O   UNL     1      -0.264   7.160  -4.485  0.00  0.00    -0.153 OA
ATOM     16  O   UNL     1       1.454   7.300  -2.687  0.00  0.00    -0.153 OA
BRANCH  14  17
ATOM     17  N   UNL     1      -0.538   5.865  -2.398  0.00  0.00    -0.177 NA
ATOM     18  C   UNL     1      -0.144   5.621  -1.004  0.00  0.00    +0.110 C 
ATOM     19  C   UNL     1      -0.393   4.146  -0.672  0.00  0.00    +0.020 C 
ATOM     20  C   UNL     1      -1.849   3.796  -0.985  0.00  0.00    -0.012 C 
ATOM     21  C   UNL     1      -2.117   4.007  -2.477  0.00  0.00    +0.020 C 
ATOM     22  C   UNL     1      -1.889   5.480  -2.829  0.00  0.00    +0.110 C 
ATOM     23  C   UNL     1      -2.110   2.332  -0.622  0.00  0.00    +0.007 C 
ENDBRANCH  14  17
ENDBRANCH   3  14
BRANCH   1  24
ATOM     24  N   UNL     1       1.187   3.063  -7.173  0.00  0.00    -0.295 N 
ATOM     25  H   UNL     1       1.869   2.895  -8.019  0.00  0.00    +0.154 HD
BRANCH  24  26
ATOM     26  C   UNL     1      -0.109   2.704  -7.271  0.00  0.00    +0.139 C 
ATOM     27  S   UNL     1      -1.199   3.076  -6.004  0.00  0.00    -0.018 S 
BRANCH  26  28
ATOM     28  N   UNL     1      -0.546   2.053  -8.367  0.00  0.00    -0.296 N 
ATOM     29  H   UNL     1       0.168   1.742  -9.144  0.00  0.00    +0.154 HD
BRANCH  28  36
ATOM     30  C   UNL     1      -1.770   2.623 -10.871  0.00  0.00    +0.045 C 
ATOM     31  C   UNL     1      -2.545   2.033  -9.721  0.00  0.00    -0.029 A 
ATOM     32  C   UNL     1      -3.890   1.754  -9.866  0.00  0.00    +0.006 A 
ATOM     33  C   UNL     1      -4.603   1.213  -8.812  0.00  0.00    +0.020 A 
ATOM     34  C   UNL     1      -3.971   0.949  -7.609  0.00  0.00    +0.043 A 
ATOM     35  C   UNL     1      -2.625   1.223  -7.460  0.00  0.00    +0.043 A 
ATOM     36  C   UNL     1      -1.908   1.771  -8.516  0.00  0.00    +0.037 A 
ATOM     37 CL   UNL     1      -4.870   0.270  -6.288  0.00  0.00    -0.083 Cl
ENDBRANCH  28  36
ENDBRANCH  26  28
ENDBRANCH  24  26
ENDBRANCH   1  24
TORSDOF 7
