REMARK  Name = ZINC08951481
REMARK  8 active torsions:
REMARK  status: ('A' for Active; 'I' for Inactive)
REMARK    1  A    between atoms: C_1  and  C_2
REMARK    2  A    between atoms: C_2  and  C_33
REMARK    3  A    between atoms: N_6  and  C_7
REMARK    4  A    between atoms: C_10  and  S_13
REMARK    5  A    between atoms: S_13  and  N_16
REMARK    6  A    between atoms: N_16  and  C_17
REMARK    7  A    between atoms: C_26  and  O_31
REMARK    8  A    between atoms: O_31  and  C_32
REMARK                            x       y       z     vdW  Elec       q    Type
REMARK                         _______ _______ _______ _____ _____    ______ ____
ROOT
ATOM      1  C   UNL     1      -0.019   1.526   0.010  0.00  0.00    +0.037 C 
ATOM      2  C   UNL     1       0.002  -0.004   0.002  0.00  0.00    +0.059 C 
ATOM      3  C   UNL     1       0.725  -0.495  -1.236  0.00  0.00    +0.030 A 
ATOM      4  C   UNL     1       2.067  -0.761  -1.278  0.00  0.00    +0.029 A 
ATOM      5  C   UNL     1       2.800  -1.175  -2.429  0.00  0.00    +0.117 A 
ATOM      6  N   UNL     1       4.109  -1.400  -2.485  0.00  0.00    -0.240 NA
ATOM      7  S   UNL     1       1.645  -1.337  -3.782  0.00  0.00    -0.032 S 
ATOM      8  S   UNL     1      -0.043  -0.770  -2.707  0.00  0.00    -0.052 S 
ATOM      9  C   UNL     1       2.827  -0.623   0.023  0.00  0.00    +0.010 A 
ATOM     10  C   UNL     1       4.213  -0.646   0.024  0.00  0.00    +0.056 A 
ATOM     11  C   UNL     1       4.891  -0.503   1.227  0.00  0.00    +0.121 A 
ATOM     12  C   UNL     1       4.182  -0.338   2.409  0.00  0.00    +0.047 A 
ATOM     13  C   UNL     1       2.799  -0.320   2.406  0.00  0.00    +0.027 A 
ATOM     14  C   UNL     1       2.112  -0.469   1.211  0.00  0.00    +0.036 A 
ATOM     15  N   UNL     1       0.712  -0.493   1.190  0.00  0.00    -0.334 N 
ATOM     16  C   UNL     1      -1.432  -0.536   0.006  0.00  0.00    +0.037 C 
ATOM     17  H   UNL     1       0.216  -0.829   1.954  0.00  0.00    +0.147 HD
ENDROOT
BRANCH   6  18
ATOM     18  C   UNL     1       4.684  -1.794  -3.657  0.00  0.00    +0.065 A 
ATOM     19  C   UNL     1       4.081  -2.787  -4.437  0.00  0.00    +0.030 A 
ATOM     20  C   UNL     1       4.668  -3.179  -5.621  0.00  0.00    +0.031 A 
ATOM     21  C   UNL     1       5.851  -2.593  -6.039  0.00  0.00    +0.111 A 
ATOM     22  C   UNL     1       6.454  -1.611  -5.273  0.00  0.00    +0.031 A 
ATOM     23  C   UNL     1       5.876  -1.203  -4.089  0.00  0.00    +0.030 A 
BRANCH  21  24
ATOM     24  S   UNL     1       6.593  -3.102  -7.554  0.00  0.00    +0.093 S 
ATOM     25  O   UNL     1       7.976  -2.791  -7.453  0.00  0.00    -0.148 OA
ATOM     26  O   UNL     1       6.125  -4.418  -7.814  0.00  0.00    -0.148 OA
BRANCH  24  27
ATOM     27  N   UNL     1       5.977  -2.135  -8.749  0.00  0.00    -0.070 NA
BRANCH  27  28
ATOM     28  C   UNL     1       6.387  -2.310 -10.062  0.00  0.00    +0.201 A 
ATOM     29  N   UNL     1       7.243  -3.187 -10.542  0.00  0.00    -0.231 NA
ATOM     30  C   UNL     1       7.529  -3.226 -11.831  0.00  0.00    +0.120 A 
ATOM     31  C   UNL     1       6.904  -2.327 -12.628  0.00  0.00    +0.068 A 
ATOM     32  S   UNL     1       5.905  -1.458 -11.431  0.00  0.00    -0.058 S 
ENDBRANCH  27  28
ENDBRANCH  24  27
ENDBRANCH  21  24
ENDBRANCH   6  18
BRANCH  11  33
ATOM     33  O   UNL     1       6.250  -0.526   1.248  0.00  0.00    -0.495 OA
ATOM     34  C   UNL     1       6.882  -0.373   2.521  0.00  0.00    +0.277 C 
ENDBRANCH  11  33
TORSDOF 5
