REMARK  Name = ZINC22836898
REMARK  7 active torsions:
REMARK  status: ('A' for Active; 'I' for Inactive)
REMARK    1  A    between atoms: C_9  and  C_12
REMARK    2  A    between atoms: C_12  and  N_13
REMARK    3  A    between atoms: C_14  and  C_16
REMARK    4  A    between atoms: C_16  and  C_17
REMARK    5  A    between atoms: C_17  and  S_18
REMARK    6  A    between atoms: S_18  and  C_19
REMARK    7  A    between atoms: C_19  and  C_20
REMARK                            x       y       z     vdW  Elec       q    Type
REMARK                         _______ _______ _______ _____ _____    ______ ____
ROOT
ATOM      1  C   UNL     1       9.719  -2.552   0.932  0.00  0.00    +0.079 C 
ENDROOT
BRANCH   1   2
ATOM      2  C   UNL     1       8.396  -1.901   1.337  0.00  0.00    +0.106 C 
BRANCH   2   4
ATOM      3  N   UNL     1       6.008  -2.071   0.712  0.00  0.00    -0.312 N 
ATOM      4  C   UNL     1       7.274  -2.495   0.525  0.00  0.00    +0.214 C 
ATOM      5  O   UNL     1       7.510  -3.356  -0.296  0.00  0.00    -0.276 OA
ATOM      6  H   UNL     1       5.820  -1.383   1.369  0.00  0.00    +0.149 HD
BRANCH   3   7
ATOM      7  C   UNL     1       4.918  -2.649  -0.077  0.00  0.00    +0.152 C 
BRANCH   7  16
ATOM      8  C   UNL     1      -0.017   1.378   0.010  0.00  0.00    +0.004 A 
ATOM      9  C   UNL     1       1.170   2.088   0.002  0.00  0.00    +0.004 A 
ATOM     10  C   UNL     1       2.378   1.418  -0.014  0.00  0.00    +0.049 A 
ATOM     11  C   UNL     1       2.404   0.031  -0.023  0.00  0.00    +0.163 A 
ATOM     12  C   UNL     1       1.212  -0.683  -0.013  0.00  0.00    +0.162 A 
ATOM     13  C   UNL     1       0.002  -0.004   0.002  0.00  0.00    +0.049 A 
ATOM     14  O   UNL     1       1.214  -2.044  -0.013  0.00  0.00    -0.485 OA
ATOM     15  C   UNL     1       2.434  -2.685  -0.404  0.00  0.00    +0.275 C 
ATOM     16  C   UNL     1       3.594  -1.997   0.328  0.00  0.00    +0.228 C 
ATOM     17  O   UNL     1       3.602  -0.615  -0.043  0.00  0.00    -0.480 OA
ENDBRANCH   7  16
ENDBRANCH   3   7
ENDBRANCH   2   4
ENDBRANCH   1   2
BRANCH   1  18
ATOM     18  S   UNL     1      11.070  -1.837   1.909  0.00  0.00    -0.153 S 
BRANCH  18  19
ATOM     19  C   UNL     1      12.548  -2.704   1.316  0.00  0.00    +0.143 C 
BRANCH  19  20
ATOM     20  C   UNL     1      13.759  -2.197   2.057  0.00  0.00    +0.121 A 
ATOM     21  N   UNL     1      14.982  -2.710   1.764  0.00  0.00    -0.310 N 
ATOM     22  H   UNL     1      15.059  -3.395   1.082  0.00  0.00    +0.170 HD
ATOM     23  C   UNL     1      16.090  -2.286   2.402  0.00  0.00    +0.260 A 
ATOM     24  O   UNL     1      17.181  -2.755   2.129  0.00  0.00    -0.267 OA
ATOM     25  C   UNL     1      15.961  -1.272   3.406  0.00  0.00    +0.075 A 
ATOM     26  C   UNL     1      17.023  -0.664   4.221  0.00  0.00    -0.023 A 
ATOM     27  C   UNL     1      16.647   0.275   5.106  0.00  0.00    -0.004 A 
ATOM     28  S   UNL     1      14.885   0.410   4.912  0.00  0.00    -0.073 S 
ATOM     29  C   UNL     1      14.662  -0.804   3.639  0.00  0.00    +0.116 A 
ATOM     30  N   UNL     1      13.613  -1.268   2.964  0.00  0.00    -0.226 NA
ATOM     31  C   UNL     1      17.814   0.821   5.886  0.00  0.00    +0.043 C 
ATOM     32  C   UNL     1      18.940  -0.214   5.673  0.00  0.00    +0.010 C 
ATOM     33  C   UNL     1      18.542  -0.838   4.322  0.00  0.00    +0.037 C 
ENDBRANCH  19  20
ENDBRANCH  18  19
ENDBRANCH   1  18
TORSDOF 7
