REMARK  Name = ZINC23044431
REMARK  11 active torsions:
REMARK  status: ('A' for Active; 'I' for Inactive)
REMARK    1  A    between atoms: C_1  and  C_2
REMARK    2  A    between atoms: C_2  and  C_3
REMARK    3  A    between atoms: C_3  and  N_4
REMARK    4  A    between atoms: C_8  and  S_31
REMARK    5  A    between atoms: C_12  and  S_13
REMARK    6  A    between atoms: S_13  and  C_14
REMARK    7  A    between atoms: C_14  and  C_15
REMARK    8  A    between atoms: N_17  and  C_18
REMARK    9  A    between atoms: C_23  and  O_24
REMARK   10  A    between atoms: O_24  and  C_25
REMARK   11  A    between atoms: S_31  and  N_34
REMARK                            x       y       z     vdW  Elec       q    Type
REMARK                         _______ _______ _______ _____ _____    ______ ____
ROOT
ATOM      1  S   UNL     1      -4.196   4.391  -7.058  0.00  0.00    -0.078 S 
ENDROOT
BRANCH   1  10
ATOM      2  N   UNL     1      -3.561   5.282  -4.500  0.00  0.00    -0.319 N 
ATOM      3  C   UNL     1      -3.234   4.743  -3.266  0.00  0.00    +0.070 A 
ATOM      4  C   UNL     1      -2.929   5.290  -2.029  0.00  0.00    +0.030 A 
ATOM      5  C   UNL     1      -2.645   4.462  -0.963  0.00  0.00    +0.030 A 
ATOM      6  C   UNL     1      -2.651   3.084  -1.123  0.00  0.00    +0.107 A 
ATOM      7  C   UNL     1      -2.951   2.524  -2.344  0.00  0.00    +0.058 A 
ATOM      8  C   UNL     1      -3.247   3.349  -3.432  0.00  0.00    +0.092 A 
ATOM      9  N   UNL     1      -3.573   3.103  -4.728  0.00  0.00    -0.222 NA
ATOM     10  C   UNL     1      -3.758   4.237  -5.358  0.00  0.00    +0.170 A 
BRANCH   6  11
ATOM     11  S   UNL     1      -2.278   2.043   0.249  0.00  0.00    +0.056 S 
ATOM     12  O   UNL     1      -2.887   0.787  -0.016  0.00  0.00    -0.153 OA
ATOM     13  O   UNL     1      -2.563   2.796   1.420  0.00  0.00    -0.153 OA
BRANCH  11  14
ATOM     14  N   UNL     1      -0.642   1.786   0.238  0.00  0.00    -0.204 NA
ATOM     15  H   UNL     1      -0.367   1.138   1.083  0.00  0.00    +0.144 HD
ATOM     16  H   UNL     1      -0.119   2.750   0.330  0.00  0.00    +0.144 HD
ENDBRANCH  11  14
ENDBRANCH   6  11
BRANCH   2  17
ATOM     17  C   UNL     1      -3.675   6.706  -4.824  0.00  0.00    +0.124 C 
BRANCH  17  19
ATOM     18  C   UNL     1      -5.231   8.658  -4.918  0.00  0.00    +0.005 C 
ATOM     19  C   UNL     1      -5.112   7.171  -4.580  0.00  0.00    +0.018 C 
ENDBRANCH  17  19
ENDBRANCH   2  17
ENDBRANCH   1  10
BRANCH   1  20
ATOM     20  C   UNL     1      -4.277   2.644  -7.522  0.00  0.00    +0.173 C 
BRANCH  20  21
ATOM     21  C   UNL     1      -4.646   2.527  -8.978  0.00  0.00    +0.228 C 
ATOM     22  O   UNL     1      -4.836   3.527  -9.637  0.00  0.00    -0.275 OA
ATOM     23  N   UNL     1      -4.766   1.312  -9.547  0.00  0.00    -0.282 N 
ATOM     24  H   UNL     1      -4.578   0.405  -8.954  0.00  0.00    +0.155 HD
BRANCH  23  25
ATOM     25  C   UNL     1      -5.130   1.202 -10.896  0.00  0.00    +0.076 A 
ATOM     26  C   UNL     1      -4.974   2.286 -11.748  0.00  0.00    +0.027 A 
ATOM     27  C   UNL     1      -5.333   2.176 -13.078  0.00  0.00    +0.002 A 
ATOM     28  C   UNL     1      -5.848   0.988 -13.563  0.00  0.00    +0.004 A 
ATOM     29  C   UNL     1      -6.006  -0.096 -12.720  0.00  0.00    +0.048 A 
ATOM     30  C   UNL     1      -5.643   0.004 -11.386  0.00  0.00    +0.150 A 
BRANCH  30  31
ATOM     31  O   UNL     1      -5.793  -1.063 -10.557  0.00  0.00    -0.454 OA
BRANCH  31  32
ATOM     32  C   UNL     1      -6.901  -1.111  -9.772  0.00  0.00    +0.129 A 
ATOM     33  C   UNL     1      -7.784  -0.040  -9.750  0.00  0.00    +0.046 A 
ATOM     34  C   UNL     1      -8.912  -0.092  -8.955  0.00  0.00    +0.004 A 
ATOM     35  C   UNL     1      -9.157  -1.207  -8.174  0.00  0.00    +0.000 A 
ATOM     36  C   UNL     1      -8.276  -2.273  -8.190  0.00  0.00    +0.004 A 
ATOM     37  C   UNL     1      -7.149  -2.227  -8.987  0.00  0.00    +0.046 A 
ENDBRANCH  31  32
ENDBRANCH  30  31
ENDBRANCH  23  25
ENDBRANCH  20  21
ENDBRANCH   1  20
TORSDOF 10
