REMARK  Name = ZINC35756278
REMARK  7 active torsions:
REMARK  status: ('A' for Active; 'I' for Inactive)
REMARK    1  A    between atoms: C_4  and  C_7
REMARK    2  A    between atoms: C_7  and  N_8
REMARK    3  A    between atoms: C_9  and  C_32
REMARK    4  A    between atoms: C_11  and  C_16
REMARK    5  A    between atoms: C_19  and  N_22
REMARK    6  A    between atoms: C_23  and  C_25
REMARK    7  A    between atoms: N_34  and  C_35
REMARK                            x       y       z     vdW  Elec       q    Type
REMARK                         _______ _______ _______ _____ _____    ______ ____
ROOT
ATOM      1  N   UNL     1       4.126  -0.951   1.101  0.00  0.00    -0.248 N 
ATOM      2  C   UNL     1       5.083  -0.266   1.992  0.00  0.00    +0.211 C 
ATOM      3  C   UNL     1       4.716  -0.848   3.377  0.00  0.00    +0.238 C 
ATOM      4  O   UNL     1       4.104  -2.103   3.023  0.00  0.00    -0.440 OA
ATOM      5  C   UNL     1       3.593  -1.980   1.786  0.00  0.00    +0.405 C 
ATOM      6  O   UNL     1       2.742  -2.720   1.334  0.00  0.00    -0.226 OA
ENDROOT
BRANCH   3   7
ATOM      7  C   UNL     1       5.950  -1.066   4.214  0.00  0.00    -0.005 A 
ATOM      8  C   UNL     1       6.736  -2.184   4.005  0.00  0.00    +0.009 A 
ATOM      9  C   UNL     1       7.867  -2.388   4.770  0.00  0.00    +0.024 A 
ATOM     10  C   UNL     1       8.216  -1.468   5.750  0.00  0.00    +0.034 A 
ATOM     11  C   UNL     1       7.425  -0.345   5.957  0.00  0.00    +0.024 A 
ATOM     12  C   UNL     1       6.297  -0.145   5.185  0.00  0.00    +0.009 A 
BRANCH  10  13
ATOM     13  N   UNL     1       9.361  -1.671   6.527  0.00  0.00    -0.281 N 
ATOM     14  C   UNL     1      10.442  -2.269   5.990  0.00  0.00    +0.251 C 
ATOM     15  O   UNL     1      10.457  -2.549   4.807  0.00  0.00    -0.270 OA
ATOM     16  H   UNL     1       9.377  -1.381   7.453  0.00  0.00    +0.155 HD
BRANCH  14  17
ATOM     17  C   UNL     1      11.609  -2.586   6.838  0.00  0.00    +0.072 A 
ATOM     18  C   UNL     1      11.593  -2.272   8.199  0.00  0.00    +0.016 A 
ATOM     19  C   UNL     1      12.685  -2.570   8.985  0.00  0.00    +0.001 A 
ATOM     20  C   UNL     1      13.798  -3.179   8.431  0.00  0.00    +0.003 A 
ATOM     21  C   UNL     1      13.823  -3.494   7.085  0.00  0.00    +0.039 A 
ATOM     22  C   UNL     1      12.733  -3.207   6.284  0.00  0.00    +0.135 A 
ATOM     23  F   UNL     1      12.755  -3.520   4.970  0.00  0.00    -0.205 F 
ENDBRANCH  14  17
ENDBRANCH  10  13
ENDBRANCH   3   7
BRANCH   2  24
ATOM     24  C   UNL     1       4.873   1.226   1.958  0.00  0.00    +0.242 C 
ATOM     25  O   UNL     1       3.789   1.680   1.657  0.00  0.00    -0.273 OA
ATOM     26  N   UNL     1       5.890   2.057   2.263  0.00  0.00    -0.284 N 
ATOM     27  H   UNL     1       6.776   1.698   2.429  0.00  0.00    +0.155 HD
BRANCH  26  28
ATOM     28  C   UNL     1       5.668   3.436   2.341  0.00  0.00    +0.033 A 
ATOM     29  C   UNL     1       6.669   4.324   1.970  0.00  0.00    +0.023 A 
ATOM     30  C   UNL     1       6.446   5.685   2.048  0.00  0.00    +0.002 A 
ATOM     31  C   UNL     1       5.228   6.163   2.495  0.00  0.00    +0.000 A 
ATOM     32  C   UNL     1       4.229   5.282   2.865  0.00  0.00    +0.002 A 
ATOM     33  C   UNL     1       4.443   3.920   2.784  0.00  0.00    +0.023 A 
ENDBRANCH  26  28
ENDBRANCH   2  24
BRANCH   1  34
ATOM     34  C   UNL     1       3.808  -0.575  -0.279  0.00  0.00    +0.147 C 
BRANCH  34  38
ATOM     35  C   UNL     1       6.218  -2.855  -2.969  0.00  0.00    +0.000 A 
ATOM     36  C   UNL     1       5.028  -3.376  -2.496  0.00  0.00    +0.000 A 
ATOM     37  C   UNL     1       4.248  -2.638  -1.625  0.00  0.00    +0.005 A 
ATOM     38  C   UNL     1       4.658  -1.380  -1.227  0.00  0.00    -0.030 A 
ATOM     39  C   UNL     1       5.849  -0.859  -1.700  0.00  0.00    +0.005 A 
ATOM     40  C   UNL     1       6.628  -1.596  -2.571  0.00  0.00    +0.000 A 
ENDBRANCH  34  38
ENDBRANCH   1  34
TORSDOF 7
