REMARK  Name = ZINC09074734
REMARK  12 active torsions:
REMARK  status: ('A' for Active; 'I' for Inactive)
REMARK    1  A    between atoms: C_1  and  C_2
REMARK    2  A    between atoms: C_2  and  O_3
REMARK    3  A    between atoms: O_3  and  C_4
REMARK    4  A    between atoms: C_4  and  C_6
REMARK    5  A    between atoms: C_7  and  C_33
REMARK    6  A    between atoms: C_8  and  C_29
REMARK    7  A    between atoms: C_10  and  N_11
REMARK    8  A    between atoms: C_12  and  C_14
REMARK    9  A    between atoms: C_14  and  O_15
REMARK   10  A    between atoms: O_15  and  C_16
REMARK   11  A    between atoms: C_16  and  C_18
REMARK   12  A    between atoms: N_31  and  C_32
REMARK                            x       y       z     vdW  Elec       q    Type
REMARK                         _______ _______ _______ _____ _____    ______ ____
ROOT
ATOM      1  N   UNL     1      -0.607  -2.456  -3.930  0.00  0.00    -0.277 N 
ATOM      2  C   UNL     1      -1.123  -2.783  -5.131  0.00  0.00    +0.255 C 
ATOM      3  O   UNL     1      -0.403  -3.225  -6.000  0.00  0.00    -0.272 OA
ATOM      4  H   UNL     1      -1.183  -2.103  -3.234  0.00  0.00    +0.155 HD
ENDROOT
BRANCH   1   9
ATOM      5  C   UNL     1       1.450  -2.345  -2.518  0.00  0.00    +0.091 A 
ATOM      6  C   UNL     1       2.814  -2.606  -2.513  0.00  0.00    -0.015 A 
ATOM      7  C   UNL     1       3.339  -3.113  -3.671  0.00  0.00    +0.079 A 
ATOM      8  S   UNL     1       1.916  -3.213  -4.737  0.00  0.00    -0.068 S 
ATOM      9  C   UNL     1       0.743  -2.625  -3.689  0.00  0.00    +0.087 A 
ATOM     10  C   UNL     1       3.668  -2.345  -1.299  0.00  0.00    +0.046 C 
BRANCH   7  11
ATOM     11  C   UNL     1       4.726  -3.482  -3.960  0.00  0.00    +0.251 C 
ATOM     12  O   UNL     1       5.583  -3.348  -3.106  0.00  0.00    -0.270 OA
ATOM     13  N   UNL     1       5.055  -3.971  -5.173  0.00  0.00    -0.314 N 
ATOM     14  C   UNL     1       6.442  -4.340  -5.463  0.00  0.00    +0.128 C 
ATOM     15  H   UNL     1       4.372  -4.078  -5.853  0.00  0.00    +0.149 HD
ENDBRANCH   7  11
BRANCH   5  16
ATOM     16  C   UNL     1       0.776  -1.800  -1.335  0.00  0.00    +0.342 C 
ATOM     17  O   UNL     1       0.312  -2.551  -0.499  0.00  0.00    -0.245 OA
BRANCH  16  18
ATOM     18  O   UNL     1       0.671  -0.465  -1.174  0.00  0.00    -0.461 OA
BRANCH  18  20
ATOM     19  C   UNL     1      -0.019   1.526   0.010  0.00  0.00    +0.048 C 
ATOM     20  C   UNL     1       0.002  -0.004   0.002  0.00  0.00    +0.229 C 
ENDBRANCH  18  20
ENDBRANCH  16  18
ENDBRANCH   5  16
ENDBRANCH   1   9
BRANCH   2  21
ATOM     21  C   UNL     1      -2.596  -2.599  -5.393  0.00  0.00    +0.328 C 
BRANCH  21  22
ATOM     22  O   UNL     1      -2.897  -3.013  -6.727  0.00  0.00    -0.452 OA
BRANCH  22  23
ATOM     23  C   UNL     1      -4.181  -2.912  -7.124  0.00  0.00    +0.340 C 
ATOM     24  O   UNL     1      -5.022  -2.484  -6.358  0.00  0.00    -0.245 OA
BRANCH  23  25
ATOM     25  C   UNL     1      -4.566  -3.320  -8.486  0.00  0.00    +0.061 A 
ATOM     26  C   UNL     1      -3.598  -3.818  -9.365  0.00  0.00    +0.016 A 
ATOM     27  C   UNL     1      -3.962  -4.201 -10.637  0.00  0.00    +0.017 A 
ATOM     28  C   UNL     1      -5.284  -4.091 -11.046  0.00  0.00    +0.030 A 
ATOM     29  C   UNL     1      -6.262  -3.592 -10.179  0.00  0.00    +0.048 A 
ATOM     30  C   UNL     1      -5.897  -3.215  -8.896  0.00  0.00    +0.039 A 
ATOM     31  N   UNL     1      -7.591  -3.466 -10.576  0.00  0.00    -0.284 N 
ATOM     32  C   UNL     1      -8.182  -4.125 -11.568  0.00  0.00    +0.227 C 
ATOM     33  O   UNL     1      -9.357  -3.908 -11.781  0.00  0.00    -0.275 OA
ATOM     34  C   UNL     1      -7.475  -5.126 -12.441  0.00  0.00    +0.170 C 
ATOM     35  S   UNL     1      -5.754  -4.586 -12.674  0.00  0.00    -0.114 S 
ATOM     36  H   UNL     1      -8.139  -2.836 -10.081  0.00  0.00    +0.155 HD
ENDBRANCH  23  25
ENDBRANCH  22  23
ENDBRANCH  21  22
ENDBRANCH   2  21
TORSDOF 9
