REMARK  Name = ZINC02943883
REMARK  8 active torsions:
REMARK  status: ('A' for Active; 'I' for Inactive)
REMARK    1  A    between atoms: C_1  and  N_56
REMARK    2  A    between atoms: C_2  and  C_3
REMARK    3  A    between atoms: C_2  and  N_56
REMARK    4  A    between atoms: C_5  and  C_14
REMARK    5  A    between atoms: C_12  and  O_13
REMARK    6  A    between atoms: C_14  and  S_15
REMARK    7  A    between atoms: S_15  and  C_16
REMARK    8  A    between atoms: C_22  and  N_56
REMARK                            x       y       z     vdW  Elec       q    Type
REMARK                         _______ _______ _______ _____ _____    ______ ____
ROOT
ATOM      1  C   UNL     1      -0.925   1.834   1.115  0.00  0.00    -0.020 A 
ATOM      2  C   UNL     1      -0.452   2.551   2.211  0.00  0.00    +0.010 A 
ATOM      3  C   UNL     1      -1.282   2.893   3.235  0.00  0.00    -0.028 A 
ATOM      4  C   UNL     1      -2.635   2.520   3.189  0.00  0.00    +0.008 A 
ATOM      5  C   UNL     1      -3.523   2.856   4.229  0.00  0.00    +0.012 A 
ATOM      6  C   UNL     1      -4.825   2.460   4.117  0.00  0.00    +0.020 A 
ATOM      7  C   UNL     1      -5.240   1.744   2.997  0.00  0.00    +0.111 A 
ATOM      8  N   UNL     1      -4.410   1.433   2.031  0.00  0.00    -0.251 NA
ATOM      9  C   UNL     1      -3.123   1.791   2.078  0.00  0.00    +0.113 A 
ATOM     10  C   UNL     1      -2.236   1.458   1.033  0.00  0.00    +0.144 A 
ENDROOT
BRANCH  10  11
ATOM     11  O   UNL     1      -2.681   0.763  -0.046  0.00  0.00    -0.504 OA
ATOM     12  H   UNL     1      -2.551  -0.193   0.021  0.00  0.00    +0.292 HD
ENDBRANCH  10  11
BRANCH   1  13
ATOM     13  C   UNL     1       0.021   1.472  -0.000  0.00  0.00    -0.039 C 
BRANCH  13  15
ATOM     14  C   UNL     1       0.311   3.690  -0.928  0.00  0.00    -0.095 C 
ATOM     15  N   UNL     1      -0.258   2.345  -1.160  0.00  0.00    +0.382 N 
ATOM     16  H   UNL     1      -1.274   2.429  -1.278  0.00  0.00    -0.081 HD
BRANCH  15  17
ATOM     17  C   UNL     1       0.321   1.757  -2.386  0.00  0.00    -0.069 C 
ATOM     18  C   UNL     1       1.846   1.685  -2.279  0.00  0.00    -0.015 C 
ATOM     19  C   UNL     1       2.419   1.075  -3.559  0.00  0.00    -0.002 C 
ATOM     20  C   UNL     1       2.032   1.945  -4.757  0.00  0.00    -0.000 C 
ATOM     21  C   UNL     1       0.508   2.016  -4.864  0.00  0.00    -0.002 C 
ATOM     22  C   UNL     1      -0.066   2.627  -3.583  0.00  0.00    -0.015 C 
ENDBRANCH  15  17
ENDBRANCH  13  15
ENDBRANCH   1  13
BRANCH   3  23
ATOM     23  C   UNL     1      -0.750   3.670   4.412  0.00  0.00    +0.110 C 
BRANCH  23  24
ATOM     24  S   UNL     1      -0.915   5.447   4.087  0.00  0.00    -0.121 S 
BRANCH  24  25
ATOM     25  C   UNL     1      -0.259   6.208   5.535  0.00  0.00    +0.008 A 
ATOM     26  C   UNL     1       0.219   5.423   6.578  0.00  0.00    +0.015 A 
ATOM     27  C   UNL     1       0.739   6.023   7.708  0.00  0.00    +0.001 A 
ATOM     28  C   UNL     1       0.771   7.402   7.809  0.00  0.00    +0.000 A 
ATOM     29  C   UNL     1       0.291   8.185   6.776  0.00  0.00    +0.001 A 
ATOM     30  C   UNL     1      -0.224   7.593   5.639  0.00  0.00    +0.015 A 
ENDBRANCH  24  25
ENDBRANCH  23  24
ENDBRANCH   3  23
TORSDOF 7
