REMARK  Name = ZINC10784884
REMARK  8 active torsions:
REMARK  status: ('A' for Active; 'I' for Inactive)
REMARK    1  A    between atoms: C_1  and  C_2
REMARK    2  A    between atoms: C_10  and  N_16
REMARK    3  A    between atoms: C_11  and  C_12
REMARK    4  A    between atoms: C_12  and  O_14
REMARK    5  A    between atoms: O_14  and  C_15
REMARK    6  A    between atoms: C_17  and  C_19
REMARK    7  A    between atoms: N_25  and  S_26
REMARK    8  A    between atoms: S_26  and  C_29
REMARK                            x       y       z     vdW  Elec       q    Type
REMARK                         _______ _______ _______ _____ _____    ______ ____
ROOT
ATOM      1  N   UNL     1       3.967  -0.344   0.119  0.00  0.00    -0.278 N 
ATOM      2  C   UNL     1       4.806   0.706   0.021  0.00  0.00    +0.236 C 
ATOM      3  O   UNL     1       4.361   1.831  -0.070  0.00  0.00    -0.274 OA
ATOM      4  H   UNL     1       4.324  -1.244   0.192  0.00  0.00    +0.155 HD
ENDROOT
BRANCH   1  14
ATOM      5  C   UNL     1      -3.386   2.015  -1.767  0.00  0.00    +0.109 C 
ATOM      6  C   UNL     1      -3.334   0.749  -0.952  0.00  0.00    +0.213 C 
ATOM      7  O   UNL     1      -4.221  -0.073  -1.050  0.00  0.00    -0.276 OA
ATOM      8  N   UNL     1      -2.302   0.529  -0.114  0.00  0.00    -0.297 N 
ATOM      9  C   UNL     1      -2.223  -0.697   0.695  0.00  0.00    +0.113 C 
ATOM     10  C   UNL     1      -1.005  -1.517   0.266  0.00  0.00    +0.056 C 
ATOM     11  C   UNL     1       0.211  -0.603   0.183  0.00  0.00    -0.018 A 
ATOM     12  C   UNL     1       0.076   0.736   0.072  0.00  0.00    +0.013 A 
ATOM     13  S   UNL     1       1.732   1.357   0.000  0.00  0.00    -0.076 S 
ATOM     14  C   UNL     1       2.597  -0.140   0.118  0.00  0.00    +0.086 A 
ATOM     15  C   UNL     1       1.583  -1.084   0.209  0.00  0.00    +0.091 A 
ATOM     16  C   UNL     1      -1.207   1.510   0.029  0.00  0.00    +0.150 C 
BRANCH  15  17
ATOM     17  C   UNL     1       1.885  -2.512   0.329  0.00  0.00    +0.342 C 
ATOM     18  O   UNL     1       1.998  -3.196  -0.671  0.00  0.00    -0.245 OA
BRANCH  17  19
ATOM     19  O   UNL     1       2.036  -3.070   1.548  0.00  0.00    -0.464 OA
ATOM     20  C   UNL     1       2.334  -4.490   1.591  0.00  0.00    +0.280 C 
ENDBRANCH  17  19
ENDBRANCH  15  17
ENDBRANCH   1  14
BRANCH   2  21
ATOM     21  C   UNL     1       6.296   0.484   0.023  0.00  0.00    +0.166 C 
ATOM     22  C   UNL     1       6.888   0.955  -1.310  0.00  0.00    +0.030 C 
ATOM     23  C   UNL     1       8.414   0.857  -1.249  0.00  0.00    +0.003 C 
ATOM     24  C   UNL     1       8.942   1.766  -0.137  0.00  0.00    +0.017 C 
ATOM     25  C   UNL     1       8.374   1.304   1.208  0.00  0.00    +0.110 C 
ATOM     26  N   UNL     1       6.908   1.255   1.114  0.00  0.00    -0.164 NA
BRANCH  26  27
ATOM     27  S   UNL     1       5.963   2.056   2.213  0.00  0.00    +0.068 S 
ATOM     28  O   UNL     1       4.697   1.411   2.207  0.00  0.00    -0.152 OA
ATOM     29  O   UNL     1       6.742   2.193   3.394  0.00  0.00    -0.152 OA
BRANCH  27  30
ATOM     30  C   UNL     1       5.703   3.683   1.589  0.00  0.00    +0.143 A 
ATOM     31  C   UNL     1       4.639   4.177   0.910  0.00  0.00    +0.036 A 
ATOM     32  C   UNL     1       4.652   5.501   0.515  0.00  0.00    +0.010 A 
ATOM     33  C   UNL     1       5.729   6.267   0.818  0.00  0.00    +0.047 A 
ATOM     34  S   UNL     1       6.770   5.111   1.694  0.00  0.00    -0.077 S 
ENDBRANCH  27  30
ENDBRANCH  26  27
ENDBRANCH   2  21
TORSDOF 6
