REMARK  Name = ZINC05065852
REMARK  9 active torsions:
REMARK  status: ('A' for Active; 'I' for Inactive)
REMARK    1  A    between atoms: C_1  and  C_2
REMARK    2  A    between atoms: C_2  and  C_3
REMARK    3  A    between atoms: C_3  and  C_4
REMARK    4  A    between atoms: C_3  and  C_5
REMARK    5  A    between atoms: C_3  and  C_6
REMARK    6  A    between atoms: N_19  and  N_20
REMARK    7  A    between atoms: C_21  and  C_22
REMARK    8  A    between atoms: C_21  and  C_23
REMARK    9  A    between atoms: C_27  and  O_29
REMARK                            x       y       z     vdW  Elec       q    Type
REMARK                         _______ _______ _______ _____ _____    ______ ____
ROOT
ATOM      1  C   UNL     1      -2.707   1.749  -1.445  0.00  0.00    -0.001 C 
ATOM      2  C   UNL     1      -3.950   1.887  -0.562  0.00  0.00    +0.009 C 
ATOM      3  C   UNL     1      -5.028   0.921  -1.075  0.00  0.00    +0.043 C 
ATOM      4  C   UNL     1      -4.398  -0.421  -1.289  0.00  0.00    -0.004 A 
ATOM      5  C   UNL     1      -3.081  -0.705  -1.348  0.00  0.00    -0.024 A 
ATOM      6  C   UNL     1      -2.712  -2.104  -1.567  0.00  0.00    +0.052 A 
ATOM      7  C   UNL     1      -1.414  -2.678  -1.670  0.00  0.00    +0.150 A 
ATOM      8  N   UNL     1      -1.301  -3.981  -1.879  0.00  0.00    -0.219 NA
ATOM      9  C   UNL     1      -2.354  -4.771  -1.984  0.00  0.00    +0.224 A 
ATOM     10  N   UNL     1      -3.582  -4.296  -1.896  0.00  0.00    -0.228 NA
ATOM     11  C   UNL     1      -3.786  -3.009  -1.694  0.00  0.00    +0.114 A 
ATOM     12  S   UNL     1      -5.217  -1.977  -1.519  0.00  0.00    -0.073 S 
ATOM     13  N   UNL     1      -0.286  -1.885  -1.560  0.00  0.00    -0.220 N 
ATOM     14  C   UNL     1      -2.037   0.398  -1.192  0.00  0.00    +0.040 C 
ATOM     15  H   UNL     1      -0.343  -1.018  -1.129  0.00  0.00    +0.176 HD
ENDROOT
BRANCH   1  16
ATOM     16  C   UNL     1      -1.723   2.874  -1.117  0.00  0.00    -0.032 C 
ATOM     17  C   UNL     1      -1.429   2.872   0.385  0.00  0.00    +0.011 C 
ATOM     18  C   UNL     1      -0.421   2.655  -1.891  0.00  0.00    +0.011 C 
BRANCH  16  20
ATOM     19  C   UNL     1      -1.349   5.343  -1.186  0.00  0.00    +0.004 C 
ATOM     20  C   UNL     1      -2.333   4.219  -1.515  0.00  0.00    +0.003 C 
ENDBRANCH  16  20
ENDBRANCH   1  16
BRANCH  13  21
ATOM     21  N   UNL     1       0.938  -2.334  -2.072  0.00  0.00    -0.186 NA
ATOM     22  C   UNL     1       2.011  -1.623  -1.905  0.00  0.00    +0.063 C 
ATOM     23  C   UNL     1       3.295  -2.025  -2.585  0.00  0.00    +0.068 C 
BRANCH  22  24
ATOM     24  C   UNL     1       1.974  -0.422  -1.050  0.00  0.00    +0.001 A 
ATOM     25  C   UNL     1       2.621   0.749  -1.456  0.00  0.00    +0.010 A 
ATOM     26  C   UNL     1       2.584   1.870  -0.654  0.00  0.00    +0.004 A 
ATOM     27  C   UNL     1       1.909   1.840   0.553  0.00  0.00    +0.045 A 
ATOM     28  C   UNL     1       1.263   0.682   0.965  0.00  0.00    +0.117 A 
ATOM     29  C   UNL     1       1.293  -0.449   0.168  0.00  0.00    +0.055 A 
BRANCH  28  30
ATOM     30  O   UNL     1       0.596   0.662   2.149  0.00  0.00    -0.507 OA
ATOM     31  H   UNL     1       1.116   0.316   2.887  0.00  0.00    +0.292 HD
ENDBRANCH  28  30
ENDBRANCH  22  24
ENDBRANCH  13  21
TORSDOF 5
