REMARK  Name = ZINC03978163
REMARK  10 active torsions:
REMARK  status: ('A' for Active; 'I' for Inactive)
REMARK    1  A    between atoms: C_1  and  C_2
REMARK    2  A    between atoms: C_2  and  C_36
REMARK    3  A    between atoms: C_3  and  C_31
REMARK    4  A    between atoms: C_5  and  C_30
REMARK    5  A    between atoms: C_10  and  O_11
REMARK    6  A    between atoms: C_19  and  C_25
REMARK    7  A    between atoms: C_21  and  C_24
REMARK    8  A    between atoms: C_31  and  C_32
REMARK    9  A    between atoms: C_32  and  O_34
REMARK   10  A    between atoms: O_34  and  C_35
REMARK                            x       y       z     vdW  Elec       q    Type
REMARK                         _______ _______ _______ _____ _____    ______ ____
ROOT
ATOM      1  C   UNL     1       4.217   5.668  -3.493  0.00  0.00    +0.019 C 
ATOM      2  C   UNL     1       4.811   6.258  -2.212  0.00  0.00    +0.027 C 
ATOM      3  C   UNL     1       3.706   6.960  -1.420  0.00  0.00    +0.030 C 
ATOM      4  C   UNL     1       4.116   7.301   0.021  0.00  0.00    +0.056 C 
ATOM      5  C   UNL     1       3.280   6.471   0.995  0.00  0.00    -0.052 C 
ATOM      6  C   UNL     1       3.699   5.328   1.541  0.00  0.00    -0.039 C 
ATOM      7  C   UNL     1       4.968   4.600   1.091  0.00  0.00    +0.077 C 
ATOM      8  C   UNL     1       5.373   5.349  -0.089  0.00  0.00    +0.038 C 
ATOM      9  C   UNL     1       5.433   5.147  -1.395  0.00  0.00    +0.107 C 
ATOM     10  C   UNL     1       5.537   6.768   0.144  0.00  0.00    +0.173 C 
ATOM     11  O   UNL     1       6.557   7.382   0.381  0.00  0.00    -0.291 OA
ATOM     12  C   UNL     1       2.888   4.662   2.570  0.00  0.00    -0.027 C 
ATOM     13  C   UNL     1       3.030   3.348   2.819  0.00  0.00    +0.096 C 
ATOM     14  C   UNL     1       2.028   2.675   3.571  0.00  0.00    +0.333 C 
ATOM     15  O   UNL     1       2.210   1.548   3.991  0.00  0.00    -0.246 OA
ATOM     16  O   UNL     1       0.863   3.327   3.802  0.00  0.00    -0.452 OA
ATOM     17  C   UNL     1       0.968   4.692   4.192  0.00  0.00    +0.220 C 
ATOM     18  C   UNL     1       1.822   5.490   3.235  0.00  0.00    +0.035 C 
ATOM     19  C   UNL     1       1.021   6.143   2.111  0.00  0.00    +0.019 C 
ATOM     20  C   UNL     1       1.949   7.092   1.359  0.00  0.00    +0.033 C 
ATOM     21  C   UNL     1       2.513   6.600   4.028  0.00  0.00    +0.020 C 
ATOM     22  C   UNL     1       4.031   8.799   0.320  0.00  0.00    +0.024 C 
ATOM     23  C   UNL     1       5.892   7.277  -2.582  0.00  0.00    +0.019 C 
ENDROOT
BRANCH  17  24
ATOM     24  C   UNL     1       1.592   4.737   5.563  0.00  0.00    +0.031 A 
ATOM     25  C   UNL     1       1.204   5.569   6.638  0.00  0.00    +0.048 A 
ATOM     26  C   UNL     1       2.023   5.285   7.667  0.00  0.00    +0.195 A 
ATOM     27  O   UNL     1       2.882   4.330   7.274  0.00  0.00    -0.471 OA
ATOM     28  C   UNL     1       2.622   3.991   6.000  0.00  0.00    +0.202 A 
ENDBRANCH  17  24
BRANCH   9  29
ATOM     29  O   UNL     1       5.995   4.055  -1.945  0.00  0.00    -0.510 OA
ATOM     30  H   UNL     1       6.340   3.457  -1.222  0.00  0.00    +0.292 HD
ENDBRANCH   9  29
BRANCH   3  31
ATOM     31  C   UNL     1       3.330   8.255  -2.143  0.00  0.00    +0.126 C 
BRANCH  31  32
ATOM     32  C   UNL     1       1.971   8.714  -1.680  0.00  0.00    +0.307 C 
ATOM     33  O   UNL     1       1.147   7.902  -1.331  0.00  0.00    -0.251 OA
BRANCH  32  34
ATOM     34  O   UNL     1       1.677  10.023  -1.654  0.00  0.00    -0.468 OA
ATOM     35  C   UNL     1       0.349  10.392  -1.196  0.00  0.00    +0.280 C 
ENDBRANCH  32  34
ENDBRANCH  31  32
ENDBRANCH   3  31
TORSDOF 5
