REMARK  Name = ZINC20637774
REMARK  2 active torsions:
REMARK  status: ('A' for Active; 'I' for Inactive)
REMARK    1  A    between atoms: C_10  and  C_19
REMARK    2  A    between atoms: C_12  and  C_17
REMARK                            x       y       z     vdW  Elec       q    Type
REMARK                         _______ _______ _______ _____ _____    ______ ____
ROOT
ATOM      1  C   UNL     1       0.910   1.278   1.555  0.00  0.00    +0.002 A 
ATOM      2  C   UNL     1       1.963   2.125   1.240  0.00  0.00    +0.002 A 
ATOM      3  C   UNL     1       1.722   3.428   0.859  0.00  0.00    +0.028 A 
ATOM      4  C   UNL     1       0.419   3.900   0.787  0.00  0.00    +0.071 A 
ATOM      5  C   UNL     1      -0.652   3.043   1.103  0.00  0.00    +0.091 A 
ATOM      6  C   UNL     1      -0.390   1.725   1.483  0.00  0.00    +0.030 A 
ATOM      7  N   UNL     1      -1.800   3.757   0.944  0.00  0.00    -0.214 NA
ATOM      8  C   UNL     1      -1.513   4.966   0.559  0.00  0.00    +0.204 A 
ATOM      9  N   UNL     1      -0.150   5.108   0.459  0.00  0.00    -0.302 N 
ATOM     10  C   UNL     1       0.495   6.366   0.075  0.00  0.00    +0.146 C 
ATOM     11  C   UNL     1      -0.453   7.139  -0.846  0.00  0.00    +0.204 C 
ATOM     12  C   UNL     1      -1.859   7.118  -0.313  0.00  0.00    +0.239 C 
ATOM     13  O   UNL     1      -2.548   8.110  -0.422  0.00  0.00    -0.274 OA
ATOM     14  N   UNL     1      -2.373   6.022   0.285  0.00  0.00    -0.255 N 
ATOM     15  H   UNL     1      -3.437   5.949   0.554  0.00  0.00    +0.158 HD
ENDROOT
BRANCH  10  16
ATOM     16  C   UNL     1       1.781   6.073  -0.654  0.00  0.00    -0.022 A 
ATOM     17  C   UNL     1       1.815   5.095  -1.630  0.00  0.00    +0.006 A 
ATOM     18  C   UNL     1       2.995   4.826  -2.299  0.00  0.00    +0.001 A 
ATOM     19  C   UNL     1       4.141   5.535  -1.992  0.00  0.00    +0.015 A 
ATOM     20  C   UNL     1       4.107   6.513  -1.015  0.00  0.00    +0.018 A 
ATOM     21  C   UNL     1       2.925   6.786  -0.349  0.00  0.00    +0.021 A 
ATOM     22 BR   UNL     1       5.675   7.483  -0.594  0.00  0.00    -0.050 Br
ENDBRANCH  10  16
BRANCH  11  23
ATOM     23  C   UNL     1      -0.434   6.526  -2.184  0.00  0.00    +0.078 C 
ATOM     24  N   UNL     1      -0.420   6.053  -3.217  0.00  0.00    -0.196 NA
ENDBRANCH  11  23
TORSDOF 2
