REMARK  Name = ZINC43403056
REMARK  7 active torsions:
REMARK  status: ('A' for Active; 'I' for Inactive)
REMARK    1  A    between atoms: C_1  and  C_2
REMARK    2  A    between atoms: C_2  and  C_3
REMARK    3  A    between atoms: C_2  and  C_4
REMARK    4  A    between atoms: C_2  and  N_18
REMARK    5  A    between atoms: C_6  and  C_9
REMARK    6  A    between atoms: C_9  and  S_10
REMARK    7  A    between atoms: S_10  and  C_11
REMARK                            x       y       z     vdW  Elec       q    Type
REMARK                         _______ _______ _______ _____ _____    ______ ____
ROOT
ATOM      1  C   UNL     1      -1.412  -0.526   0.013  0.00  0.00    +0.160 A 
ATOM      2  N   UNL     1      -1.960  -1.305  -0.926  0.00  0.00    -0.197 NA
ATOM      3  C   UNL     1      -3.197  -1.577  -0.615  0.00  0.00    +0.238 A 
ATOM      4  O   UNL     1      -3.481  -0.973   0.546  0.00  0.00    -0.337 OA
ATOM      5  N   UNL     1      -2.296  -0.296   0.940  0.00  0.00    -0.063 NA
ENDROOT
BRANCH   1   7
ATOM      6  C   UNL     1      -0.019   1.526   0.010  0.00  0.00    -0.003 C 
ATOM      7  C   UNL     1       0.002  -0.004   0.002  0.00  0.00    -0.012 C 
ATOM      8  C   UNL     1       0.742  -0.511   1.242  0.00  0.00    -0.003 C 
BRANCH   7   9
ATOM      9  N   UNL     1       0.690  -0.478  -1.207  0.00  0.00    +0.386 N 
ATOM     10  H   UNL     1       1.636  -0.129  -1.214  0.00  0.00    -0.089 HD
ATOM     11  H   UNL     1       0.703  -1.487  -1.212  0.00  0.00    -0.089 HD
ATOM     12  H   UNL     1       0.202  -0.144  -2.024  0.00  0.00    -0.089 HD
ENDBRANCH   7   9
ENDBRANCH   1   7
BRANCH   3  13
ATOM     13  C   UNL     1      -4.145  -2.425  -1.424  0.00  0.00    +0.173 C 
BRANCH  13  14
ATOM     14  S   UNL     1      -4.006  -4.156  -0.898  0.00  0.00    -0.115 S 
BRANCH  14  15
ATOM     15  C   UNL     1      -5.160  -5.006  -1.922  0.00  0.00    +0.022 A 
ATOM     16  C   UNL     1      -5.903  -4.306  -2.865  0.00  0.00    +0.016 A 
ATOM     17  C   UNL     1      -6.806  -4.976  -3.666  0.00  0.00    +0.001 A 
ATOM     18  C   UNL     1      -6.972  -6.343  -3.532  0.00  0.00    +0.001 A 
ATOM     19  C   UNL     1      -6.234  -7.043  -2.596  0.00  0.00    +0.016 A 
ATOM     20  C   UNL     1      -5.325  -6.381  -1.794  0.00  0.00    +0.031 A 
ATOM     21 BR   UNL     1      -4.311  -7.341  -0.518  0.00  0.00    -0.049 Br
ENDBRANCH  14  15
ENDBRANCH  13  14
ENDBRANCH   3  13
TORSDOF 5
