REMARK  Name = ZINC15545963
REMARK  5 active torsions:
REMARK  status: ('A' for Active; 'I' for Inactive)
REMARK    1  A    between atoms: C_5  and  C_7
REMARK    2  A    between atoms: C_7  and  N_8
REMARK    3  A    between atoms: C_9  and  C_11
REMARK    4  A    between atoms: C_11  and  N_12
REMARK    5  A    between atoms: C_14  and  C_23
REMARK                            x       y       z     vdW  Elec       q    Type
REMARK                         _______ _______ _______ _____ _____    ______ ____
ROOT
ATOM      1  N   UNL     1      -0.659  -3.809   2.822  0.00  0.00    -0.314 N 
ATOM      2  C   UNL     1      -0.817  -4.451   4.133  0.00  0.00    +0.160 C 
ATOM      3  C   UNL     1      -0.612  -5.962   3.965  0.00  0.00    +0.276 C 
ATOM      4  O   UNL     1       0.735  -6.177   3.529  0.00  0.00    -0.476 OA
ATOM      5  C   UNL     1       1.191  -5.370   2.533  0.00  0.00    +0.143 A 
ATOM      6  C   UNL     1       0.518  -4.205   2.180  0.00  0.00    +0.073 A 
ATOM      7  C   UNL     1       1.022  -3.405   1.160  0.00  0.00    +0.027 A 
ATOM      8  C   UNL     1       2.179  -3.766   0.499  0.00  0.00    +0.002 A 
ATOM      9  C   UNL     1       2.844  -4.927   0.849  0.00  0.00    +0.004 A 
ATOM     10  C   UNL     1       2.352  -5.727   1.863  0.00  0.00    +0.047 A 
ENDROOT
BRANCH   3  11
ATOM     11  C   UNL     1      -0.838  -6.656   5.284  0.00  0.00    +0.258 C 
ATOM     12  O   UNL     1       0.081  -7.225   5.835  0.00  0.00    -0.271 OA
ATOM     13  N   UNL     1      -2.061  -6.645   5.850  0.00  0.00    -0.298 N 
ATOM     14  C   UNL     1      -3.182  -5.955   5.197  0.00  0.00    +0.108 C 
ATOM     15  C   UNL     1      -4.349  -6.944   5.056  0.00  0.00    +0.019 C 
ATOM     16  C   UNL     1      -4.685  -7.527   6.431  0.00  0.00    +0.003 C 
ATOM     17  C   UNL     1      -3.473  -8.287   6.975  0.00  0.00    +0.019 C 
ATOM     18  C   UNL     1      -2.297  -7.318   7.135  0.00  0.00    +0.108 C 
ENDBRANCH   3  11
BRANCH   1  19
ATOM     19  C   UNL     1      -0.727  -2.346   2.941  0.00  0.00    +0.201 C 
BRANCH  19  21
ATOM     20  N   UNL     1       0.713  -0.516   3.775  0.00  0.00    -0.310 N 
ATOM     21  C   UNL     1       0.504  -1.841   3.648  0.00  0.00    +0.231 C 
ATOM     22  O   UNL     1       1.308  -2.628   4.102  0.00  0.00    -0.274 OA
ATOM     23  H   UNL     1       0.070   0.113   3.412  0.00  0.00    +0.149 HD
BRANCH  20  24
ATOM     24  C   UNL     1       1.910  -0.025   4.462  0.00  0.00    +0.141 C 
BRANCH  24  29
ATOM     25  C   UNL     1       1.591   3.549   5.634  0.00  0.00    +0.000 A 
ATOM     26  C   UNL     1       1.893   4.247   4.479  0.00  0.00    +0.001 A 
ATOM     27  C   UNL     1       2.200   3.563   3.318  0.00  0.00    +0.020 A 
ATOM     28  C   UNL     1       2.211   2.179   3.313  0.00  0.00    +0.046 A 
ATOM     29  C   UNL     1       1.904   1.482   4.468  0.00  0.00    -0.012 A 
ATOM     30  C   UNL     1       1.597   2.167   5.628  0.00  0.00    +0.006 A 
ATOM     31 CL   UNL     1       2.605   1.319   1.858  0.00  0.00    -0.083 Cl
ENDBRANCH  24  29
ENDBRANCH  20  24
ENDBRANCH  19  21
ENDBRANCH   1  19
TORSDOF 5
