REMARK  Name = ZINC43258580
REMARK  7 active torsions:
REMARK  status: ('A' for Active; 'I' for Inactive)
REMARK    1  A    between atoms: C_1  and  C_2
REMARK    2  A    between atoms: C_2  and  C_3
REMARK    3  A    between atoms: C_3  and  C_5
REMARK    4  A    between atoms: C_3  and  N_20
REMARK    5  A    between atoms: C_5  and  C_7
REMARK    6  A    between atoms: C_5  and  N_13
REMARK    7  A    between atoms: N_16  and  C_19
REMARK                            x       y       z     vdW  Elec       q    Type
REMARK                         _______ _______ _______ _____ _____    ______ ____
ROOT
ATOM      1  C   UNL     1      -1.523  -2.050   0.192  0.00  0.00    +0.079 C 
ENDROOT
BRANCH   1   2
ATOM      2  N   UNL     1      -0.955  -2.424   1.494  0.00  0.00    -0.300 NA
ATOM      3  C   UNL     1       0.383  -1.843   1.672  0.00  0.00    +0.066 C 
ATOM      4  C   UNL     1       0.913  -2.205   3.061  0.00  0.00    -0.064 C 
ATOM      5  N   UNL     1       0.973  -3.667   3.197  0.00  0.00    +0.379 N 
ATOM      6  C   UNL     1      -0.375  -4.230   3.042  0.00  0.00    -0.064 C 
ATOM      7  C   UNL     1      -0.915  -3.885   1.652  0.00  0.00    +0.066 C 
ATOM      8  C   UNL     1       1.498  -4.014   4.524  0.00  0.00    -0.096 C 
ATOM      9  H   UNL     1       1.580  -4.046   2.485  0.00  0.00    -0.082 HD
ENDBRANCH   1   2
BRANCH   1  10
ATOM     10  C   UNL     1      -2.942  -2.549   0.101  0.00  0.00    +0.006 A 
ATOM     11  C   UNL     1      -3.584  -3.107  -0.954  0.00  0.00    +0.014 A 
ATOM     12  C   UNL     1      -4.904  -3.494  -0.807  0.00  0.00    +0.023 A 
ATOM     13  C   UNL     1      -5.515  -3.303   0.388  0.00  0.00    +0.055 A 
ATOM     14  S   UNL     1      -4.211  -2.564   1.357  0.00  0.00    -0.085 S 
ATOM     15 BR   UNL     1      -7.288  -3.720   0.899  0.00  0.00    -0.043 Br
ENDBRANCH   1  10
BRANCH   1  16
ATOM     16  C   UNL     1      -1.506  -0.527   0.046  0.00  0.00    -0.053 C 
BRANCH  16  17
ATOM     17  N   UNL     1      -2.313   0.075   1.116  0.00  0.00    +0.381 N 
ATOM     18  H   UNL     1      -3.262  -0.259   1.050  0.00  0.00    -0.090 HD
ATOM     19  H   UNL     1      -1.927  -0.181   2.013  0.00  0.00    -0.090 HD
ATOM     20  H   UNL     1      -2.302   1.080   1.020  0.00  0.00    -0.090 HD
ENDBRANCH  16  17
BRANCH  16  22
ATOM     21  C   UNL     1      -1.932   1.368  -1.524  0.00  0.00    +0.002 C 
ATOM     22  C   UNL     1      -2.090  -0.139  -1.313  0.00  0.00    -0.018 C 
ENDBRANCH  16  22
ENDBRANCH   1  16
TORSDOF 5
