REMARK  Name = ZINC39853459
REMARK  9 active torsions:
REMARK  status: ('A' for Active; 'I' for Inactive)
REMARK    1  A    between atoms: C_1  and  C_2
REMARK    2  A    between atoms: C_2  and  O_3
REMARK    3  A    between atoms: O_3  and  C_4
REMARK    4  A    between atoms: C_4  and  C_6
REMARK    5  A    between atoms: N_9  and  C_12
REMARK    6  A    between atoms: C_12  and  C_14
REMARK    7  A    between atoms: C_12  and  C_21
REMARK    8  A    between atoms: C_25  and  N_26
REMARK    9  A    between atoms: C_27  and  C_29
REMARK                            x       y       z     vdW  Elec       q    Type
REMARK                         _______ _______ _______ _____ _____    ______ ____
ROOT
ATOM      1  C   UNL     1       2.033  -4.608   6.017  0.00  0.00    -0.004 C 
ENDROOT
BRANCH   1   2
ATOM      2  C   UNL     1       2.323  -6.074   6.213  0.00  0.00    -0.025 A 
ATOM      3  C   UNL     1       3.620  -6.497   6.504  0.00  0.00    -0.033 A 
ATOM      4  C   UNL     1       3.802  -7.835   6.667  0.00  0.00    -0.005 A 
ATOM      5  S   UNL     1       2.185  -8.518   6.420  0.00  0.00    -0.078 S 
ATOM      6  C   UNL     1       1.320  -6.986   6.112  0.00  0.00    +0.074 A 
ATOM      7  C   UNL     1       5.077  -8.550   6.979  0.00  0.00    +0.043 C 
ATOM      8  C   UNL     1       6.245  -7.583   6.732  0.00  0.00    +0.005 C 
ATOM      9  C   UNL     1       5.923  -6.243   7.400  0.00  0.00    +0.005 C 
ATOM     10  C   UNL     1       4.798  -5.537   6.642  0.00  0.00    +0.036 C 
BRANCH   6  11
ATOM     11  N   UNL     1      -0.035  -6.779   5.837  0.00  0.00    -0.280 N 
ATOM     12  C   UNL     1      -0.854  -7.833   5.656  0.00  0.00    +0.214 C 
ATOM     13  O   UNL     1      -0.416  -8.962   5.732  0.00  0.00    -0.276 OA
ATOM     14  C   UNL     1      -2.315  -7.610   5.360  0.00  0.00    +0.109 C 
ATOM     15  H   UNL     1      -0.385  -5.876   5.777  0.00  0.00    +0.155 HD
ENDBRANCH   6  11
ENDBRANCH   1   2
BRANCH   1  19
ATOM     16  C   UNL     1       0.569  -3.514   2.168  0.00  0.00    +0.094 C 
ATOM     17  C   UNL     1       0.015  -2.812   3.411  0.00  0.00    -0.004 C 
ATOM     18  C   UNL     1       0.992  -3.002   4.574  0.00  0.00    -0.077 C 
ATOM     19  N   UNL     1       1.156  -4.434   4.851  0.00  0.00    +0.387 N 
ATOM     20  C   UNL     1       1.753  -5.101   3.688  0.00  0.00    -0.077 C 
ATOM     21  C   UNL     1       0.806  -4.992   2.491  0.00  0.00    -0.004 C 
ATOM     22  H   UNL     1       0.255  -4.843   5.046  0.00  0.00    -0.080 HD
BRANCH  16  23
ATOM     23  C   UNL     1      -0.424  -3.398   1.040  0.00  0.00    +0.310 C 
ATOM     24  O   UNL     1      -0.895  -4.395   0.544  0.00  0.00    -0.251 OA
BRANCH  23  25
ATOM     25  O   UNL     1      -0.786  -2.188   0.586  0.00  0.00    -0.465 OA
BRANCH  25  27
ATOM     26  C   UNL     1      -2.019  -0.699  -0.864  0.00  0.00    +0.048 C 
ATOM     27  C   UNL     1      -1.732  -2.153  -0.485  0.00  0.00    +0.229 C 
ENDBRANCH  25  27
ENDBRANCH  23  25
ENDBRANCH  16  23
ENDBRANCH   1  19
BRANCH   1  28
ATOM     28  C   UNL     1       1.350  -4.062   7.245  0.00  0.00    -0.056 A 
ATOM     29  C   UNL     1      -0.027  -3.946   7.275  0.00  0.00    +0.005 A 
ATOM     30  C   UNL     1      -0.654  -3.446   8.401  0.00  0.00    +0.038 A 
ATOM     31  C   UNL     1       0.098  -3.061   9.498  0.00  0.00    +0.123 A 
ATOM     32  C   UNL     1       1.477  -3.178   9.466  0.00  0.00    +0.038 A 
ATOM     33  C   UNL     1       2.101  -3.683   8.341  0.00  0.00    +0.005 A 
ATOM     34  F   UNL     1      -0.514  -2.572  10.598  0.00  0.00    -0.205 F 
ENDBRANCH   1  28
TORSDOF 7
