REMARK  Name = ZINC21536919
REMARK  3 active torsions:
REMARK  status: ('A' for Active; 'I' for Inactive)
REMARK    1  A    between atoms: C_3  and  N_8
REMARK    2  A    between atoms: N_15  and  C_16
REMARK    3  A    between atoms: C_16  and  C_17
REMARK                            x       y       z     vdW  Elec       q    Type
REMARK                         _______ _______ _______ _____ _____    ______ ____
ROOT
ATOM      1  N   UNL     1       7.337  -0.033   6.576  0.00  0.00    -0.280 N 
ATOM      2  C   UNL     1       8.419  -0.629   5.995  0.00  0.00    +0.114 A 
ATOM      3  C   UNL     1       8.415  -0.942   4.682  0.00  0.00    +0.131 A 
ATOM      4  N   UNL     1       7.364  -0.685   3.903  0.00  0.00    -0.234 NA
ATOM      5  C   UNL     1       6.287  -0.111   4.395  0.00  0.00    +0.185 A 
ATOM      6  C   UNL     1       6.255   0.250   5.816  0.00  0.00    +0.296 A 
ATOM      7  O   UNL     1       5.274   0.787   6.302  0.00  0.00    -0.264 OA
ATOM      8  N   UNL     1       5.196   0.154   3.577  0.00  0.00    -0.321 N 
ATOM      9  H   UNL     1       4.299   0.634   3.995  0.00  0.00    +0.148 HD
ENDROOT
BRANCH   1  12
ATOM     10  C   UNL     1       6.520  -0.063  10.161  0.00  0.00    +0.003 A 
ATOM     11  C   UNL     1       6.503  -0.377   8.816  0.00  0.00    +0.026 A 
ATOM     12  C   UNL     1       7.349   0.287   7.938  0.00  0.00    +0.051 A 
ATOM     13  C   UNL     1       8.204   1.273   8.413  0.00  0.00    +0.046 A 
ATOM     14  C   UNL     1       8.214   1.586   9.759  0.00  0.00    +0.043 A 
ATOM     15  C   UNL     1       7.372   0.919  10.633  0.00  0.00    +0.020 A 
ATOM     16 CL   UNL     1       9.282   2.819  10.355  0.00  0.00    -0.083 Cl
ENDBRANCH   1  12
BRANCH   8  17
ATOM     17  C   UNL     1       5.240  -0.205   2.157  0.00  0.00    +0.138 C 
BRANCH  17  18
ATOM     18  C   UNL     1       3.942   0.186   1.499  0.00  0.00    -0.027 A 
ATOM     19  C   UNL     1       2.892  -0.713   1.456  0.00  0.00    +0.009 A 
ATOM     20  C   UNL     1       1.700  -0.359   0.854  0.00  0.00    +0.050 A 
ATOM     21  C   UNL     1       1.554   0.898   0.291  0.00  0.00    +0.166 A 
ATOM     22  C   UNL     1       2.611   1.804   0.334  0.00  0.00    +0.167 A 
ATOM     23  C   UNL     1       3.803   1.442   0.940  0.00  0.00    +0.054 A 
ATOM     24  O   UNL     1       2.222   2.958  -0.282  0.00  0.00    -0.453 OA
ATOM     25  C   UNL     1       0.785   2.898  -0.341  0.00  0.00    +0.466 C 
ATOM     26  O   UNL     1       0.502   1.486  -0.352  0.00  0.00    -0.453 OA
ENDBRANCH  17  18
ENDBRANCH   8  17
TORSDOF 3
