REMARK  Name = ZINC54841368
REMARK  4 active torsions:
REMARK  status: ('A' for Active; 'I' for Inactive)
REMARK    1  A    between atoms: C_4  and  N_23
REMARK    2  A    between atoms: C_7  and  N_11
REMARK    3  A    between atoms: N_11  and  C_12
REMARK    4  A    between atoms: C_12  and  C_13
REMARK                            x       y       z     vdW  Elec       q    Type
REMARK                         _______ _______ _______ _____ _____    ______ ____
ROOT
ATOM      1  C   UNL     1       0.063   1.389  -0.780  0.00  0.00    +0.020 A 
ATOM      2  C   UNL     1       1.212   2.086  -0.536  0.00  0.00    +0.014 A 
ATOM      3  C   UNL     1       2.390   1.359  -0.280  0.00  0.00    +0.032 A 
ATOM      4  C   UNL     1       3.608   2.008  -0.021  0.00  0.00    +0.135 A 
ATOM      5  C   UNL     1       4.729   1.276   0.224  0.00  0.00    +0.035 A 
ATOM      6  C   UNL     1       4.691  -0.115   0.221  0.00  0.00    +0.027 A 
ATOM      7  C   UNL     1       3.516  -0.789  -0.029  0.00  0.00    +0.054 A 
ATOM      8  C   UNL     1       2.336  -0.057  -0.286  0.00  0.00    +0.094 A 
ATOM      9  N   UNL     1       1.179  -0.678  -0.531  0.00  0.00    -0.253 NA
ATOM     10  C   UNL     1       0.081  -0.004  -0.770  0.00  0.00    +0.111 A 
ENDROOT
BRANCH   4  11
ATOM     11  N   UNL     1       3.672   3.487  -0.014  0.00  0.00    +0.057 N 
ATOM     12  O   UNL     1       4.642   4.052  -0.463  0.00  0.00    -0.126 OA
ATOM     13  O   UNL     1       2.754   4.130   0.440  0.00  0.00    -0.126 OA
ENDBRANCH   4  11
BRANCH   7  14
ATOM     14  N   UNL     1       3.492  -2.183  -0.029  0.00  0.00    -0.337 N 
ATOM     15  H   UNL     1       2.663  -2.654  -0.206  0.00  0.00    +0.147 HD
BRANCH  14  16
ATOM     16  C   UNL     1       4.720  -2.937   0.237  0.00  0.00    +0.158 C 
BRANCH  16  17
ATOM     17  C   UNL     1       4.425  -4.414   0.179  0.00  0.00    +0.077 A 
ATOM     18  C   UNL     1       4.597  -5.210  -0.899  0.00  0.00    +0.117 A 
ATOM     19  N   UNL     1       4.215  -6.472  -0.534  0.00  0.00    -0.305 N 
ATOM     20  C   UNL     1       4.178  -7.658  -1.210  0.00  0.00    +0.108 A 
ATOM     21  C   UNL     1       3.748  -8.784  -0.601  0.00  0.00    +0.034 A 
ATOM     22  C   UNL     1       3.332  -8.748   0.740  0.00  0.00    +0.020 A 
ATOM     23  C   UNL     1       3.363  -7.574   1.425  0.00  0.00    +0.048 A 
ATOM     24  C   UNL     1       3.815  -6.407   0.775  0.00  0.00    +0.138 A 
ATOM     25  N   UNL     1       3.955  -5.155   1.186  0.00  0.00    -0.231 NA
ATOM     26 BR   UNL     1       3.705 -10.414  -1.558  0.00  0.00    -0.049 Br
ENDBRANCH  16  17
ENDBRANCH  14  16
ENDBRANCH   7  14
TORSDOF 4
