REMARK  Name = ZINC19203055
REMARK  7 active torsions:
REMARK  status: ('A' for Active; 'I' for Inactive)
REMARK    1  A    between atoms: C_1  and  O_2
REMARK    2  A    between atoms: O_2  and  C_3
REMARK    3  A    between atoms: C_6  and  C_10
REMARK    4  A    between atoms: N_12  and  C_13
REMARK    5  A    between atoms: C_13  and  C_14
REMARK    6  A    between atoms: C_14  and  N_15
REMARK    7  A    between atoms: C_19  and  C_20
REMARK                            x       y       z     vdW  Elec       q    Type
REMARK                         _______ _______ _______ _____ _____    ______ ____
ROOT
ATOM      1  N   UNL     1      -0.259   1.034   1.647  0.00  0.00    -0.227 N 
ATOM      2  C   UNL     1      -1.420   0.507   1.997  0.00  0.00    +0.260 C 
ATOM      3  O   UNL     1      -1.891  -0.448   1.407  0.00  0.00    -0.269 OA
ATOM      4  C   UNL     1      -2.115   1.135   3.138  0.00  0.00    +0.080 C 
ATOM      5  C   UNL     1      -3.303   0.813   3.711  0.00  0.00    +0.028 C 
ATOM      6  S   UNL     1      -0.962   2.435   3.558  0.00  0.00    -0.026 S 
ATOM      7  C   UNL     1       0.263   2.089   2.306  0.00  0.00    +0.286 C 
ATOM      8  O   UNL     1       1.313   2.666   2.097  0.00  0.00    -0.262 OA
ENDROOT
BRANCH   5   9
ATOM      9  C   UNL     1      -3.723   1.477   4.951  0.00  0.00    -0.020 A 
ATOM     10  C   UNL     1      -2.829   2.302   5.644  0.00  0.00    +0.012 A 
ATOM     11  C   UNL     1      -3.229   2.928   6.804  0.00  0.00    +0.050 A 
ATOM     12  C   UNL     1      -4.513   2.734   7.297  0.00  0.00    +0.166 A 
ATOM     13  C   UNL     1      -5.408   1.909   6.615  0.00  0.00    +0.167 A 
ATOM     14  C   UNL     1      -5.018   1.282   5.448  0.00  0.00    +0.057 A 
ATOM     15  O   UNL     1      -6.589   1.887   7.300  0.00  0.00    -0.453 OA
ATOM     16  C   UNL     1      -6.277   2.376   8.618  0.00  0.00    +0.466 C 
ATOM     17  O   UNL     1      -5.135   3.227   8.407  0.00  0.00    -0.453 OA
ENDBRANCH   5   9
BRANCH   1  18
ATOM     18  C   UNL     1       0.480   0.456   0.522  0.00  0.00    +0.136 C 
BRANCH  18  19
ATOM     19  C   UNL     1       0.059   1.149  -0.775  0.00  0.00    +0.124 C 
BRANCH  19  22
ATOM     20  C   UNL     1       0.588   1.029  -3.151  0.00  0.00    +0.244 C 
ATOM     21  O   UNL     1      -0.214   1.922  -3.345  0.00  0.00    -0.270 OA
ATOM     22  N   UNL     1       0.798   0.571  -1.900  0.00  0.00    -0.310 N 
ATOM     23  H   UNL     1       1.524  -0.236  -1.725  0.00  0.00    +0.149 HD
BRANCH  20  27
ATOM     24  C   UNL     1       2.732  -0.646  -6.413  0.00  0.00    +0.157 A 
ATOM     25  C   UNL     1       1.815   0.374  -6.637  0.00  0.00    +0.085 A 
ATOM     26  C   UNL     1       1.117   0.920  -5.581  0.00  0.00    +0.036 A 
ATOM     27  C   UNL     1       1.333   0.447  -4.284  0.00  0.00    +0.040 A 
ATOM     28  C   UNL     1       2.260  -0.575  -4.062  0.00  0.00    +0.036 A 
ATOM     29  C   UNL     1       2.950  -1.119  -5.124  0.00  0.00    +0.085 A 
ATOM     30 CL   UNL     1       4.098  -2.393  -4.850  0.00  0.00    -0.080 Cl
ATOM     31 CL   UNL     1       1.547   0.961  -8.249  0.00  0.00    -0.080 Cl
BRANCH  24  33
ATOM     32  C   UNL     1       4.667  -0.572  -7.792  0.00  0.00    +0.277 C 
ATOM     33  O   UNL     1       3.418  -1.181  -7.455  0.00  0.00    -0.492 OA
ENDBRANCH  24  33
ENDBRANCH  20  27
ENDBRANCH  19  22
ENDBRANCH  18  19
ENDBRANCH   1  18
TORSDOF 6
