REMARK  Name = ZINC02273052
REMARK  9 active torsions:
REMARK  status: ('A' for Active; 'I' for Inactive)
REMARK    1  A    between atoms: C_1  and  C_2
REMARK    2  A    between atoms: C_11  and  N_27
REMARK    3  A    between atoms: C_13  and  S_15
REMARK    4  A    between atoms: S_15  and  C_16
REMARK    5  A    between atoms: C_16  and  C_17
REMARK    6  A    between atoms: C_20  and  O_23
REMARK    7  A    between atoms: O_23  and  C_24
REMARK    8  A    between atoms: C_24  and  C_25
REMARK    9  A    between atoms: C_24  and  C_26
REMARK                            x       y       z     vdW  Elec       q    Type
REMARK                         _______ _______ _______ _____ _____    ______ ____
ROOT
ATOM      1  C   UNL     1       4.048  -3.905  -2.328  0.00  0.00    +0.008 C 
ATOM      2  C   UNL     1       2.656  -3.318  -2.092  0.00  0.00    -0.009 C 
ATOM      3  C   UNL     1       2.107  -3.821  -0.753  0.00  0.00    +0.008 C 
ATOM      4  C   UNL     1       0.631  -3.443  -0.623  0.00  0.00    +0.037 C 
ATOM      5  C   UNL     1       0.482  -1.945  -0.875  0.00  0.00    -0.025 A 
ATOM      6  C   UNL     1       1.449  -1.253  -1.509  0.00  0.00    -0.004 A 
ATOM      7  S   UNL     1       0.857   0.416  -1.576  0.00  0.00    -0.073 S 
ATOM      8  C   UNL     1      -0.694   0.183  -0.748  0.00  0.00    +0.115 A 
ATOM      9  C   UNL     1      -0.700  -1.193  -0.446  0.00  0.00    +0.051 A 
ATOM     10  C   UNL     1      -1.855  -1.667   0.236  0.00  0.00    +0.129 A 
ATOM     11  N   UNL     1      -2.823  -0.817   0.536  0.00  0.00    -0.207 NA
ATOM     12  C   UNL     1      -2.753   0.471   0.221  0.00  0.00    +0.191 A 
ATOM     13  N   UNL     1      -1.698   0.969  -0.410  0.00  0.00    -0.215 NA
ATOM     14  C   UNL     1       2.744  -1.786  -2.042  0.00  0.00    +0.046 C 
ENDROOT
BRANCH  10  15
ATOM     15  N   UNL     1      -1.965  -3.002   0.581  0.00  0.00    -0.343 N 
ATOM     16  H   UNL     1      -2.622  -3.280   1.239  0.00  0.00    +0.144 HD
ATOM     17  H   UNL     1      -1.386  -3.660   0.166  0.00  0.00    +0.144 HD
ENDBRANCH  10  15
BRANCH  12  18
ATOM     18  S   UNL     1      -4.085   1.540   0.656  0.00  0.00    -0.081 S 
BRANCH  18  19
ATOM     19  C   UNL     1      -5.188   0.356   1.465  0.00  0.00    +0.112 C 
BRANCH  19  20
ATOM     20  C   UNL     1      -6.431   1.066   1.934  0.00  0.00    -0.037 A 
ATOM     21  C   UNL     1      -6.476   1.615   3.202  0.00  0.00    +0.008 A 
ATOM     22  C   UNL     1      -7.613   2.272   3.631  0.00  0.00    +0.046 A 
ATOM     23  C   UNL     1      -8.714   2.372   2.793  0.00  0.00    +0.121 A 
ATOM     24  C   UNL     1      -8.669   1.815   1.523  0.00  0.00    +0.046 A 
ATOM     25  C   UNL     1      -7.527   1.163   1.097  0.00  0.00    +0.008 A 
BRANCH  23  26
ATOM     26  O   UNL     1      -9.836   3.012   3.215  0.00  0.00    -0.489 OA
BRANCH  26  27
ATOM     27  C   UNL     1     -10.885   3.181   2.260  0.00  0.00    +0.167 C 
ATOM     28  C   UNL     1     -11.785   1.944   2.267  0.00  0.00    +0.051 C 
ATOM     29  C   UNL     1     -11.712   4.416   2.624  0.00  0.00    +0.051 C 
ENDBRANCH  26  27
ENDBRANCH  23  26
ENDBRANCH  19  20
ENDBRANCH  18  19
ENDBRANCH  12  18
TORSDOF 6
