REMARK  Name = ZINC39478806
REMARK  6 active torsions:
REMARK  status: ('A' for Active; 'I' for Inactive)
REMARK    1  A    between atoms: C_7  and  C_10
REMARK    2  A    between atoms: C_10  and  C_11
REMARK    3  A    between atoms: C_11  and  N_12
REMARK    4  A    between atoms: C_25  and  N_29
REMARK    5  A    between atoms: N_29  and  C_30
REMARK    6  A    between atoms: C_30  and  C_31
REMARK                            x       y       z     vdW  Elec       q    Type
REMARK                         _______ _______ _______ _____ _____    ______ ____
ROOT
ATOM      1  N   UNL     1      -4.962   5.047  -1.362  0.00  0.00    -0.262 N 
ATOM      2  C   UNL     1      -6.317   5.266  -1.446  0.00  0.00    +0.186 C 
ATOM      3  N   UNL     1      -6.793   6.398  -1.816  0.00  0.00    -0.261 NA
ATOM      4  C   UNL     1      -5.948   7.537  -2.165  0.00  0.00    +0.184 C 
ATOM      5  C   UNL     1      -4.631   7.485  -1.349  0.00  0.00    +0.137 C 
ATOM      6  C   UNL     1      -4.119   6.094  -1.262  0.00  0.00    +0.230 C 
ATOM      7  O   UNL     1      -2.931   5.899  -1.121  0.00  0.00    -0.274 OA
ATOM      8  C   UNL     1      -4.851   8.004   0.050  0.00  0.00    -0.046 C 
ATOM      9  C   UNL     1      -5.873   8.836   0.234  0.00  0.00    -0.014 C 
ATOM     10  S   UNL     1      -6.682   9.043  -1.384  0.00  0.00    -0.102 S 
ATOM     11  C   UNL     1      -6.284   9.494   1.519  0.00  0.00    +0.026 C 
ATOM     12  C   UNL     1      -5.591   8.776   2.684  0.00  0.00    -0.066 C 
ATOM     13  C   UNL     1      -4.106   8.614   2.344  0.00  0.00    -0.011 C 
ATOM     14  C   UNL     1      -3.948   7.600   1.211  0.00  0.00    +0.031 C 
ENDROOT
BRANCH  12  15
ATOM     15  N   UNL     1      -5.736   9.572   3.910  0.00  0.00    +0.384 N 
ATOM     16  H   UNL     1      -5.211   9.140   4.655  0.00  0.00    -0.085 HD
ATOM     17  H   UNL     1      -5.387  10.505   3.749  0.00  0.00    -0.085 HD
BRANCH  15  18
ATOM     18  C   UNL     1      -7.155   9.639   4.285  0.00  0.00    -0.046 C 
BRANCH  18  19
ATOM     19  C   UNL     1      -7.304  10.455   5.543  0.00  0.00    -0.062 A 
ATOM     20  C   UNL     1      -7.239   9.839   6.779  0.00  0.00    +0.002 A 
ATOM     21  C   UNL     1      -7.376  10.586   7.933  0.00  0.00    +0.003 A 
ATOM     22  C   UNL     1      -7.577  11.952   7.854  0.00  0.00    +0.038 A 
ATOM     23  C   UNL     1      -7.643  12.570   6.617  0.00  0.00    +0.124 A 
ATOM     24  C   UNL     1      -7.500  11.821   5.461  0.00  0.00    +0.040 A 
ATOM     25  F   UNL     1      -7.840  13.904   6.537  0.00  0.00    -0.205 F 
ENDBRANCH  18  19
ENDBRANCH  15  18
ENDBRANCH  12  15
BRANCH   1  26
ATOM     26  C   UNL     1      -4.437   3.680  -1.374  0.00  0.00    +0.119 C 
BRANCH  26  27
ATOM     27  C   UNL     1      -4.358   3.151   0.060  0.00  0.00    +0.056 C 
BRANCH  27  34
ATOM     28  C   UNL     1      -0.017   1.384   0.010  0.00  0.00    +0.001 A 
ATOM     29  C   UNL     1       0.002  -0.004   0.002  0.00  0.00    +0.002 A 
ATOM     30  C   UNL     1      -1.173  -0.723   0.009  0.00  0.00    +0.026 A 
ATOM     31  C   UNL     1      -2.392  -0.053   0.024  0.00  0.00    +0.047 A 
ATOM     32  N   UNL     1      -3.704  -0.472   0.034  0.00  0.00    -0.360 N 
ATOM     33  C   UNL     1      -4.539   0.612   0.047  0.00  0.00    +0.087 A 
ATOM     34  C   UNL     1      -3.818   1.744   0.047  0.00  0.00    -0.021 A 
ATOM     35  C   UNL     1      -2.406   1.353   0.032  0.00  0.00    +0.003 A 
ATOM     36  C   UNL     1      -1.203   2.062   0.030  0.00  0.00    +0.010 A 
ATOM     37  H   UNL     1      -3.993  -1.398   0.030  0.00  0.00    +0.165 HD
ENDBRANCH  27  34
ENDBRANCH  26  27
ENDBRANCH   1  26
TORSDOF 6
