REMARK  Name = ZINC09329156
REMARK  10 active torsions:
REMARK  status: ('A' for Active; 'I' for Inactive)
REMARK    1  A    between atoms: C_1  and  C_2
REMARK    2  A    between atoms: C_2  and  N_3
REMARK    3  A    between atoms: C_14  and  C_15
REMARK    4  A    between atoms: C_14  and  O_24
REMARK    5  A    between atoms: N_29  and  C_30
REMARK    6  A    between atoms: C_30  and  C_31
REMARK    7  A    between atoms: C_31  and  C_32
REMARK    8  A    between atoms: C_32  and  N_62
REMARK    9  A    between atoms: C_33  and  N_62
REMARK   10  A    between atoms: C_34  and  N_62
REMARK                            x       y       z     vdW  Elec       q    Type
REMARK                         _______ _______ _______ _____ _____    ______ ____
ROOT
ATOM      1  N   UNL     1      -2.074   5.188  -0.597  0.00  0.00    -0.269 N 
ATOM      2  C   UNL     1      -2.104   4.895   0.767  0.00  0.00    +0.042 A 
ATOM      3  C   UNL     1      -2.783   5.511   1.816  0.00  0.00    +0.024 A 
ATOM      4  C   UNL     1      -2.653   5.032   3.103  0.00  0.00    +0.002 A 
ATOM      5  C   UNL     1      -1.848   3.937   3.363  0.00  0.00    +0.000 A 
ATOM      6  C   UNL     1      -1.171   3.319   2.326  0.00  0.00    +0.008 A 
ATOM      7  C   UNL     1      -1.298   3.795   1.040  0.00  0.00    +0.011 A 
ATOM      8  C   UNL     1      -0.715   3.368  -0.281  0.00  0.00    +0.174 C 
ATOM      9  C   UNL     1      -1.284   4.341  -1.282  0.00  0.00    +0.253 C 
ATOM     10  O   UNL     1      -1.070   4.358  -2.476  0.00  0.00    -0.272 OA
ATOM     11  C   UNL     1       0.789   3.435  -0.257  0.00  0.00    +0.086 C 
ATOM     12  C   UNL     1       1.571   4.546   0.011  0.00  0.00    +0.169 C 
ATOM     13  C   UNL     1       1.235   2.141  -0.563  0.00  0.00    +0.250 C 
ATOM     14  O   UNL     1       2.398   1.786  -0.642  0.00  0.00    -0.282 OA
ATOM     15  C   UNL     1       0.043   1.276  -0.774  0.00  0.00    +0.288 C 
ATOM     16  O   UNL     1       0.081   0.096  -1.055  0.00  0.00    -0.266 OA
ATOM     17  N   UNL     1      -1.083   1.996  -0.614  0.00  0.00    -0.273 N 
ENDROOT
BRANCH  12  18
ATOM     18  C   UNL     1       3.025   4.412   0.107  0.00  0.00    +0.171 A 
ATOM     19  C   UNL     1       3.933   5.216  -0.513  0.00  0.00    +0.061 A 
ATOM     20  C   UNL     1       5.218   4.739  -0.154  0.00  0.00    +0.021 A 
ATOM     21  C   UNL     1       6.522   5.140  -0.467  0.00  0.00    +0.011 A 
ATOM     22  C   UNL     1       7.584   4.456   0.052  0.00  0.00    +0.001 A 
ATOM     23  C   UNL     1       7.380   3.365   0.887  0.00  0.00    +0.004 A 
ATOM     24  C   UNL     1       6.104   2.954   1.208  0.00  0.00    +0.047 A 
ATOM     25  C   UNL     1       5.008   3.634   0.693  0.00  0.00    +0.136 A 
ATOM     26  O   UNL     1       3.675   3.473   0.829  0.00  0.00    -0.452 OA
ENDBRANCH  12  18
BRANCH   1  28
ATOM     27  C   UNL     1      -4.201   5.798  -1.640  0.00  0.00    +0.025 C 
ATOM     28  C   UNL     1      -2.817   6.291  -1.213  0.00  0.00    +0.110 C 
ENDBRANCH   1  28
BRANCH  12  29
ATOM     29  O   UNL     1       0.992   5.755   0.184  0.00  0.00    -0.503 OA
ATOM     30  H   UNL     1       1.697   6.439   0.368  0.00  0.00    +0.292 HD
ENDBRANCH  12  29
BRANCH  17  31
ATOM     31  C   UNL     1      -2.450   1.486  -0.748  0.00  0.00    +0.108 C 
BRANCH  31  32
ATOM     32  C   UNL     1      -2.939   0.975   0.609  0.00  0.00    +0.000 C 
BRANCH  32  33
ATOM     33  C   UNL     1      -4.367   0.443   0.468  0.00  0.00    -0.078 C 
BRANCH  33  36
ATOM     34  C   UNL     1      -4.968   1.055   2.732  0.00  0.00    -0.097 C 
ATOM     35  C   UNL     1      -6.103  -0.779   1.632  0.00  0.00    -0.097 C 
ATOM     36  N   UNL     1      -4.817  -0.066   1.781  0.00  0.00    +0.376 N 
ATOM     37  H   UNL     1      -4.113  -0.719   2.145  0.00  0.00    -0.083 HD
ENDBRANCH  33  36
ENDBRANCH  32  33
ENDBRANCH  31  32
ENDBRANCH  17  31
TORSDOF 7
