REMARK  Name = ZINC39467143
REMARK  6 active torsions:
REMARK  status: ('A' for Active; 'I' for Inactive)
REMARK    1  A    between atoms: C_1  and  O_2
REMARK    2  A    between atoms: O_2  and  C_3
REMARK    3  A    between atoms: P_12  and  C_28
REMARK    4  A    between atoms: C_20  and  C_21
REMARK    5  A    between atoms: C_21  and  C_22
REMARK    6  A    between atoms: C_33  and  O_34
REMARK                            x       y       z     vdW  Elec       q    Type
REMARK                         _______ _______ _______ _____ _____    ______ ____
ROOT
ATOM      1  C   UNL     1       0.626  -0.618   1.041  0.00  0.00    +0.120 C 
ATOM      2  C   UNL     1       1.183   0.110   2.018  0.00  0.00    +0.023 C 
ATOM      3  C   UNL     1       1.853  -0.605   3.159  0.00  0.00    +0.019 C 
ATOM      4  C   UNL     1       1.927   0.272   4.404  0.00  0.00    -0.002 C 
ATOM      5  C   UNL     1       2.582  -0.517   5.547  0.00  0.00    -0.020 C 
ATOM      6  C   UNL     1       2.610   0.399   6.776  0.00  0.00    +0.157 C 
ATOM      7  O   UNL     1       3.297  -0.267   7.852  0.00  0.00    -0.316 OA
ATOM      8  P   UNL     1       2.836  -1.783   8.220  0.00  0.00    +0.291 P 
ATOM      9  O   UNL     1       1.619  -1.759   9.064  0.00  0.00    -0.269 OA
ATOM     10  N   UNL     1       2.513  -2.503   6.771  0.00  0.00    -0.288 NA
ATOM     11  N   UNL     1       1.840  -1.745   5.833  0.00  0.00    +0.398 N 
ATOM     12  C   UNL     1       1.732  -2.600   4.638  0.00  0.00    -0.046 C 
ATOM     13  C   UNL     1       1.034  -1.855   3.508  0.00  0.00    +0.005 C 
ATOM     14  C   UNL     1       0.881  -2.698   2.273  0.00  0.00    -0.017 C 
ATOM     15  C   UNL     1       0.687  -2.092   1.104  0.00  0.00    -0.005 C 
ATOM     16  H   UNL     1       2.777  -3.420   6.595  0.00  0.00    +0.111 HD
ATOM     17  H   UNL     1       0.918  -1.511   6.167  0.00  0.00    -0.055 HD
ENDROOT
BRANCH   8  18
ATOM     18  C   UNL     1       4.175  -2.657   9.076  0.00  0.00    +0.091 A 
ATOM     19  C   UNL     1       5.111  -3.369   8.351  0.00  0.00    +0.018 A 
ATOM     20  C   UNL     1       6.131  -4.036   9.002  0.00  0.00    +0.001 A 
ATOM     21  C   UNL     1       6.220  -3.991  10.382  0.00  0.00    +0.004 A 
ATOM     22  C   UNL     1       5.287  -3.280  11.112  0.00  0.00    +0.046 A 
ATOM     23  C   UNL     1       4.265  -2.606  10.460  0.00  0.00    +0.131 A 
BRANCH  23  24
ATOM     24  O   UNL     1       3.349  -1.901  11.175  0.00  0.00    -0.506 OA
ATOM     25  H   UNL     1       2.576  -2.417  11.442  0.00  0.00    +0.292 HD
ENDBRANCH  23  24
ENDBRANCH   8  18
BRANCH   1  27
ATOM     26  C   UNL     1      -0.017   1.425   0.010  0.00  0.00    +0.277 C 
ATOM     27  O   UNL     1       0.002  -0.004   0.002  0.00  0.00    -0.495 OA
ENDBRANCH   1  27
BRANCH  15  28
ATOM     28  C   UNL     1       0.537  -2.910  -0.153  0.00  0.00    +0.073 C 
BRANCH  28  29
ATOM     29  C   UNL     1      -0.927  -3.128  -0.438  0.00  0.00    -0.043 A 
ATOM     30  C   UNL     1      -1.576  -4.230   0.087  0.00  0.00    +0.004 A 
ATOM     31  C   UNL     1      -2.919  -4.431  -0.174  0.00  0.00    +0.000 A 
ATOM     32  C   UNL     1      -3.612  -3.529  -0.959  0.00  0.00    +0.000 A 
ATOM     33  C   UNL     1      -2.963  -2.427  -1.483  0.00  0.00    +0.000 A 
ATOM     34  C   UNL     1      -1.622  -2.224  -1.219  0.00  0.00    +0.004 A 
ENDBRANCH  28  29
ENDBRANCH  15  28
TORSDOF 5
