REMARK  Name = ZINC13561512
REMARK  15 active torsions:
REMARK  status: ('A' for Active; 'I' for Inactive)
REMARK    1  A    between atoms: C_1  and  C_2
REMARK    2  A    between atoms: C_2  and  C_3
REMARK    3  A    between atoms: C_3  and  C_5
REMARK    4  A    between atoms: C_3  and  N_68
REMARK    5  A    between atoms: C_6  and  C_7
REMARK    6  A    between atoms: C_6  and  N_68
REMARK    7  A    between atoms: C_7  and  N_8
REMARK    8  A    between atoms: N_13  and  C_14
REMARK    9  A    between atoms: C_14  and  C_15
REMARK   10  A    between atoms: N_24  and  C_29
REMARK   11  A    between atoms: N_27  and  C_28
REMARK   12  A    between atoms: C_30  and  C_32
REMARK   13  A    between atoms: C_30  and  C_33
REMARK   14  A    between atoms: C_30  and  N_68
REMARK   15  A    between atoms: C_33  and  C_34
REMARK                            x       y       z     vdW  Elec       q    Type
REMARK                         _______ _______ _______ _____ _____    ______ ____
ROOT
ATOM      1  N   UNL     1       0.441  -3.312   5.131  0.00  0.00    -0.317 N 
ATOM      2  C   UNL     1       0.056  -4.620   5.322  0.00  0.00    +0.198 A 
ATOM      3  N   UNL     1      -0.713  -5.314   4.508  0.00  0.00    -0.196 NA
ATOM      4  C   UNL     1      -0.887  -6.547   4.987  0.00  0.00    +0.170 A 
ATOM      5  C   UNL     1      -0.190  -6.633   6.187  0.00  0.00    +0.153 A 
ATOM      6  N   UNL     1       0.405  -5.394   6.383  0.00  0.00    -0.302 N 
ATOM      7  C   UNL     1      -0.212  -7.840   6.909  0.00  0.00    +0.282 A 
ATOM      8  O   UNL     1       0.392  -7.938   7.962  0.00  0.00    -0.265 OA
ATOM      9  N   UNL     1      -0.910  -8.887   6.422  0.00  0.00    -0.262 N 
ATOM     10  C   UNL     1      -1.581  -8.793   5.261  0.00  0.00    +0.333 A 
ATOM     11  O   UNL     1      -2.199  -9.758   4.853  0.00  0.00    -0.246 OA
ATOM     12  N   UNL     1      -1.585  -7.657   4.539  0.00  0.00    -0.280 N 
ATOM     13  C   UNL     1      -2.329  -7.594   3.278  0.00  0.00    +0.155 C 
ATOM     14  C   UNL     1      -0.937 -10.146   7.171  0.00  0.00    +0.157 C 
ATOM     15  H   UNL     1       1.007  -2.873   5.785  0.00  0.00    +0.149 HD
ENDROOT
BRANCH   1  16
ATOM     16  C   UNL     1      -0.005  -2.584   3.941  0.00  0.00    +0.086 C 
BRANCH  16  17
ATOM     17  C   UNL     1       0.559  -1.162   3.972  0.00  0.00    -0.059 C 
BRANCH  17  18
ATOM     18  N   UNL     1      -0.020  -0.397   2.848  0.00  0.00    +0.384 N 
ATOM     19  H   UNL     1      -1.032  -0.566   2.815  0.00  0.00    -0.081 HD
BRANCH  18  20
ATOM     20  C   UNL     1       0.219   1.048   3.044  0.00  0.00    -0.072 C 
ATOM     21  C   UNL     1       1.595   1.282   3.673  0.00  0.00    -0.013 C 
BRANCH  20  23
ATOM     22  C   UNL     1      -2.226   1.507   3.276  0.00  0.00    +0.002 C 
ATOM     23  C   UNL     1      -0.865   1.602   3.970  0.00  0.00    -0.019 C 
ENDBRANCH  20  23
ENDBRANCH  18  20
BRANCH  18  24
ATOM     24  C   UNL     1       0.582  -0.840   1.572  0.00  0.00    -0.072 C 
ATOM     25  C   UNL     1       2.034  -0.370   1.473  0.00  0.00    -0.013 C 
BRANCH  24  26
ATOM     26  C   UNL     1      -0.226  -0.249   0.415  0.00  0.00    -0.019 C 
ATOM     27  C   UNL     1      -1.639  -0.836   0.428  0.00  0.00    +0.002 C 
ENDBRANCH  24  26
ENDBRANCH  18  24
ENDBRANCH  17  18
ENDBRANCH  16  17
ENDBRANCH   1  16
BRANCH   6  28
ATOM     28  C   UNL     1       1.246  -4.998   7.516  0.00  0.00    +0.160 C 
BRANCH  28  29
ATOM     29  C   UNL     1       0.381  -4.420   8.606  0.00  0.00    -0.028 A 
ATOM     30  C   UNL     1       0.117  -3.063   8.632  0.00  0.00    +0.007 A 
ATOM     31  C   UNL     1      -0.681  -2.533   9.629  0.00  0.00    +0.020 A 
ATOM     32  C   UNL     1      -1.207  -3.359  10.606  0.00  0.00    +0.041 A 
ATOM     33  C   UNL     1      -0.938  -4.716  10.582  0.00  0.00    +0.020 A 
ATOM     34  C   UNL     1      -0.144  -5.246   9.582  0.00  0.00    +0.007 A 
ATOM     35 CL   UNL     1      -2.204  -2.693  11.861  0.00  0.00    -0.084 Cl
ENDBRANCH  28  29
ENDBRANCH   6  28
TORSDOF 9
