REMARK  Name = ZINC38576801
REMARK  9 active torsions:
REMARK  status: ('A' for Active; 'I' for Inactive)
REMARK    1  A    between atoms: C_1  and  C_2
REMARK    2  A    between atoms: C_4  and  C_34
REMARK    3  A    between atoms: C_5  and  O_33
REMARK    4  A    between atoms: C_6  and  C_8
REMARK    5  A    between atoms: C_11  and  C_13
REMARK    6  A    between atoms: N_15  and  C_16
REMARK    7  A    between atoms: C_18  and  C_29
REMARK    8  A    between atoms: C_29  and  O_31
REMARK    9  A    between atoms: O_31  and  C_32
REMARK                            x       y       z     vdW  Elec       q    Type
REMARK                         _______ _______ _______ _____ _____    ______ ____
ROOT
ATOM      1  C   UNL     1       0.441  -3.712   6.123  0.00  0.00    +0.261 C 
ATOM      2  O   UNL     1       0.764  -2.737   6.776  0.00  0.00    -0.269 OA
ATOM      3  N   UNL     1       0.098  -4.857   6.747  0.00  0.00    -0.298 N 
ATOM      4  H   UNL     1      -0.224  -5.612   6.231  0.00  0.00    +0.150 HD
ENDROOT
BRANCH   3   5
ATOM      5  C   UNL     1       0.214  -4.961   8.203  0.00  0.00    +0.145 C 
ATOM      6  C   UNL     1      -0.739  -6.045   8.750  0.00  0.00    +0.132 C 
ATOM      7  C   UNL     1      -1.898  -5.462   9.583  0.00  0.00    +0.018 C 
ATOM      8  C   UNL     1      -2.996  -5.080   8.586  0.00  0.00    +0.005 C 
ATOM      9  C   UNL     1      -4.099  -4.271   9.259  0.00  0.00    +0.000 C 
ATOM     10  C   UNL     1      -3.488  -2.959   9.767  0.00  0.00    +0.001 C 
ATOM     11  C   UNL     1      -2.469  -3.307  10.850  0.00  0.00    +0.014 C 
ATOM     12  C   UNL     1      -1.381  -4.233  10.358  0.00  0.00    +0.052 C 
ATOM     13  S   UNL     1      -0.387  -3.418   9.015  0.00  0.00    -0.134 S 
BRANCH   6  14
ATOM     14  C   UNL     1       0.050  -6.992   9.616  0.00  0.00    +0.313 C 
ATOM     15  O   UNL     1      -0.226  -7.111  10.787  0.00  0.00    -0.250 OA
BRANCH  14  16
ATOM     16  O   UNL     1       1.058  -7.704   9.088  0.00  0.00    -0.468 OA
ATOM     17  C   UNL     1       1.762  -8.582   9.968  0.00  0.00    +0.280 C 
ENDBRANCH  14  16
ENDBRANCH   6  14
ENDBRANCH   3   5
BRANCH   1  21
ATOM     18  C   UNL     1       0.557  -3.015   2.393  0.00  0.00    +0.080 C 
ATOM     19  N   UNL     1       0.173  -4.256   2.592  0.00  0.00    -0.153 NA
ATOM     20  N   UNL     1       0.101  -4.591   3.820  0.00  0.00    -0.148 NA
ATOM     21  C   UNL     1       0.423  -3.641   4.659  0.00  0.00    +0.131 C 
ATOM     22  C   UNL     1       0.780  -2.449   3.786  0.00  0.00    +0.120 C 
BRANCH  18  28
ATOM     23  C   UNL     1       1.787   1.078  -0.165  0.00  0.00    +0.044 C 
ATOM     24  C   UNL     1       1.330  -0.358  -0.130  0.00  0.00    -0.049 A 
ATOM     25  C   UNL     1       1.079  -1.030  -1.317  0.00  0.00    +0.010 A 
ATOM     26  C   UNL     1       0.660  -2.346  -1.301  0.00  0.00    -0.008 A 
ATOM     27  C   UNL     1       0.485  -3.007  -0.095  0.00  0.00    +0.129 A 
ATOM     28  C   UNL     1       0.738  -2.330   1.112  0.00  0.00    +0.040 A 
ATOM     29  C   UNL     1       1.168  -0.996   1.079  0.00  0.00    +0.016 A 
ATOM     30  C   UNL     1       0.391  -3.065  -2.598  0.00  0.00    +0.047 C 
BRANCH  27  31
ATOM     31  O   UNL     1       0.072  -4.298  -0.079  0.00  0.00    -0.506 OA
ATOM     32  H   UNL     1       0.793  -4.942  -0.100  0.00  0.00    +0.292 HD
ENDBRANCH  27  31
ENDBRANCH  18  28
ENDBRANCH   1  21
TORSDOF 6
