REMARK  Name = ZINC29939493
REMARK  9 active torsions:
REMARK  status: ('A' for Active; 'I' for Inactive)
REMARK    1  A    between atoms: C_1  and  C_2
REMARK    2  A    between atoms: C_2  and  C_3
REMARK    3  A    between atoms: C_6  and  C_9
REMARK    4  A    between atoms: C_9  and  C_11
REMARK    5  A    between atoms: C_9  and  N_16
REMARK    6  A    between atoms: N_16  and  C_17
REMARK    7  A    between atoms: C_17  and  C_18
REMARK    8  A    between atoms: N_20  and  C_21
REMARK    9  A    between atoms: C_21  and  C_28
REMARK                            x       y       z     vdW  Elec       q    Type
REMARK                         _______ _______ _______ _____ _____    ______ ____
ROOT
ATOM      1  N   UNL     1      -3.611   1.792   0.029  0.00  0.00    +0.392 N 
ATOM      2  H   UNL     1      -3.549   2.428  -0.866  0.00  0.00    -0.084 HD
ATOM      3  H   UNL     1      -3.541   2.419   0.930  0.00  0.00    -0.084 HD
ENDROOT
BRANCH   1   4
ATOM      4  C   UNL     1      -4.893   1.074   0.031  0.00  0.00    -0.003 C 
BRANCH   4   8
ATOM      5  C   UNL     1      -7.927   3.572  -1.642  0.00  0.00    -0.048 A 
ATOM      6  C   UNL     1      -7.899   2.223  -1.943  0.00  0.00    +0.004 A 
ATOM      7  C   UNL     1      -6.917   1.415  -1.402  0.00  0.00    +0.002 A 
ATOM      8  C   UNL     1      -5.963   1.956  -0.559  0.00  0.00    -0.057 A 
ATOM      9  C   UNL     1      -5.995   3.303  -0.255  0.00  0.00    +0.002 A 
ATOM     10  C   UNL     1      -6.974   4.113  -0.800  0.00  0.00    +0.004 A 
BRANCH   5  12
ATOM     11  C   UNL     1     -10.209   4.481  -1.297  0.00  0.00    +0.009 C 
ATOM     12  C   UNL     1      -8.998   4.453  -2.232  0.00  0.00    +0.032 C 
ENDBRANCH   5  12
ENDBRANCH   4   8
BRANCH   4  13
ATOM     13  C   UNL     1      -5.264   0.713   1.446  0.00  0.00    -0.020 A 
ATOM     14  C   UNL     1      -5.827  -0.427   1.917  0.00  0.00    +0.010 A 
ATOM     15  C   UNL     1      -6.078  -0.541   3.271  0.00  0.00    +0.008 A 
ATOM     16  C   UNL     1      -5.764   0.495   4.088  0.00  0.00    +0.045 A 
ATOM     17  S   UNL     1      -5.084   1.679   2.937  0.00  0.00    -0.103 S 
ENDBRANCH   4  13
ENDBRANCH   1   4
BRANCH   1  18
ATOM     18  C   UNL     1      -2.482   0.853   0.018  0.00  0.00    +0.016 C 
BRANCH  18  19
ATOM     19  C   UNL     1      -1.187   1.624   0.017  0.00  0.00    +0.197 C 
ATOM     20  O   UNL     1      -1.204   2.837   0.023  0.00  0.00    -0.278 OA
ATOM     21  N   UNL     1      -0.011   0.966   0.007  0.00  0.00    -0.299 N 
ATOM     22  H   UNL     1       0.004  -0.134   0.006  0.00  0.00    +0.150 HD
BRANCH  21  23
ATOM     23  C   UNL     1       1.248   1.716  -0.001  0.00  0.00    +0.121 C 
ATOM     24  C   UNL     1       1.260   2.658  -1.221  0.00  0.00    +0.041 C 
ATOM     25  C   UNL     1       2.257   3.756  -0.968  0.00  0.00    +0.003 C 
ATOM     26  C   UNL     1       3.644   3.440  -1.558  0.00  0.00    +0.000 C 
ATOM     27  C   UNL     1       4.068   1.975  -1.338  0.00  0.00    +0.000 C 
ATOM     28  C   UNL     1       3.728   1.479   0.041  0.00  0.00    +0.003 C 
ATOM     29  C   UNL     1       2.357   0.774  -0.016  0.00  0.00    +0.041 C 
BRANCH  23  30
ATOM     30  C   UNL     1       1.327   2.526   1.226  0.00  0.00    +0.088 C 
ATOM     31  N   UNL     1       1.389   3.151   2.172  0.00  0.00    -0.194 NA
ENDBRANCH  23  30
ENDBRANCH  21  23
ENDBRANCH  18  19
ENDBRANCH   1  18
TORSDOF 8
