REMARK  Name = ZINC63349920
REMARK  10 active torsions:
REMARK  status: ('A' for Active; 'I' for Inactive)
REMARK    1  A    between atoms: C_1  and  C_2
REMARK    2  A    between atoms: N_4  and  C_5
REMARK    3  A    between atoms: C_8  and  O_11
REMARK    4  A    between atoms: O_11  and  C_12
REMARK    5  A    between atoms: C_12  and  C_13
REMARK    6  A    between atoms: C_15  and  C_21
REMARK    7  A    between atoms: C_18  and  O_19
REMARK    8  A    between atoms: O_19  and  C_20
REMARK    9  A    between atoms: C_28  and  O_33
REMARK   10  A    between atoms: O_33  and  C_34
REMARK                            x       y       z     vdW  Elec       q    Type
REMARK                         _______ _______ _______ _____ _____    ______ ____
ROOT
ATOM      1  C   UNL     1      -0.348  -8.368  -1.980  0.00  0.00    +0.032 A 
ATOM      2  C   UNL     1      -0.429  -8.850  -0.687  0.00  0.00    +0.015 A 
ATOM      3  C   UNL     1      -0.505 -10.211  -0.459  0.00  0.00    -0.028 A 
ATOM      4  C   UNL     1      -0.500 -11.094  -1.523  0.00  0.00    +0.009 A 
ATOM      5  C   UNL     1      -0.420 -10.618  -2.817  0.00  0.00    +0.046 A 
ATOM      6  C   UNL     1      -0.349  -9.252  -3.049  0.00  0.00    +0.126 A 
ENDROOT
BRANCH   3   7
ATOM      7  C   UNL     1      -0.592 -10.733   0.952  0.00  0.00    +0.111 C 
ATOM      8  C   UNL     1       0.783 -11.227   1.405  0.00  0.00    +0.128 C 
ATOM      9  C   UNL     1       0.573 -11.889   2.763  0.00  0.00    -0.035 C 
ATOM     10  C   UNL     1       1.420 -11.307   3.599  0.00  0.00    +0.003 A 
ATOM     11  C   UNL     1       1.744 -11.566   5.010  0.00  0.00    +0.055 A 
ATOM     12  C   UNL     1       2.674 -10.752   5.583  0.00  0.00    +0.121 A 
ATOM     13  C   UNL     1       3.320  -9.705   4.910  0.00  0.00    +0.047 A 
ATOM     14  C   UNL     1       3.102  -9.383   3.610  0.00  0.00    +0.029 A 
ATOM     15  C   UNL     1       2.120 -10.197   2.880  0.00  0.00    +0.043 A 
ATOM     16  N   UNL     1       1.730 -10.134   1.623  0.00  0.00    -0.376 N 
ATOM     17  C   UNL     1      -0.505 -12.923   2.980  0.00  0.00    +0.048 C 
ATOM     18  C   UNL     1      -1.791 -12.338   2.367  0.00  0.00    +0.086 C 
ATOM     19  N   UNL     1      -1.532 -11.865   1.005  0.00  0.00    -0.307 NA
ATOM     20  H   UNL     1      -2.393 -11.642   0.529  0.00  0.00    +0.123 HD
ATOM     21  H   UNL     1       2.010  -9.484   0.960  0.00  0.00    +0.160 HD
BRANCH  12  22
ATOM     22  O   UNL     1       2.994 -10.967   6.886  0.00  0.00    -0.495 OA
ATOM     23  C   UNL     1       3.971 -10.101   7.466  0.00  0.00    +0.277 C 
ENDBRANCH  12  22
ENDBRANCH   3   7
BRANCH   6  24
ATOM     24  O   UNL     1      -0.275  -8.781  -4.322  0.00  0.00    -0.495 OA
ATOM     25  C   UNL     1      -0.281  -9.749  -5.373  0.00  0.00    +0.277 C 
ENDBRANCH   6  24
BRANCH   1  26
ATOM     26  C   UNL     1      -0.265  -6.884  -2.228  0.00  0.00    +0.268 C 
BRANCH  26  27
ATOM     27  O   UNL     1      -0.281  -6.191  -0.979  0.00  0.00    -0.487 OA
BRANCH  27  31
ATOM     28  C   UNL     1      -0.071  -2.070  -1.121  0.00  0.00    +0.034 A 
ATOM     29  C   UNL     1      -0.152  -2.720   0.104  0.00  0.00    +0.027 A 
ATOM     30  C   UNL     1      -0.222  -4.098   0.150  0.00  0.00    +0.047 A 
ATOM     31  C   UNL     1      -0.212  -4.834  -1.026  0.00  0.00    +0.121 A 
ATOM     32  C   UNL     1      -0.130  -4.185  -2.249  0.00  0.00    +0.047 A 
ATOM     33  C   UNL     1      -0.066  -2.807  -2.298  0.00  0.00    +0.027 A 
BRANCH  28  37
ATOM     34  C   UNL     1      -0.617   1.507  -2.165  0.00  0.00    +0.109 C 
ATOM     35  C   UNL     1      -0.604  -0.000  -2.169  0.00  0.00    +0.214 C 
ATOM     36  O   UNL     1      -1.137  -0.609  -3.073  0.00  0.00    -0.276 OA
ATOM     37  N   UNL     1       0.000  -0.672  -1.169  0.00  0.00    -0.286 N 
ATOM     38  H   UNL     1       0.484  -0.187  -0.482  0.00  0.00    +0.155 HD
ENDBRANCH  28  37
ENDBRANCH  27  31
ENDBRANCH  26  27
ENDBRANCH   1  26
TORSDOF 7
