REMARK  Name = ZINC31847498
REMARK  10 active torsions:
REMARK  status: ('A' for Active; 'I' for Inactive)
REMARK    1  A    between atoms: C_1  and  C_2
REMARK    2  A    between atoms: C_2  and  C_4
REMARK    3  A    between atoms: C_2  and  N_22
REMARK    4  A    between atoms: C_4  and  C_5
REMARK    5  A    between atoms: C_5  and  C_6
REMARK    6  A    between atoms: C_6  and  N_7
REMARK    7  A    between atoms: N_7  and  C_8
REMARK    8  A    between atoms: N_22  and  C_23
REMARK    9  A    between atoms: C_25  and  O_33
REMARK   10  A    between atoms: O_33  and  C_34
REMARK                            x       y       z     vdW  Elec       q    Type
REMARK                         _______ _______ _______ _____ _____    ______ ____
ROOT
ATOM      1  C   UNL     1      -5.654   2.574   1.329  0.00  0.00    +0.020 C 
ENDROOT
BRANCH   1   2
ATOM      2  C   UNL     1      -6.414   2.831   2.632  0.00  0.00    +0.023 C 
BRANCH   2   4
ATOM      3  C   UNL     1      -8.507   2.330   3.901  0.00  0.00    +0.028 C 
ATOM      4  C   UNL     1      -7.686   1.981   2.658  0.00  0.00    +0.067 C 
BRANCH   4   5
ATOM      5  N   UNL     1      -7.324   0.562   2.695  0.00  0.00    -0.340 N 
ATOM      6  H   UNL     1      -6.351   0.253   3.103  0.00  0.00    +0.146 HD
BRANCH   5   7
ATOM      7  C   UNL     1      -8.214  -0.396   2.212  0.00  0.00    +0.057 A 
ATOM      8  C   UNL     1      -9.433  -0.013   1.700  0.00  0.00    +0.070 A 
ATOM      9  C   UNL     1     -10.333  -0.962   1.212  0.00  0.00    +0.123 A 
ATOM     10  C   UNL     1     -10.022  -2.303   1.232  0.00  0.00    +0.055 A 
ATOM     11  C   UNL     1      -8.786  -2.723   1.749  0.00  0.00    +0.006 A 
ATOM     12  C   UNL     1      -7.866  -1.765   2.240  0.00  0.00    +0.092 A 
ATOM     13  N   UNL     1      -6.692  -2.165   2.737  0.00  0.00    -0.253 NA
ATOM     14  C   UNL     1      -6.362  -3.433   2.771  0.00  0.00    +0.111 A 
ATOM     15  C   UNL     1      -7.217  -4.426   2.299  0.00  0.00    +0.020 A 
ATOM     16  C   UNL     1      -8.436  -4.087   1.784  0.00  0.00    +0.011 A 
BRANCH   9  17
ATOM     17  O   UNL     1     -11.530  -0.557   0.712  0.00  0.00    -0.495 OA
ATOM     18  C   UNL     1     -12.409  -1.576   0.228  0.00  0.00    +0.277 C 
ENDBRANCH   9  17
ENDBRANCH   5   7
ENDBRANCH   4   5
ENDBRANCH   2   4
ENDBRANCH   1   2
BRANCH   1  19
ATOM     19  C   UNL     1      -4.383   3.424   1.304  0.00  0.00    +0.101 C 
BRANCH  19  20
ATOM     20  N   UNL     1      -3.653   3.176   0.053  0.00  0.00    -0.343 N 
ATOM     21  H   UNL     1      -4.011   2.409  -0.650  0.00  0.00    +0.146 HD
BRANCH  20  22
ATOM     22  C   UNL     1      -2.557   4.005  -0.052  0.00  0.00    +0.046 A 
ATOM     23  C   UNL     1      -1.331   3.670   0.555  0.00  0.00    +0.020 A 
ATOM     24  C   UNL     1      -1.188   2.476   1.283  0.00  0.00    +0.012 A 
ATOM     25  C   UNL     1       0.007   2.180   1.863  0.00  0.00    +0.001 A 
ATOM     26  C   UNL     1       1.097   3.041   1.738  0.00  0.00    +0.002 A 
ATOM     27  C   UNL     1       0.997   4.202   1.038  0.00  0.00    +0.026 A 
ATOM     28  C   UNL     1      -0.224   4.550   0.425  0.00  0.00    +0.049 A 
ATOM     29  N   UNL     1      -0.334   5.684  -0.264  0.00  0.00    -0.354 N 
ATOM     30  C   UNL     1      -1.474   6.042  -0.855  0.00  0.00    +0.049 A 
ATOM     31  C   UNL     1      -2.625   5.215  -0.770  0.00  0.00    +0.020 A 
ATOM     32  C   UNL     1      -3.815   5.614  -1.403  0.00  0.00    +0.012 A 
ATOM     33  C   UNL     1      -3.853   6.787  -2.090  0.00  0.00    +0.001 A 
ATOM     34  C   UNL     1      -2.724   7.603  -2.175  0.00  0.00    +0.002 A 
ATOM     35  C   UNL     1      -1.556   7.250  -1.576  0.00  0.00    +0.026 A 
ATOM     36  H   UNL     1       0.531   6.357  -0.358  0.00  0.00    +0.166 HD
ENDBRANCH  20  22
ENDBRANCH  19  20
ENDBRANCH   1  19
TORSDOF 8
