REMARK  Name = ZINC66930495
REMARK  8 active torsions:
REMARK  status: ('A' for Active; 'I' for Inactive)
REMARK    1  A    between atoms: C_1  and  C_2
REMARK    2  A    between atoms: C_2  and  C_4
REMARK    3  A    between atoms: C_2  and  N_19
REMARK    4  A    between atoms: N_6  and  C_7
REMARK    5  A    between atoms: C_7  and  C_8
REMARK    6  A    between atoms: C_8  and  O_18
REMARK    7  A    between atoms: C_20  and  C_22
REMARK    8  A    between atoms: C_23  and  C_24
REMARK                            x       y       z     vdW  Elec       q    Type
REMARK                         _______ _______ _______ _____ _____    ______ ____
ROOT
ATOM      1  C   UNL     1      -1.351  -0.696  -0.116  0.00  0.00    +0.233 C 
ATOM      2  O   UNL     1      -1.748  -1.290   0.864  0.00  0.00    -0.274 OA
ATOM      3  N   UNL     1      -2.213  -0.360  -1.096  0.00  0.00    -0.311 N 
ATOM      4  H   UNL     1      -1.895   0.116  -1.880  0.00  0.00    +0.149 HD
ENDROOT
BRANCH   1   6
ATOM      5  C   UNL     1       0.246   1.187  -0.348  0.00  0.00    +0.038 C 
ATOM      6  C   UNL     1       0.107  -0.333  -0.238  0.00  0.00    +0.156 C 
BRANCH   6   7
ATOM      7  N   UNL     1       0.828  -0.804   0.947  0.00  0.00    -0.301 N 
ATOM      8  C   UNL     1       2.149  -1.060   0.874  0.00  0.00    +0.237 C 
ATOM      9  O   UNL     1       2.743  -0.900  -0.176  0.00  0.00    -0.271 OA
ATOM     10  H   UNL     1       0.355  -0.932   1.784  0.00  0.00    +0.150 HD
BRANCH   8  11
ATOM     11  C   UNL     1       2.870  -1.532   2.058  0.00  0.00    +0.068 C 
ATOM     12  C   UNL     1       4.192  -1.788   1.984  0.00  0.00    +0.013 C 
BRANCH  12  13
ATOM     13  C   UNL     1       4.917  -2.262   3.175  0.00  0.00    -0.025 A 
ATOM     14  C   UNL     1       4.237  -2.453   4.382  0.00  0.00    +0.008 A 
ATOM     15  C   UNL     1       4.923  -2.898   5.492  0.00  0.00    +0.001 A 
ATOM     16  C   UNL     1       6.280  -3.154   5.415  0.00  0.00    +0.000 A 
ATOM     17  C   UNL     1       6.960  -2.967   4.224  0.00  0.00    +0.001 A 
ATOM     18  C   UNL     1       6.287  -2.529   3.103  0.00  0.00    +0.008 A 
ENDBRANCH  12  13
ENDBRANCH   8  11
ENDBRANCH   6   7
ENDBRANCH   1   6
BRANCH   3  19
ATOM     19  C   UNL     1      -3.630  -0.713  -0.978  0.00  0.00    +0.143 C 
BRANCH  19  20
ATOM     20  C   UNL     1      -4.406  -0.107  -2.149  0.00  0.00    +0.107 C 
ATOM     21  C   UNL     1      -4.190   1.405  -2.168  0.00  0.00    +0.041 C 
ATOM     22  C   UNL     1      -5.141   2.016  -3.204  0.00  0.00    +0.008 C 
ATOM     23  C   UNL     1      -6.569   1.903  -2.673  0.00  0.00    +0.035 C 
ATOM     24  C   UNL     1      -6.862   0.490  -2.241  0.00  0.00    -0.041 A 
ATOM     25  C   UNL     1      -5.869  -0.432  -1.996  0.00  0.00    -0.011 A 
ATOM     26  C   UNL     1      -6.208  -1.717  -1.594  0.00  0.00    +0.007 A 
ATOM     27  C   UNL     1      -7.531  -2.078  -1.440  0.00  0.00    +0.000 A 
ATOM     28  C   UNL     1      -8.528  -1.153  -1.689  0.00  0.00    +0.000 A 
ATOM     29  C   UNL     1      -8.193   0.125  -2.087  0.00  0.00    +0.004 A 
BRANCH  20  30
ATOM     30  O   UNL     1      -3.925  -0.666  -3.373  0.00  0.00    -0.382 OA
ATOM     31  H   UNL     1      -4.020  -1.627  -3.431  0.00  0.00    +0.211 HD
ENDBRANCH  20  30
ENDBRANCH  19  20
ENDBRANCH   3  19
TORSDOF 7
