REMARK  Name = ZINC06408964
REMARK  12 active torsions:
REMARK  status: ('A' for Active; 'I' for Inactive)
REMARK    1  A    between atoms: C_1  and  C_2
REMARK    2  A    between atoms: C_9  and  C_14
REMARK    3  A    between atoms: C_14  and  C_16
REMARK    4  A    between atoms: C_14  and  N_69
REMARK    5  A    between atoms: N_20  and  C_21
REMARK    6  A    between atoms: C_21  and  C_22
REMARK    7  A    between atoms: C_21  and  C_23
REMARK    8  A    between atoms: C_21  and  C_24
REMARK    9  A    between atoms: C_25  and  C_26
REMARK   10  A    between atoms: C_25  and  N_69
REMARK   11  A    between atoms: C_32  and  C_33
REMARK   12  A    between atoms: C_32  and  N_69
REMARK                            x       y       z     vdW  Elec       q    Type
REMARK                         _______ _______ _______ _____ _____    ______ ____
ROOT
ATOM      1  C   UNL     1       0.928  -3.427  -2.244  0.00  0.00    +0.040 C 
ENDROOT
BRANCH   1  10
ATOM      2  C   UNL     1       3.710  -3.857  -9.150  0.00  0.00    +0.044 C 
ATOM      3  C   UNL     1       2.597  -3.493  -8.202  0.00  0.00    -0.050 A 
ATOM      4  C   UNL     1       1.420  -2.949  -8.699  0.00  0.00    +0.005 A 
ATOM      5  C   UNL     1       0.389  -2.608  -7.851  0.00  0.00    +0.026 A 
ATOM      6  C   UNL     1       0.526  -2.810  -6.481  0.00  0.00    +0.049 A 
ATOM      7  C   UNL     1       1.721  -3.362  -5.981  0.00  0.00    -0.001 A 
ATOM      8  C   UNL     1       2.754  -3.700  -6.861  0.00  0.00    +0.013 A 
ATOM      9  C   UNL     1       1.856  -3.571  -4.538  0.00  0.00    +0.017 A 
ATOM     10  C   UNL     1       0.821  -3.225  -3.733  0.00  0.00    +0.011 A 
ATOM     11  C   UNL     1      -0.358  -2.681  -4.287  0.00  0.00    +0.251 A 
ATOM     12  O   UNL     1      -1.278  -2.381  -3.546  0.00  0.00    -0.268 OA
ATOM     13  N   UNL     1      -0.489  -2.480  -5.609  0.00  0.00    -0.322 N 
ATOM     14  H   UNL     1      -1.312  -2.100  -5.956  0.00  0.00    +0.169 HD
ENDBRANCH   1  10
BRANCH   1  15
ATOM     15  C   UNL     1      -0.133  -4.397  -1.792  0.00  0.00    +0.143 A 
ATOM     16  N   UNL     1      -1.409  -4.141  -1.629  0.00  0.00    -0.115 NA
ATOM     17  N   UNL     1      -1.985  -5.225  -1.236  0.00  0.00    -0.023 NA
ATOM     18  N   UNL     1      -1.109  -6.163  -1.137  0.00  0.00    -0.043 NA
ATOM     19  N   UNL     1       0.045  -5.692  -1.471  0.00  0.00    -0.225 N 
BRANCH  19  20
ATOM     20  C   UNL     1       1.312  -6.428  -1.497  0.00  0.00    +0.059 C 
ATOM     21  C   UNL     1       2.268  -5.833  -0.462  0.00  0.00    +0.036 C 
ATOM     22  C   UNL     1       1.053  -7.899  -1.166  0.00  0.00    +0.036 C 
ATOM     23  C   UNL     1       1.936  -6.320  -2.889  0.00  0.00    +0.036 C 
ENDBRANCH  19  20
ENDBRANCH   1  15
BRANCH   1  24
ATOM     24  N   UNL     1       0.712  -2.133  -1.563  0.00  0.00    +0.395 N 
ATOM     25  H   UNL     1      -0.274  -1.865  -1.662  0.00  0.00    -0.079 HD
BRANCH  24  26
ATOM     26  C   UNL     1       1.033  -2.259  -0.126  0.00  0.00    -0.041 C 
BRANCH  26  27
ATOM     27  C   UNL     1      -0.101  -2.974   0.562  0.00  0.00    -0.064 A 
ATOM     28  C   UNL     1      -1.385  -2.466   0.488  0.00  0.00    +0.002 A 
ATOM     29  C   UNL     1      -2.426  -3.125   1.114  0.00  0.00    +0.000 A 
ATOM     30  C   UNL     1      -2.182  -4.285   1.825  0.00  0.00    +0.000 A 
ATOM     31  C   UNL     1      -0.897  -4.790   1.904  0.00  0.00    +0.000 A 
ATOM     32  C   UNL     1       0.143  -4.134   1.273  0.00  0.00    +0.002 A 
ENDBRANCH  26  27
ENDBRANCH  24  26
BRANCH  24  33
ATOM     33  C   UNL     1       1.557  -1.090  -2.180  0.00  0.00    -0.041 C 
BRANCH  33  34
ATOM     34  C   UNL     1       1.160   0.252  -1.621  0.00  0.00    -0.064 A 
ATOM     35  C   UNL     1       1.792   0.746  -0.496  0.00  0.00    +0.004 A 
ATOM     36  C   UNL     1       1.429   1.976   0.018  0.00  0.00    +0.038 A 
ATOM     37  C   UNL     1       0.431   2.715  -0.596  0.00  0.00    +0.123 A 
ATOM     38  C   UNL     1      -0.202   2.219  -1.723  0.00  0.00    +0.038 A 
ATOM     39  C   UNL     1       0.163   0.988  -2.235  0.00  0.00    +0.004 A 
ATOM     40  F   UNL     1       0.075   3.918  -0.095  0.00  0.00    -0.205 F 
ENDBRANCH  33  34
ENDBRANCH  24  33
ENDBRANCH   1  24
TORSDOF 8
