REMARK  Name = ZINC43741012
REMARK  7 active torsions:
REMARK  status: ('A' for Active; 'I' for Inactive)
REMARK    1  A    between atoms: C_1  and  C_2
REMARK    2  A    between atoms: C_16  and  C_35
REMARK    3  A    between atoms: C_21  and  C_22
REMARK    4  A    between atoms: C_21  and  O_34
REMARK    5  A    between atoms: C_22  and  N_23
REMARK    6  A    between atoms: C_24  and  C_25
REMARK    7  A    between atoms: C_30  and  O_31
REMARK                            x       y       z     vdW  Elec       q    Type
REMARK                         _______ _______ _______ _____ _____    ______ ____
ROOT
ATOM      1  C   UNL     1      -0.021   1.531  -0.001  0.00  0.00    +0.016 C 
ATOM      2  C   UNL     1      -0.003   0.001  -0.024  0.00  0.00    -0.008 C 
ATOM      3  C   UNL     1       0.750  -0.448  -1.279  0.00  0.00    +0.016 C 
ATOM      4  C   UNL     1       2.201   0.033  -1.199  0.00  0.00    +0.066 C 
ATOM      5  C   UNL     1       2.893  -0.618  -0.000  0.00  0.00    +0.174 C 
ATOM      6  C   UNL     1       2.214  -0.172   1.297  0.00  0.00    +0.096 C 
ATOM      7  C   UNL     1       0.729  -0.476   1.195  0.00  0.00    -0.062 C 
ATOM      8  C   UNL     1       0.167  -1.133   2.167  0.00  0.00    -0.027 C 
ATOM      9  C   UNL     1      -1.289  -1.496   2.175  0.00  0.00    +0.031 C 
ATOM     10  C   UNL     1      -2.065  -0.488   1.319  0.00  0.00    +0.000 C 
ATOM     11  C   UNL     1      -1.440  -0.490  -0.093  0.00  0.00    +0.003 C 
ATOM     12  C   UNL     1      -2.233   0.374  -1.069  0.00  0.00    +0.005 C 
ATOM     13  C   UNL     1      -3.715  -0.033  -1.114  0.00  0.00    +0.010 C 
ATOM     14  C   UNL     1      -4.252   0.085   0.299  0.00  0.00    +0.001 C 
ATOM     15  C   UNL     1      -3.512  -0.932   1.201  0.00  0.00    +0.001 C 
ATOM     16  C   UNL     1      -4.324  -0.911   2.501  0.00  0.00    +0.007 C 
ATOM     17  C   UNL     1      -5.789  -0.822   1.995  0.00  0.00    +0.037 C 
ATOM     18  C   UNL     1      -5.721  -0.274   0.499  0.00  0.00    +0.089 C 
ATOM     19  C   UNL     1      -3.983   1.490   0.842  0.00  0.00    +0.014 C 
ATOM     20  O   UNL     1       4.275  -0.224   0.024  0.00  0.00    -0.346 OA
ATOM     21  C   UNL     1       4.985  -1.394   0.496  0.00  0.00    +0.191 C 
ATOM     22  C   UNL     1       4.173  -2.541  -0.156  0.00  0.00    +0.191 C 
ATOM     23  O   UNL     1       2.819  -2.044  -0.117  0.00  0.00    -0.346 OA
ENDROOT
BRANCH  18  24
ATOM     24  O   UNL     1      -6.139  -1.218  -0.489  0.00  0.00    -0.386 OA
ATOM     25  H   UNL     1      -7.066  -1.484  -0.412  0.00  0.00    +0.210 HD
ENDBRANCH  18  24
BRANCH  18  26
ATOM     26  C   UNL     1      -6.588   0.984   0.432  0.00  0.00    +0.147 C 
BRANCH  26  27
ATOM     27  N   UNL     1      -7.977   0.638   0.744  0.00  0.00    -0.387 N 
ATOM     28  C   UNL     1      -8.539   1.112   1.809  0.00  0.00    +0.090 C 
ATOM     29  H   UNL     1      -8.476   0.052   0.152  0.00  0.00    +0.159 HD
BRANCH  28  30
ATOM     30  C   UNL     1      -9.967   0.854   2.066  0.00  0.00    +0.035 A 
ATOM     31  C   UNL     1     -10.606   1.459   3.151  0.00  0.00    +0.033 A 
ATOM     32  C   UNL     1     -11.943   1.214   3.387  0.00  0.00    +0.043 A 
ATOM     33  C   UNL     1     -12.656   0.370   2.550  0.00  0.00    +0.043 A 
ATOM     34  C   UNL     1     -12.036  -0.235   1.474  0.00  0.00    +0.084 A 
ATOM     35  C   UNL     1     -10.693   0.006   1.220  0.00  0.00    +0.144 A 
ATOM     36 CL   UNL     1     -12.939  -1.291   0.434  0.00  0.00    -0.080 Cl
ATOM     37 CL   UNL     1     -12.735   1.966   4.736  0.00  0.00    -0.083 Cl
BRANCH  35  38
ATOM     38  O   UNL     1     -10.084  -0.583   0.159  0.00  0.00    -0.505 OA
ATOM     39  H   UNL     1      -9.692  -1.444   0.359  0.00  0.00    +0.292 HD
ENDBRANCH  35  38
ENDBRANCH  28  30
ENDBRANCH  26  27
ENDBRANCH  18  26
TORSDOF 5
