REMARK  Name = ZINC35661875
REMARK  11 active torsions:
REMARK  status: ('A' for Active; 'I' for Inactive)
REMARK    1  A    between atoms: C_1  and  C_2
REMARK    2  A    between atoms: C_2  and  C_3
REMARK    3  A    between atoms: C_3  and  C_4
REMARK    4  A    between atoms: C_4  and  C_6
REMARK    5  A    between atoms: C_4  and  N_7
REMARK    6  A    between atoms: C_8  and  C_10
REMARK    7  A    between atoms: C_10  and  C_12
REMARK    8  A    between atoms: C_10  and  O_13
REMARK    9  A    between atoms: O_13  and  C_14
REMARK   10  A    between atoms: C_15  and  C_22
REMARK   11  A    between atoms: C_22  and  N_23
REMARK                            x       y       z     vdW  Elec       q    Type
REMARK                         _______ _______ _______ _____ _____    ______ ____
ROOT
ATOM      1  C   UNL     1      -3.294  -6.479   1.291  0.00  0.00    +0.141 A 
ATOM      2  C   UNL     1      -2.824  -7.155   2.407  0.00  0.00    -0.020 A 
ATOM      3  C   UNL     1      -3.635  -8.066   3.055  0.00  0.00    +0.025 A 
ATOM      4  C   UNL     1      -4.917  -8.304   2.592  0.00  0.00    +0.043 A 
ATOM      5  C   UNL     1      -5.389  -7.632   1.479  0.00  0.00    +0.043 A 
ATOM      6  C   UNL     1      -4.582  -6.715   0.831  0.00  0.00    +0.084 A 
ATOM      7 CL   UNL     1      -5.177  -5.866  -0.562  0.00  0.00    -0.080 Cl
ATOM      8 CL   UNL     1      -5.935  -9.449   3.409  0.00  0.00    -0.083 Cl
ENDROOT
BRANCH   1   9
ATOM      9  O   UNL     1      -2.497  -5.583   0.651  0.00  0.00    -0.478 OA
BRANCH   9  10
ATOM     10  C   UNL     1      -2.526  -4.235   1.125  0.00  0.00    +0.256 C 
ATOM     11  C   UNL     1      -3.447  -3.401   0.232  0.00  0.00    +0.062 C 
BRANCH  10  13
ATOM     12  N   UNL     1      -0.900  -2.429   1.585  0.00  0.00    -0.310 N 
ATOM     13  C   UNL     1      -1.134  -3.659   1.088  0.00  0.00    +0.254 C 
ATOM     14  O   UNL     1      -0.224  -4.304   0.611  0.00  0.00    -0.272 OA
ATOM     15  H   UNL     1      -1.628  -1.914   1.967  0.00  0.00    +0.149 HD
BRANCH  12  16
ATOM     16  C   UNL     1       0.453  -1.869   1.549  0.00  0.00    +0.070 C 
ATOM     17  C   UNL     1       1.237  -2.352   2.771  0.00  0.00    +0.028 C 
BRANCH  16  18
ATOM     18  C   UNL     1       0.374  -0.341   1.565  0.00  0.00    +0.022 C 
BRANCH  18  20
ATOM     19  C   UNL     1      -0.379   1.675   0.297  0.00  0.00    +0.004 C 
ATOM     20  C   UNL     1      -0.300   0.148   0.282  0.00  0.00    -0.002 C 
ENDBRANCH  18  20
ENDBRANCH  16  18
ENDBRANCH  12  16
ENDBRANCH  10  13
ENDBRANCH   9  10
ENDBRANCH   1   9
BRANCH   2  21
ATOM     21  C   UNL     1      -1.427  -6.896   2.911  0.00  0.00    -0.047 C 
BRANCH  21  22
ATOM     22  N   UNL     1      -1.425  -5.689   3.749  0.00  0.00    +0.381 N 
ATOM     23  H   UNL     1      -2.128  -5.778   4.468  0.00  0.00    -0.090 HD
ATOM     24  H   UNL     1      -0.518  -5.579   4.177  0.00  0.00    -0.090 HD
ATOM     25  H   UNL     1      -1.629  -4.883   3.178  0.00  0.00    -0.090 HD
ENDBRANCH  21  22
ENDBRANCH   2  21
TORSDOF 8
