REMARK  Name = ZINC34759480
REMARK  7 active torsions:
REMARK  status: ('A' for Active; 'I' for Inactive)
REMARK    1  A    between atoms: C_1  and  C_2
REMARK    2  A    between atoms: C_3  and  C_23
REMARK    3  A    between atoms: C_7  and  N_16
REMARK    4  A    between atoms: C_9  and  S_11
REMARK    5  A    between atoms: S_11  and  C_12
REMARK    6  A    between atoms: C_12  and  C_13
REMARK    7  A    between atoms: N_19  and  C_22
REMARK                            x       y       z     vdW  Elec       q    Type
REMARK                         _______ _______ _______ _____ _____    ______ ____
ROOT
ATOM      1  C   UNL     1       0.022   1.503   0.007  0.00  0.00    +0.045 C 
ATOM      2  C   UNL     1       0.039  -0.004  -0.001  0.00  0.00    -0.028 A 
ATOM      3  C   UNL     1      -0.044  -0.676  -1.158  0.00  0.00    -0.008 A 
ATOM      4  S   UNL     1       0.016  -2.385  -0.651  0.00  0.00    -0.073 S 
ATOM      5  C   UNL     1       0.150  -2.149   1.101  0.00  0.00    +0.115 A 
ATOM      6  C   UNL     1       0.151  -0.744   1.244  0.00  0.00    +0.051 A 
ATOM      7  C   UNL     1       0.255  -0.264   2.579  0.00  0.00    +0.134 A 
ATOM      8  N   UNL     1       0.347  -1.131   3.574  0.00  0.00    -0.206 NA
ATOM      9  C   UNL     1       0.346  -2.443   3.368  0.00  0.00    +0.191 A 
ATOM     10  N   UNL     1       0.241  -2.948   2.146  0.00  0.00    -0.214 NA
ATOM     11  C   UNL     1      -0.160  -0.121  -2.554  0.00  0.00    +0.052 C 
ENDROOT
BRANCH   7  12
ATOM     12  N   UNL     1       0.261   1.095   2.835  0.00  0.00    -0.318 N 
ATOM     13  C   UNL     1      -0.976   1.799   3.209  0.00  0.00    +0.088 C 
ATOM     14  C   UNL     1      -0.702   2.623   4.472  0.00  0.00    -0.060 C 
ATOM     15  N   UNL     1       0.451   3.502   4.242  0.00  0.00    +0.380 N 
ATOM     16  C   UNL     1       1.659   2.697   4.026  0.00  0.00    -0.060 C 
ATOM     17  C   UNL     1       1.504   1.876   2.747  0.00  0.00    +0.088 C 
ATOM     18  C   UNL     1       0.644   4.369   5.412  0.00  0.00    -0.096 C 
ATOM     19  H   UNL     1       0.279   4.074   3.428  0.00  0.00    -0.082 HD
ENDBRANCH   7  12
BRANCH   9  20
ATOM     20  S   UNL     1       0.472  -3.534   4.746  0.00  0.00    -0.077 S 
BRANCH  20  21
ATOM     21  C   UNL     1       0.430  -5.188   4.002  0.00  0.00    +0.172 C 
BRANCH  21  22
ATOM     22  C   UNL     1       0.532  -6.229   5.086  0.00  0.00    +0.221 C 
ATOM     23  O   UNL     1       0.624  -5.889   6.247  0.00  0.00    -0.275 OA
ATOM     24  N   UNL     1       0.521  -7.538   4.766  0.00  0.00    -0.329 N 
ATOM     25  H   UNL     1       0.448  -7.810   3.838  0.00  0.00    +0.145 HD
ATOM     26  H   UNL     1       0.587  -8.209   5.464  0.00  0.00    +0.145 HD
ENDBRANCH  21  22
ENDBRANCH  20  21
ENDBRANCH   9  20
TORSDOF 4
