REMARK  Name = ZINC39929651
REMARK  7 active torsions:
REMARK  status: ('A' for Active; 'I' for Inactive)
REMARK    1  A    between atoms: C_1  and  C_2
REMARK    2  A    between atoms: P_7  and  S_19
REMARK    3  A    between atoms: C_10  and  S_11
REMARK    4  A    between atoms: S_11  and  C_12
REMARK    5  A    between atoms: C_12  and  C_13
REMARK    6  A    between atoms: S_19  and  C_20
REMARK    7  A    between atoms: C_20  and  C_21
REMARK                            x       y       z     vdW  Elec       q    Type
REMARK                         _______ _______ _______ _____ _____    ______ ____
ROOT
ATOM      1  C   UNL     1      -1.642   1.941  -0.282  0.00  0.00    +0.068 C 
ATOM      2  C   UNL     1      -1.329   0.476  -0.115  0.00  0.00    +0.069 C 
ATOM      3  C   UNL     1      -2.222  -0.512  -0.196  0.00  0.00    +0.048 C 
ATOM      4  C   UNL     1      -1.371  -1.780  -0.187  0.00  0.00    +0.236 C 
ATOM      5  N   UNL     1      -1.963  -2.609   0.878  0.00  0.00    -0.239 NA
ATOM      6  P   UNL     1      -3.582  -2.901   0.736  0.00  0.00    +0.158 P 
ATOM      7  S   UNL     1      -4.278  -3.354   2.405  0.00  0.00    -0.015 S 
ATOM      8  N   UNL     1      -4.340  -1.561   0.175  0.00  0.00    -0.223 NA
ATOM      9  C   UNL     1      -3.683  -0.517  -0.247  0.00  0.00    +0.107 C 
ATOM     10  N   UNL     1      -0.043  -1.268   0.147  0.00  0.00    -0.163 NA
ATOM     11  N   UNL     1      -0.098  -0.031   0.133  0.00  0.00    -0.157 NA
ATOM     12  H   UNL     1      -1.436  -2.961   1.612  0.00  0.00    +0.132 HD
ENDROOT
BRANCH   9  13
ATOM     13  S   UNL     1      -4.555   0.869  -0.899  0.00  0.00    -0.101 S 
BRANCH  13  14
ATOM     14  C   UNL     1      -6.301   0.429  -0.683  0.00  0.00    +0.111 C 
BRANCH  14  15
ATOM     15  C   UNL     1      -7.168   1.489  -1.314  0.00  0.00    -0.037 A 
ATOM     16  C   UNL     1      -7.663   2.525  -0.545  0.00  0.00    +0.004 A 
ATOM     17  C   UNL     1      -8.457   3.497  -1.123  0.00  0.00    +0.000 A 
ATOM     18  C   UNL     1      -8.756   3.433  -2.472  0.00  0.00    +0.000 A 
ATOM     19  C   UNL     1      -8.260   2.398  -3.241  0.00  0.00    +0.000 A 
ATOM     20  C   UNL     1      -7.462   1.428  -2.663  0.00  0.00    +0.004 A 
ENDBRANCH  14  15
ENDBRANCH  13  14
ENDBRANCH   9  13
BRANCH   6  21
ATOM     21  S   UNL     1      -3.894  -4.504  -0.616  0.00  0.00    -0.086 S 
BRANCH  21  22
ATOM     22  C   UNL     1      -2.866  -5.844   0.047  0.00  0.00    +0.112 C 
BRANCH  22  23
ATOM     23  C   UNL     1      -3.535  -6.436   1.260  0.00  0.00    -0.037 A 
ATOM     24  C   UNL     1      -3.126  -6.063   2.527  0.00  0.00    +0.004 A 
ATOM     25  C   UNL     1      -3.740  -6.606   3.640  0.00  0.00    +0.000 A 
ATOM     26  C   UNL     1      -4.763  -7.523   3.487  0.00  0.00    +0.000 A 
ATOM     27  C   UNL     1      -5.173  -7.896   2.220  0.00  0.00    +0.000 A 
ATOM     28  C   UNL     1      -4.562  -7.349   1.107  0.00  0.00    +0.004 A 
ENDBRANCH  22  23
ENDBRANCH  21  22
ENDBRANCH   6  21
TORSDOF 6
