REMARK  Name = ZINC08924171
REMARK  11 active torsions:
REMARK  status: ('A' for Active; 'I' for Inactive)
REMARK    1  A    between atoms: C_1  and  C_2
REMARK    2  A    between atoms: C_2  and  C_3
REMARK    3  A    between atoms: C_3  and  C_5
REMARK    4  A    between atoms: C_3  and  N_69
REMARK    5  A    between atoms: C_8  and  S_17
REMARK    6  A    between atoms: N_9  and  C_10
REMARK    7  A    between atoms: C_10  and  C_11
REMARK    8  A    between atoms: S_17  and  C_18
REMARK    9  A    between atoms: C_18  and  C_19
REMARK   10  A    between atoms: C_34  and  N_69
REMARK   11  A    between atoms: C_35  and  N_69
REMARK                            x       y       z     vdW  Elec       q    Type
REMARK                         _______ _______ _______ _____ _____    ______ ____
ROOT
ATOM      1  C   UNL     1       5.929   3.373   3.567  0.00  0.00    +0.121 A 
ATOM      2  N   UNL     1       5.591   2.782   2.456  0.00  0.00    -0.135 NA
ATOM      3  N   UNL     1       4.315   2.639   2.402  0.00  0.00    -0.123 NA
ATOM      4  C   UNL     1       3.764   3.143   3.481  0.00  0.00    +0.192 A 
ATOM      5  N   UNL     1       4.777   3.625   4.260  0.00  0.00    -0.303 N 
ENDROOT
BRANCH   1   6
ATOM      6  C   UNL     1       7.329   3.716   4.006  0.00  0.00    +0.000 C 
BRANCH   6   9
ATOM      7  C   UNL     1       7.765   1.389   4.517  0.00  0.00    -0.096 C 
ATOM      8  C   UNL     1       8.307   2.271   2.328  0.00  0.00    -0.096 C 
ATOM      9  N   UNL     1       8.239   2.575   3.773  0.00  0.00    +0.383 N 
ATOM     10  H   UNL     1       9.178   2.824   4.106  0.00  0.00    -0.082 HD
ENDBRANCH   6   9
BRANCH   6  12
ATOM     11  C   UNL     1       9.225   5.315   3.707  0.00  0.00    +0.002 C 
ATOM     12  C   UNL     1       7.831   4.923   3.213  0.00  0.00    -0.011 C 
ENDBRANCH   6  12
ENDBRANCH   1   6
BRANCH   5  13
ATOM     13  C   UNL     1       4.656   4.275   5.567  0.00  0.00    +0.160 C 
BRANCH  13  14
ATOM     14  C   UNL     1       4.723   3.235   6.654  0.00  0.00    -0.028 A 
ATOM     15  C   UNL     1       3.564   2.635   7.110  0.00  0.00    +0.005 A 
ATOM     16  C   UNL     1       3.627   1.676   8.104  0.00  0.00    +0.000 A 
ATOM     17  C   UNL     1       4.848   1.326   8.650  0.00  0.00    +0.000 A 
ATOM     18  C   UNL     1       6.006   1.930   8.199  0.00  0.00    +0.000 A 
ATOM     19  C   UNL     1       5.944   2.884   7.201  0.00  0.00    +0.005 A 
ENDBRANCH  13  14
ENDBRANCH   5  13
BRANCH   4  20
ATOM     20  S   UNL     1       2.043   3.185   3.857  0.00  0.00    -0.077 S 
BRANCH  20  21
ATOM     21  C   UNL     1       1.379   2.380   2.379  0.00  0.00    +0.173 C 
BRANCH  21  22
ATOM     22  C   UNL     1      -0.123   2.302   2.481  0.00  0.00    +0.227 C 
ATOM     23  O   UNL     1      -0.688   2.747   3.458  0.00  0.00    -0.275 OA
ATOM     24  N   UNL     1      -0.838   1.738   1.487  0.00  0.00    -0.278 N 
ATOM     25  C   UNL     1      -0.384   1.798   0.088  0.00  0.00    +0.204 C 
ATOM     26  C   UNL     1      -1.535   2.265  -0.766  0.00  0.00    +0.237 C 
ATOM     27  O   UNL     1      -1.306   2.806  -1.827  0.00  0.00    -0.274 OA
ATOM     28  N   UNL     1      -2.807   2.095  -0.377  0.00  0.00    -0.253 N 
ATOM     29  C   UNL     1      -3.149   1.549   0.799  0.00  0.00    +0.243 C 
ATOM     30  O   UNL     1      -4.321   1.465   1.098  0.00  0.00    -0.273 OA
ATOM     31  C   UNL     1      -2.104   1.038   1.756  0.00  0.00    +0.114 C 
ATOM     32  C   UNL     1      -1.906  -0.464   1.553  0.00  0.00    +0.035 C 
ATOM     33  C   UNL     1      -0.832  -0.972   2.517  0.00  0.00    +0.003 C 
ATOM     34  C   UNL     1      -1.272  -0.702   3.958  0.00  0.00    +0.000 C 
ATOM     35  C   UNL     1      -1.466   0.802   4.159  0.00  0.00    +0.003 C 
ATOM     36  C   UNL     1      -2.540   1.311   3.195  0.00  0.00    +0.035 C 
ATOM     37  H   UNL     1      -3.514   2.381  -0.976  0.00  0.00    +0.158 HD
ENDBRANCH  21  22
ENDBRANCH  20  21
ENDBRANCH   4  20
TORSDOF 8
