REMARK  Name = ZINC64794652
REMARK  10 active torsions:
REMARK  status: ('A' for Active; 'I' for Inactive)
REMARK    1  A    between atoms: C_1  and  C_2
REMARK    2  A    between atoms: C_6  and  N_9
REMARK    3  A    between atoms: C_7  and  C_8
REMARK    4  A    between atoms: C_10  and  C_12
REMARK    5  A    between atoms: C_12  and  S_13
REMARK    6  A    between atoms: S_13  and  C_14
REMARK    7  A    between atoms: C_17  and  C_22
REMARK    8  A    between atoms: N_18  and  C_19
REMARK    9  A    between atoms: C_19  and  C_20
REMARK   10  A    between atoms: C_23  and  N_31
REMARK                            x       y       z     vdW  Elec       q    Type
REMARK                         _______ _______ _______ _____ _____    ______ ____
ROOT
ATOM      1  C   UNL     1      -0.334  -7.412   4.943  0.00  0.00    +0.193 A 
ATOM      2  N   UNL     1      -0.344  -6.778   6.092  0.00  0.00    -0.122 NA
ATOM      3  N   UNL     1      -0.432  -7.617   7.061  0.00  0.00    -0.128 NA
ATOM      4  C   UNL     1      -0.483  -8.844   6.589  0.00  0.00    +0.174 A 
ATOM      5  N   UNL     1      -0.427  -8.750   5.216  0.00  0.00    -0.298 N 
ENDROOT
BRANCH   4   6
ATOM      6  C   UNL     1      -0.585 -10.080   7.377  0.00  0.00    +0.080 A 
ATOM      7  C   UNL     1      -0.653 -10.214   8.730  0.00  0.00    +0.052 A 
ATOM      8  C   UNL     1      -0.751 -11.550   9.296  0.00  0.00    +0.029 A 
ATOM      9  C   UNL     1      -0.833 -11.934  10.658  0.00  0.00    +0.014 A 
ATOM     10  C   UNL     1      -0.918 -13.271  10.970  0.00  0.00    +0.020 A 
ATOM     11  C   UNL     1      -0.924 -14.226   9.965  0.00  0.00    +0.112 A 
ATOM     12  N   UNL     1      -0.848 -13.866   8.698  0.00  0.00    -0.248 NA
ATOM     13  C   UNL     1      -0.765 -12.601   8.350  0.00  0.00    +0.111 A 
ATOM     14  S   UNL     1      -0.657 -11.761   6.789  0.00  0.00    -0.064 S 
BRANCH   7  15
ATOM     15  N   UNL     1      -0.629  -9.087   9.562  0.00  0.00    -0.356 N 
ATOM     16  H   UNL     1      -0.564  -8.200   9.174  0.00  0.00    +0.142 HD
ATOM     17  H   UNL     1      -0.678  -9.193  10.524  0.00  0.00    +0.142 HD
ENDBRANCH   7  15
ENDBRANCH   4   6
BRANCH   1  18
ATOM     18  S   UNL     1      -0.226  -6.677   3.345  0.00  0.00    -0.077 S 
BRANCH  18  19
ATOM     19  C   UNL     1      -0.129  -4.898   3.686  0.00  0.00    +0.173 C 
BRANCH  19  21
ATOM     20  N   UNL     1       0.052  -2.797   2.393  0.00  0.00    -0.285 N 
ATOM     21  C   UNL     1      -0.031  -4.143   2.385  0.00  0.00    +0.227 C 
ATOM     22  O   UNL     1      -0.028  -4.745   1.333  0.00  0.00    -0.275 OA
ATOM     23  H   UNL     1       0.130  -2.321   3.234  0.00  0.00    +0.155 HD
BRANCH  20  29
ATOM     24  C   UNL     1       1.206   1.236  -0.172  0.00  0.00    +0.044 C 
ATOM     25  C   UNL     1       0.577  -0.131  -0.084  0.00  0.00    -0.046 A 
ATOM     26  C   UNL     1      -0.027  -0.686  -1.198  0.00  0.00    +0.004 A 
ATOM     27  C   UNL     1      -0.605  -1.940  -1.122  0.00  0.00    +0.002 A 
ATOM     28  C   UNL     1      -0.580  -2.642   0.067  0.00  0.00    +0.023 A 
ATOM     29  C   UNL     1       0.026  -2.088   1.187  0.00  0.00    +0.037 A 
ATOM     30  C   UNL     1       0.610  -0.831   1.106  0.00  0.00    -0.026 A 
ATOM     31  C   UNL     1       1.274  -0.228   2.317  0.00  0.00    +0.046 C 
ENDBRANCH  20  29
ENDBRANCH  19  21
ENDBRANCH  18  19
ENDBRANCH   1  18
BRANCH   5  32
ATOM     32  C   UNL     1      -0.460  -9.851   4.250  0.00  0.00    +0.152 C 
BRANCH  32  33
ATOM     33  C   UNL     1       0.947 -10.317   3.973  0.00  0.00    -0.013 C 
ATOM     34  C   UNL     1       1.263 -11.578   4.138  0.00  0.00    +0.005 C 
ENDBRANCH  32  33
ENDBRANCH   5  32
TORSDOF 8
