REMARK  Name = ZINC35527082
REMARK  2 active torsions:
REMARK  status: ('A' for Active; 'I' for Inactive)
REMARK    1  A    between atoms: C_6  and  C_7
REMARK    2  A    between atoms: N_12  and  C_17
REMARK                            x       y       z     vdW  Elec       q    Type
REMARK                         _______ _______ _______ _____ _____    ______ ____
ROOT
ATOM      1  C   UNL     1      -1.255  -1.036   0.873  0.00  0.00    +0.090 A 
ATOM      2  C   UNL     1      -1.390  -2.155   0.097  0.00  0.00    +0.121 A 
ATOM      3  N   UNL     1      -2.714  -2.395  -0.027  0.00  0.00    -0.300 N 
ATOM      4  C   UNL     1      -3.439  -3.373  -0.685  0.00  0.00    +0.111 A 
ATOM      5  C   UNL     1      -4.766  -3.387  -0.649  0.00  0.00    +0.113 A 
ATOM      6  N   UNL     1      -5.485  -2.430   0.043  0.00  0.00    -0.280 N 
ATOM      7  C   UNL     1      -4.843  -1.446   0.708  0.00  0.00    +0.299 A 
ATOM      8  O   UNL     1      -5.468  -0.599   1.320  0.00  0.00    -0.263 OA
ATOM      9  C   UNL     1      -3.373  -1.419   0.677  0.00  0.00    +0.204 A 
ATOM     10  N   UNL     1      -2.479  -0.616   1.214  0.00  0.00    -0.223 NA
ENDROOT
BRANCH   6  11
ATOM     11  C   UNL     1      -6.883  -2.482   0.053  0.00  0.00    +0.050 A 
ATOM     12  C   UNL     1      -7.612  -1.822  -0.928  0.00  0.00    +0.026 A 
ATOM     13  C   UNL     1      -8.991  -1.877  -0.913  0.00  0.00    +0.006 A 
ATOM     14  C   UNL     1      -9.652  -2.586   0.077  0.00  0.00    -0.044 A 
ATOM     15  C   UNL     1      -8.929  -3.243   1.056  0.00  0.00    -0.042 A 
ATOM     16  C   UNL     1      -7.546  -3.196   1.041  0.00  0.00    +0.030 A 
ATOM     17  C   UNL     1      -9.875  -3.938   2.012  0.00  0.00    +0.036 C 
ATOM     18  C   UNL     1     -11.249  -3.277   1.771  0.00  0.00    +0.009 C 
ATOM     19  C   UNL     1     -11.133  -2.794   0.309  0.00  0.00    +0.036 C 
ENDBRANCH   6  11
BRANCH   1  25
ATOM     20  C   UNL     1       0.023   0.736   2.075  0.00  0.00    +0.011 A 
ATOM     21  C   UNL     1       1.217   1.321   2.444  0.00  0.00    +0.016 A 
ATOM     22  C   UNL     1       2.417   0.777   2.018  0.00  0.00    +0.018 A 
ATOM     23  C   UNL     1       2.426  -0.354   1.221  0.00  0.00    +0.016 A 
ATOM     24  C   UNL     1       1.237  -0.946   0.846  0.00  0.00    +0.011 A 
ATOM     25  C   UNL     1       0.026  -0.403   1.272  0.00  0.00    +0.002 A 
ATOM     26 BR   UNL     1       4.050   1.584   2.528  0.00  0.00    -0.050 Br
ENDBRANCH   1  25
TORSDOF 2
