REMARK  Name = ZINC39944131
REMARK  10 active torsions:
REMARK  status: ('A' for Active; 'I' for Inactive)
REMARK    1  A    between atoms: C_1  and  C_2
REMARK    2  A    between atoms: C_4  and  C_12
REMARK    3  A    between atoms: C_12  and  C_14
REMARK    4  A    between atoms: C_14  and  S_15
REMARK    5  A    between atoms: S_15  and  C_16
REMARK    6  A    between atoms: C_19  and  C_23
REMARK    7  A    between atoms: N_21  and  N_22
REMARK    8  A    between atoms: C_23  and  C_24
REMARK    9  A    between atoms: C_24  and  C_26
REMARK   10  A    between atoms: C_24  and  C_27
REMARK                            x       y       z     vdW  Elec       q    Type
REMARK                         _______ _______ _______ _____ _____    ______ ____
ROOT
ATOM      1  C   UNL     1      -6.388  -1.183  -1.427  0.00  0.00    +0.189 C 
ATOM      2  N   UNL     1      -6.667  -1.885  -0.381  0.00  0.00    -0.161 NA
ATOM      3  N   UNL     1      -7.955  -2.430  -0.456  0.00  0.00    -0.245 N 
ATOM      4  C   UNL     1      -8.516  -1.979  -1.742  0.00  0.00    +0.193 C 
ATOM      5  N   UNL     1      -7.442  -1.161  -2.329  0.00  0.00    -0.225 N 
ATOM      6  H   UNL     1      -8.389  -2.991   0.205  0.00  0.00    +0.170 HD
ENDROOT
BRANCH   5   7
ATOM      7  N   UNL     1      -7.475  -0.509  -3.529  0.00  0.00    -0.250 NA
ATOM      8  H   UNL     1      -6.609  -0.021  -3.700  0.00  0.00    +0.141 HD
ATOM      9  H   UNL     1      -7.685  -1.148  -4.282  0.00  0.00    +0.141 HD
ENDBRANCH   5   7
BRANCH   1  10
ATOM     10  S   UNL     1      -4.857  -0.348  -1.677  0.00  0.00    -0.080 S 
BRANCH  10  11
ATOM     11  C   UNL     1      -3.897  -0.739  -0.188  0.00  0.00    +0.156 C 
BRANCH  11  12
ATOM     12  C   UNL     1      -2.545  -0.077  -0.274  0.00  0.00    +0.172 C 
ATOM     13  O   UNL     1      -2.258   0.593  -1.245  0.00  0.00    -0.291 OA
BRANCH  12  16
ATOM     14  C   UNL     1      -0.292   1.878   0.830  0.00  0.00    +0.035 C 
ATOM     15  C   UNL     1      -0.222   0.350   0.857  0.00  0.00    +0.111 C 
ATOM     16  C   UNL     1      -1.614  -0.236   0.774  0.00  0.00    +0.027 C 
ATOM     17  C   UNL     1      -1.782  -0.961   1.940  0.00  0.00    +0.006 A 
ATOM     18  C   UNL     1      -2.855  -1.731   2.448  0.00  0.00    +0.010 A 
ATOM     19  C   UNL     1      -2.744  -2.346   3.646  0.00  0.00    +0.001 A 
ATOM     20  C   UNL     1      -1.586  -2.258   4.435  0.00  0.00    +0.002 A 
ATOM     21  C   UNL     1      -0.505  -1.549   4.041  0.00  0.00    +0.026 A 
ATOM     22  C   UNL     1      -0.543  -0.848   2.747  0.00  0.00    +0.043 A 
ATOM     23  N   UNL     1       0.337  -0.107   2.133  0.00  0.00    -0.377 N 
ATOM     24  H   UNL     1       1.222   0.109   2.468  0.00  0.00    +0.160 HD
ENDBRANCH  12  16
ENDBRANCH  11  12
ENDBRANCH  10  11
ENDBRANCH   1  10
BRANCH   4  25
ATOM     25  C   UNL     1      -9.770  -1.133  -1.513  0.00  0.00    +0.052 C 
BRANCH  25  26
ATOM     26  C   UNL     1     -10.844  -1.986  -0.835  0.00  0.00    +0.019 C 
ATOM     27  C   UNL     1     -12.042  -1.105  -0.475  0.00  0.00    +0.012 C 
BRANCH  26  28
ATOM     28  C   UNL     1     -11.286  -3.077  -1.775  0.00  0.00    -0.044 A 
ATOM     29  C   UNL     1     -11.836  -2.752  -3.001  0.00  0.00    +0.004 A 
ATOM     30  C   UNL     1     -12.242  -3.754  -3.863  0.00  0.00    +0.000 A 
ATOM     31  C   UNL     1     -12.098  -5.080  -3.499  0.00  0.00    +0.000 A 
ATOM     32  C   UNL     1     -11.547  -5.404  -2.274  0.00  0.00    +0.000 A 
ATOM     33  C   UNL     1     -11.138  -4.403  -1.413  0.00  0.00    +0.004 A 
ENDBRANCH  26  28
ENDBRANCH  25  26
ENDBRANCH   4  25
TORSDOF 8
