REMARK  Name = ZINC39167306
REMARK  4 active torsions:
REMARK  status: ('A' for Active; 'I' for Inactive)
REMARK    1  A    between atoms: C_7  and  C_10
REMARK    2  A    between atoms: N_14  and  C_18
REMARK    3  A    between atoms: C_18  and  C_19
REMARK    4  A    between atoms: N_21  and  C_22
REMARK                            x       y       z     vdW  Elec       q    Type
REMARK                         _______ _______ _______ _____ _____    ______ ____
ROOT
ATOM      1  C   UNL     1       0.675  -3.129  -0.007  0.00  0.00    +0.026 C 
ATOM      2  C   UNL     1       1.168  -4.417  -0.026  0.00  0.00    +0.080 C 
ATOM      3  C   UNL     1       0.439  -5.710  -0.032  0.00  0.00    +0.261 C 
ATOM      4  O   UNL     1      -0.776  -5.762  -0.020  0.00  0.00    -0.269 OA
ATOM      5  N   UNL     1       1.182  -6.804  -0.052  0.00  0.00    -0.219 N 
ATOM      6  C   UNL     1       2.529  -6.742  -0.065  0.00  0.00    +0.286 C 
ATOM      7  O   UNL     1       3.326  -7.660  -0.084  0.00  0.00    -0.262 OA
ATOM      8  S   UNL     1       2.862  -4.988  -0.058  0.00  0.00    -0.026 S 
ENDROOT
BRANCH   1  15
ATOM      9  C   UNL     1      -0.035   1.347   0.044  0.00  0.00    +0.001 A 
ATOM     10  C   UNL     1       1.144   2.101   0.032  0.00  0.00    +0.002 A 
ATOM     11  C   UNL     1       2.365   1.518   0.007  0.00  0.00    +0.026 A 
ATOM     12  C   UNL     1       2.471   0.099  -0.006  0.00  0.00    +0.043 A 
ATOM     13  N   UNL     1       3.517  -0.695  -0.030  0.00  0.00    -0.380 N 
ATOM     14  C   UNL     1       3.067  -2.090  -0.035  0.00  0.00    +0.149 C 
ATOM     15  C   UNL     1       1.555  -2.043  -0.011  0.00  0.00    -0.018 C 
ATOM     16  C   UNL     1       1.224  -0.689   0.006  0.00  0.00    +0.003 A 
ATOM     17  C   UNL     1      -0.013  -0.009   0.032  0.00  0.00    +0.010 A 
ATOM     18  H   UNL     1       4.442  -0.404  -0.042  0.00  0.00    +0.160 HD
ENDBRANCH   1  15
BRANCH   5  19
ATOM     19  C   UNL     1       0.527  -8.114  -0.059  0.00  0.00    +0.213 C 
BRANCH  19  20
ATOM     20  C   UNL     1       0.287  -8.548  -1.482  0.00  0.00    +0.235 C 
ATOM     21  O   UNL     1       0.630  -7.833  -2.400  0.00  0.00    -0.274 OA
ATOM     22  N   UNL     1      -0.308  -9.730  -1.735  0.00  0.00    -0.284 N 
ATOM     23  H   UNL     1      -0.522 -10.332  -1.005  0.00  0.00    +0.155 HD
BRANCH  22  24
ATOM     24  C   UNL     1      -0.619 -10.090  -3.052  0.00  0.00    +0.034 A 
ATOM     25  C   UNL     1      -1.772 -10.816  -3.321  0.00  0.00    +0.025 A 
ATOM     26  C   UNL     1      -2.075 -11.170  -4.621  0.00  0.00    +0.022 A 
ATOM     27  C   UNL     1      -1.232 -10.802  -5.654  0.00  0.00    +0.041 A 
ATOM     28  C   UNL     1      -0.083 -10.079  -5.389  0.00  0.00    +0.022 A 
ATOM     29  C   UNL     1       0.223  -9.717  -4.091  0.00  0.00    +0.025 A 
ATOM     30 CL   UNL     1      -1.617 -11.249  -7.287  0.00  0.00    -0.084 Cl
ENDBRANCH  22  24
ENDBRANCH  19  20
ENDBRANCH   5  19
TORSDOF 4
