REMARK  Name = ZINC08854806
REMARK  8 active torsions:
REMARK  status: ('A' for Active; 'I' for Inactive)
REMARK    1  A    between atoms: C_1  and  C_2
REMARK    2  A    between atoms: C_10  and  C_13
REMARK    3  A    between atoms: C_18  and  C_22
REMARK    4  A    between atoms: C_18  and  C_23
REMARK    5  A    between atoms: C_25  and  C_36
REMARK    6  A    between atoms: C_26  and  C_27
REMARK    7  A    between atoms: C_27  and  O_29
REMARK    8  A    between atoms: O_29  and  C_30
REMARK                            x       y       z     vdW  Elec       q    Type
REMARK                         _______ _______ _______ _____ _____    ______ ____
ROOT
ATOM      1  C   UNL     1      -3.919   2.531   4.885  0.00  0.00    +0.099 C 
ATOM      2  C   UNL     1      -5.020   2.537   5.916  0.00  0.00    +0.024 C 
ATOM      3  C   UNL     1      -5.078   1.582   6.868  0.00  0.00    +0.016 C 
ATOM      4  C   UNL     1      -6.169   1.589   7.910  0.00  0.00    +0.058 C 
ATOM      5  C   UNL     1      -7.440   2.204   7.319  0.00  0.00    -0.023 C 
ATOM      6  C   UNL     1      -7.116   3.623   6.841  0.00  0.00    +0.086 C 
ATOM      7  C   UNL     1      -5.982   3.561   5.856  0.00  0.00    +0.162 C 
ATOM      8  O   UNL     1      -5.895   4.411   4.992  0.00  0.00    -0.292 OA
ATOM      9  C   UNL     1      -7.918   1.360   6.136  0.00  0.00    +0.011 C 
ATOM     10  C   UNL     1      -8.532   2.254   8.390  0.00  0.00    +0.011 C 
ATOM     11  N   UNL     1      -4.145   0.581   6.905  0.00  0.00    -0.321 N 
ATOM     12  C   UNL     1      -3.396   0.286   5.801  0.00  0.00    +0.016 C 
ATOM     13  C   UNL     1      -3.258   1.186   4.812  0.00  0.00    +0.065 C 
ATOM     14  C   UNL     1      -2.716  -1.054   5.693  0.00  0.00    +0.061 C 
ATOM     15  H   UNL     1      -3.993   0.005   7.831  0.00  0.00    +0.152 HD
ENDROOT
BRANCH   1  25
ATOM     16  C   UNL     1       0.046   8.812   3.613  0.00  0.00    +0.044 C 
ATOM     17  C   UNL     1      -0.317   7.620   4.460  0.00  0.00    -0.050 A 
ATOM     18  C   UNL     1       0.314   7.421   5.679  0.00  0.00    +0.007 A 
ATOM     19  C   UNL     1      -0.004   6.337   6.469  0.00  0.00    +0.047 A 
ATOM     20  C   UNL     1      -0.968   5.430   6.043  0.00  0.00    +0.138 A 
ATOM     21  C   UNL     1      -1.606   5.633   4.809  0.00  0.00    +0.064 A 
ATOM     22  C   UNL     1      -1.275   6.733   4.020  0.00  0.00    +0.018 A 
ATOM     23  C   UNL     1      -2.626   4.655   4.380  0.00  0.00    +0.197 A 
ATOM     24  O   UNL     1      -3.215   4.776   3.320  0.00  0.00    -0.287 OA
ATOM     25  C   UNL     1      -2.891   3.569   5.255  0.00  0.00    +0.047 A 
ATOM     26  C   UNL     1      -2.223   3.474   6.419  0.00  0.00    +0.204 A 
ATOM     27  O   UNL     1      -1.296   4.361   6.798  0.00  0.00    -0.462 OA
ENDBRANCH   1  25
BRANCH  13  28
ATOM     28  C   UNL     1      -2.479   0.857   3.678  0.00  0.00    +0.338 C 
ATOM     29  O   UNL     1      -3.023   0.598   2.621  0.00  0.00    -0.245 OA
BRANCH  28  30
ATOM     30  O   UNL     1      -1.133   0.831   3.768  0.00  0.00    -0.458 OA
BRANCH  30  31
ATOM     31  C   UNL     1      -0.409   0.490   2.584  0.00  0.00    +0.177 C 
ATOM     32  C   UNL     1      -0.203  -1.025   2.530  0.00  0.00    +0.044 C 
ATOM     33  C   UNL     1       0.571  -1.389   1.262  0.00  0.00    +0.004 C 
ATOM     34  C   UNL     1       1.932  -0.690   1.277  0.00  0.00    +0.000 C 
ATOM     35  C   UNL     1       1.726   0.825   1.331  0.00  0.00    +0.004 C 
ATOM     36  C   UNL     1       0.951   1.190   2.599  0.00  0.00    +0.044 C 
ENDBRANCH  30  31
ENDBRANCH  28  30
ENDBRANCH  13  28
TORSDOF 4
