REMARK  Name = ZINC43199452
REMARK  13 active torsions:
REMARK  status: ('A' for Active; 'I' for Inactive)
REMARK    1  A    between atoms: C_1  and  C_2
REMARK    2  A    between atoms: C_4  and  O_19
REMARK    3  A    between atoms: C_6  and  C_16
REMARK    4  A    between atoms: C_16  and  C_17
REMARK    5  A    between atoms: C_16  and  C_18
REMARK    6  A    between atoms: O_19  and  C_20
REMARK    7  A    between atoms: C_22  and  O_38
REMARK    8  A    between atoms: C_24  and  O_37
REMARK    9  A    between atoms: C_26  and  O_36
REMARK   10  A    between atoms: C_28  and  C_31
REMARK   11  A    between atoms: C_31  and  O_32
REMARK   12  A    between atoms: O_32  and  C_33
REMARK   13  A    between atoms: C_33  and  C_35
REMARK                            x       y       z     vdW  Elec       q    Type
REMARK                         _______ _______ _______ _____ _____    ______ ____
ROOT
ATOM      1  O   UNL     1       0.434  -2.850  -0.315  0.00  0.00    -0.341 OA
ENDROOT
BRANCH   1   5
ATOM      2  C   UNL     1       0.736   1.528  -0.629  0.00  0.00    +0.039 C 
ATOM      3  C   UNL     1       0.512   0.044  -0.401  0.00  0.00    -0.074 C 
ATOM      4  C   UNL     1       0.250  -0.694  -1.436  0.00  0.00    +0.003 C 
ATOM      5  C   UNL     1      -0.027  -2.164  -1.470  0.00  0.00    +0.148 C 
ATOM      6  C   UNL     1       0.596  -2.792  -2.719  0.00  0.00    +0.025 C 
ATOM      7  C   UNL     1       2.038  -2.345  -2.909  0.00  0.00    +0.011 C 
ATOM      8  C   UNL     1       2.943  -2.798  -1.765  0.00  0.00    +0.038 C 
ATOM      9  C   UNL     1       3.101  -1.689  -0.755  0.00  0.00    -0.012 C 
ATOM     10  C   UNL     1       3.724  -0.560  -1.109  0.00  0.00    +0.016 C 
ATOM     11  C   UNL     1       2.612  -1.863   0.610  0.00  0.00    +0.159 C 
ATOM     12  O   UNL     1       2.588  -2.963   1.124  0.00  0.00    -0.292 OA
ATOM     13  C   UNL     1       2.081  -0.679   1.380  0.00  0.00    +0.083 C 
ATOM     14  C   UNL     1       0.606  -0.468   1.009  0.00  0.00    +0.038 C 
BRANCH   6  15
ATOM     15  C   UNL     1       0.501  -4.315  -2.638  0.00  0.00    -0.011 C 
ATOM     16  C   UNL     1      -0.968  -4.731  -2.544  0.00  0.00    +0.007 C 
ATOM     17  C   UNL     1       1.126  -4.932  -3.891  0.00  0.00    +0.007 C 
ENDBRANCH   6  15
ENDBRANCH   1   5
BRANCH   1  18
ATOM     18  C   UNL     1      -0.594  -3.149   0.632  0.00  0.00    +0.282 C 
ATOM     19  C   UNL     1       0.041  -3.647   1.933  0.00  0.00    +0.201 C 
ATOM     20  C   UNL     1      -1.067  -4.022   2.922  0.00  0.00    +0.179 C 
ATOM     21  C   UNL     1      -1.976  -5.074   2.278  0.00  0.00    +0.178 C 
ATOM     22  C   UNL     1      -2.532  -4.521   0.964  0.00  0.00    +0.190 C 
ATOM     23  O   UNL     1      -1.450  -4.163   0.102  0.00  0.00    -0.339 OA
BRANCH  21  24
ATOM     24  O   UNL     1      -1.223  -6.260   2.018  0.00  0.00    -0.386 OA
ATOM     25  H   UNL     1      -0.837  -6.662   2.808  0.00  0.00    +0.210 HD
ENDBRANCH  21  24
BRANCH  20  26
ATOM     26  O   UNL     1      -0.485  -4.555   4.113  0.00  0.00    -0.386 OA
ATOM     27  H   UNL     1       0.107  -3.942   4.569  0.00  0.00    +0.210 HD
ENDBRANCH  20  26
BRANCH  19  28
ATOM     28  O   UNL     1       0.849  -4.794   1.662  0.00  0.00    -0.384 OA
ATOM     29  H   UNL     1       1.570  -4.629   1.039  0.00  0.00    +0.210 HD
ENDBRANCH  19  28
BRANCH  22  30
ATOM     30  C   UNL     1      -3.393  -5.588   0.285  0.00  0.00    +0.266 C 
BRANCH  30  31
ATOM     31  O   UNL     1      -4.006  -5.035  -0.881  0.00  0.00    -0.462 OA
BRANCH  31  32
ATOM     32  C   UNL     1      -4.800  -5.847  -1.596  0.00  0.00    +0.304 C 
ATOM     33  O   UNL     1      -4.969  -6.991  -1.244  0.00  0.00    -0.251 OA
ATOM     34  C   UNL     1      -5.481  -5.334  -2.839  0.00  0.00    +0.136 C 
ENDBRANCH  31  32
ENDBRANCH  30  31
ENDBRANCH  22  30
ENDBRANCH   1  18
TORSDOF 9
