REMARK  Name = ZINC59320207
REMARK  7 active torsions:
REMARK  status: ('A' for Active; 'I' for Inactive)
REMARK    1  A    between atoms: C_1  and  C_2
REMARK    2  A    between atoms: C_2  and  C_3
REMARK    3  A    between atoms: C_2  and  C_4
REMARK    4  A    between atoms: C_2  and  C_22
REMARK    5  A    between atoms: C_4  and  N_5
REMARK    6  A    between atoms: N_11  and  C_21
REMARK    7  A    between atoms: C_13  and  C_15
REMARK                            x       y       z     vdW  Elec       q    Type
REMARK                         _______ _______ _______ _____ _____    ______ ____
ROOT
ATOM      1  N   UNL     1      -2.589   0.600   0.752  0.00  0.00    -0.298 N 
ATOM      2  C   UNL     1      -3.738   0.022   1.154  0.00  0.00    +0.303 C 
ATOM      3  O   UNL     1      -4.382  -0.655   0.376  0.00  0.00    -0.253 OA
ATOM      4  N   UNL     1      -4.173   0.193   2.418  0.00  0.00    -0.276 N 
ATOM      5  C   UNL     1      -3.470   1.097   3.342  0.00  0.00    +0.125 C 
ATOM      6  C   UNL     1      -3.185   0.338   4.643  0.00  0.00    +0.103 C 
ATOM      7  N   UNL     1      -4.438  -0.228   5.160  0.00  0.00    -0.302 NA
ATOM      8  C   UNL     1      -5.002  -1.214   4.228  0.00  0.00    +0.111 C 
ATOM      9  C   UNL     1      -5.365  -0.514   2.909  0.00  0.00    +0.122 C 
ATOM     10  C   UNL     1      -4.240  -0.816   6.492  0.00  0.00    +0.105 C 
ATOM     11  H   UNL     1      -2.114   1.201   1.348  0.00  0.00    +0.150 HD
ENDROOT
BRANCH   9  12
ATOM     12  C   UNL     1      -5.800  -1.539   1.893  0.00  0.00    -0.026 A 
ATOM     13  C   UNL     1      -4.937  -2.554   1.523  0.00  0.00    +0.005 A 
ATOM     14  C   UNL     1      -5.336  -3.494   0.591  0.00  0.00    +0.000 A 
ATOM     15  C   UNL     1      -6.597  -3.419   0.030  0.00  0.00    +0.000 A 
ATOM     16  C   UNL     1      -7.460  -2.405   0.400  0.00  0.00    +0.000 A 
ATOM     17  C   UNL     1      -7.062  -1.467   1.335  0.00  0.00    +0.005 A 
ENDBRANCH   9  12
BRANCH   1  18
ATOM     18  C   UNL     1      -2.057   0.323  -0.584  0.00  0.00    +0.116 C 
BRANCH  18  20
ATOM     19  C   UNL     1      -1.027   2.598  -0.647  0.00  0.00    +0.017 C 
ATOM     20  C   UNL     1      -0.754   1.099  -0.786  0.00  0.00    +0.006 C 
ATOM     21  C   UNL     1       0.266   0.666   0.269  0.00  0.00    +0.017 C 
BRANCH  20  22
ATOM     22  C   UNL     1      -0.207   0.813  -2.161  0.00  0.00    -0.040 A 
ATOM     23  C   UNL     1      -0.887  -0.038  -3.012  0.00  0.00    +0.004 A 
ATOM     24  C   UNL     1      -0.385  -0.300  -4.274  0.00  0.00    +0.000 A 
ATOM     25  C   UNL     1       0.796   0.290  -4.684  0.00  0.00    +0.000 A 
ATOM     26  C   UNL     1       1.475   1.141  -3.833  0.00  0.00    +0.000 A 
ATOM     27  C   UNL     1       0.971   1.407  -2.573  0.00  0.00    +0.004 A 
ENDBRANCH  20  22
ENDBRANCH  18  20
ENDBRANCH   1  18
TORSDOF 4
