REMARK  Name = ZINC45573549
REMARK  7 active torsions:
REMARK  status: ('A' for Active; 'I' for Inactive)
REMARK    1  A    between atoms: C_1  and  C_2
REMARK    2  A    between atoms: C_2  and  C_3
REMARK    3  A    between atoms: C_2  and  N_4
REMARK    4  A    between atoms: C_5  and  C_7
REMARK    5  A    between atoms: C_7  and  C_8
REMARK    6  A    between atoms: C_8  and  N_9
REMARK    7  A    between atoms: C_16  and  C_18
REMARK                            x       y       z     vdW  Elec       q    Type
REMARK                         _______ _______ _______ _____ _____    ______ ____
ROOT
ATOM      1  N   UNL     1      -4.463  -4.163  -1.081  0.00  0.00    -0.299 N 
ATOM      2  C   UNL     1      -4.734  -5.386  -1.578  0.00  0.00    +0.303 C 
ATOM      3  O   UNL     1      -3.838  -6.068  -2.035  0.00  0.00    -0.253 OA
ATOM      4  N   UNL     1      -5.998  -5.852  -1.568  0.00  0.00    -0.277 N 
ATOM      5  C   UNL     1      -7.176  -5.131  -1.053  0.00  0.00    +0.110 C 
ATOM      6  C   UNL     1      -8.194  -6.242  -0.692  0.00  0.00    +0.021 C 
ATOM      7  C   UNL     1      -7.952  -7.268  -1.830  0.00  0.00    +0.031 C 
ATOM      8  C   UNL     1      -6.432  -7.162  -2.076  0.00  0.00    +0.133 C 
ATOM      9  H   UNL     1      -5.178  -3.618  -0.716  0.00  0.00    +0.150 HD
ENDROOT
BRANCH   8  10
ATOM     10  C   UNL     1      -6.141  -7.262  -3.551  0.00  0.00    +0.100 A 
ATOM     11  N   UNL     1      -6.336  -6.356  -4.466  0.00  0.00    -0.242 NA
ATOM     12  C   UNL     1      -6.031  -6.568  -5.763  0.00  0.00    +0.079 A 
ATOM     13  C   UNL     1      -6.172  -5.714  -6.876  0.00  0.00    +0.029 A 
ATOM     14  C   UNL     1      -5.799  -6.128  -8.118  0.00  0.00    +0.002 A 
ATOM     15  C   UNL     1      -5.271  -7.394  -8.334  0.00  0.00    +0.001 A 
ATOM     16  C   UNL     1      -5.118  -8.259  -7.268  0.00  0.00    +0.017 A 
ATOM     17  C   UNL     1      -5.491  -7.850  -6.010  0.00  0.00    +0.039 A 
ATOM     18  S   UNL     1      -5.485  -8.566  -4.388  0.00  0.00    -0.070 S 
ENDBRANCH   8  10
BRANCH   1  19
ATOM     19  C   UNL     1      -3.089  -3.656  -1.091  0.00  0.00    +0.115 C 
BRANCH  19  20
ATOM     20  C   UNL     1      -3.057  -2.256  -0.474  0.00  0.00    +0.114 C 
BRANCH  20  22
ATOM     21  N   UNL     1      -1.372  -0.511   0.012  0.00  0.00    -0.313 N 
ATOM     22  C   UNL     1      -1.643  -1.734  -0.485  0.00  0.00    +0.215 C 
ATOM     23  O   UNL     1      -0.749  -2.415  -0.941  0.00  0.00    -0.276 OA
ATOM     24  H   UNL     1      -2.087   0.033   0.377  0.00  0.00    +0.149 HD
BRANCH  21  26
ATOM     25  C   UNL     1      -0.019   1.526   0.010  0.00  0.00    +0.027 C 
ATOM     26  C   UNL     1       0.002  -0.004   0.002  0.00  0.00    +0.067 C 
ATOM     27  C   UNL     1       0.742  -0.511   1.242  0.00  0.00    +0.027 C 
ENDBRANCH  21  26
ENDBRANCH  20  22
ENDBRANCH  19  20
ENDBRANCH   1  19
TORSDOF 5
