REMARK  Name = ZINC36146409
REMARK  10 active torsions:
REMARK  status: ('A' for Active; 'I' for Inactive)
REMARK    1  A    between atoms: C_4  and  C_7
REMARK    2  A    between atoms: C_7  and  C_8
REMARK    3  A    between atoms: C_8  and  C_10
REMARK    4  A    between atoms: C_8  and  O_34
REMARK    5  A    between atoms: C_10  and  N_11
REMARK    6  A    between atoms: N_11  and  C_12
REMARK    7  A    between atoms: N_11  and  C_20
REMARK    8  A    between atoms: C_12  and  C_13
REMARK    9  A    between atoms: C_20  and  C_21
REMARK   10  A    between atoms: C_24  and  C_27
REMARK                            x       y       z     vdW  Elec       q    Type
REMARK                         _______ _______ _______ _____ _____    ______ ____
ROOT
ATOM      1  N   UNL     1       5.665  -1.909   2.913  0.00  0.00    +0.387 N 
ATOM      2  H   UNL     1       5.447  -1.431   3.774  0.00  0.00    -0.081 HD
ENDROOT
BRANCH   1   3
ATOM      3  C   UNL     1       4.522  -1.810   1.995  0.00  0.00    -0.046 C 
BRANCH   3   4
ATOM      4  C   UNL     1       3.232  -1.648   2.803  0.00  0.00    +0.102 C 
BRANCH   4   5
ATOM      5  O   UNL     1       3.015  -2.818   3.594  0.00  0.00    -0.393 OA
ATOM      6  H   UNL     1       2.857  -3.619   3.076  0.00  0.00    +0.210 HD
ENDBRANCH   4   5
BRANCH   4   7
ATOM      7  C   UNL     1       2.053  -1.452   1.848  0.00  0.00    +0.064 C 
BRANCH   7  11
ATOM      8  C   UNL     1      -1.488  -0.652   4.098  0.00  0.00    +0.000 A 
ATOM      9  C   UNL     1      -0.680   0.391   3.686  0.00  0.00    +0.000 A 
ATOM     10  C   UNL     1       0.466   0.132   2.958  0.00  0.00    +0.004 A 
ATOM     11  C   UNL     1       0.804  -1.170   2.642  0.00  0.00    -0.045 A 
ATOM     12  C   UNL     1      -0.003  -2.214   3.055  0.00  0.00    +0.004 A 
ATOM     13  C   UNL     1      -1.150  -1.955   3.782  0.00  0.00    +0.000 A 
ENDBRANCH   7  11
ENDBRANCH   4   7
ENDBRANCH   3   4
ENDBRANCH   1   3
BRANCH   1  14
ATOM     14  C   UNL     1       5.946  -3.323   3.194  0.00  0.00    -0.041 C 
BRANCH  14  15
ATOM     15  C   UNL     1       6.420  -4.001   1.935  0.00  0.00    -0.046 A 
ATOM     16  C   UNL     1       5.518  -4.304   0.932  0.00  0.00    +0.003 A 
ATOM     17  C   UNL     1       5.952  -4.927  -0.224  0.00  0.00    +0.000 A 
ATOM     18  C   UNL     1       7.289  -5.246  -0.377  0.00  0.00    +0.001 A 
ATOM     19  C   UNL     1       8.191  -4.944   0.625  0.00  0.00    +0.020 A 
ATOM     20  C   UNL     1       7.758  -4.316   1.780  0.00  0.00    +0.042 A 
ATOM     21 CL   UNL     1       8.892  -3.929   3.036  0.00  0.00    -0.083 Cl
ENDBRANCH  14  15
ENDBRANCH   1  14
BRANCH   1  22
ATOM     22  C   UNL     1       6.844  -1.289   2.294  0.00  0.00    -0.030 C 
BRANCH  22  23
ATOM     23  C   UNL     1       7.846  -0.898   3.382  0.00  0.00    +0.194 C 
ATOM     24  C   UNL     1       9.241  -0.616   2.776  0.00  0.00    +0.104 C 
ATOM     25  C   UNL     1      10.178  -1.188   3.823  0.00  0.00    +0.091 C 
ATOM     26  N   UNL     1       9.491  -1.949   4.608  0.00  0.00    -0.089 NA
ATOM     27  O   UNL     1       8.123  -2.015   4.253  0.00  0.00    -0.392 OA
BRANCH  25  28
ATOM     28  C   UNL     1      11.625  -0.920   3.927  0.00  0.00    -0.000 A 
ATOM     29  C   UNL     1      12.248  -0.068   3.013  0.00  0.00    +0.012 A 
ATOM     30  C   UNL     1      13.601   0.178   3.115  0.00  0.00    +0.039 A 
ATOM     31  C   UNL     1      14.342  -0.418   4.123  0.00  0.00    +0.123 A 
ATOM     32  C   UNL     1      13.729  -1.264   5.033  0.00  0.00    +0.039 A 
ATOM     33  C   UNL     1      12.376  -1.513   4.944  0.00  0.00    +0.012 A 
ATOM     34  F   UNL     1      15.668  -0.173   4.218  0.00  0.00    -0.205 F 
ENDBRANCH  25  28
ENDBRANCH  22  23
ENDBRANCH   1  22
TORSDOF 10
