REMARK  Name = ZINC35427194
REMARK  6 active torsions:
REMARK  status: ('A' for Active; 'I' for Inactive)
REMARK    1  A    between atoms: C_1  and  N_2
REMARK    2  A    between atoms: C_16  and  C_31
REMARK    3  A    between atoms: N_22  and  C_23
REMARK    4  A    between atoms: C_23  and  C_24
REMARK    5  A    between atoms: C_34  and  O_37
REMARK    6  A    between atoms: O_37  and  C_38
REMARK                            x       y       z     vdW  Elec       q    Type
REMARK                         _______ _______ _______ _____ _____    ______ ____
ROOT
ATOM      1  C   UNL     1      -0.725   1.577  -0.096  0.00  0.00    -0.096 C 
ATOM      2  N   UNL     1      -0.613   0.113  -0.117  0.00  0.00    +0.381 N 
ATOM      3  C   UNL     1      -1.949  -0.483   0.015  0.00  0.00    -0.074 C 
ATOM      4  C   UNL     1      -1.901  -1.977  -0.320  0.00  0.00    +0.018 C 
ATOM      5  C   UNL     1      -0.807  -2.615   0.533  0.00  0.00    -0.034 A 
ATOM      6  C   UNL     1      -0.717  -4.002   0.753  0.00  0.00    +0.004 A 
ATOM      7  C   UNL     1       0.302  -4.430   1.547  0.00  0.00    +0.090 A 
ATOM      8  S   UNL     1       1.172  -2.956   1.987  0.00  0.00    -0.077 S 
ATOM      9  C   UNL     1       0.133  -1.818   1.110  0.00  0.00    -0.021 A 
ATOM     10  C   UNL     1       0.236  -0.332   1.004  0.00  0.00    -0.036 C 
ATOM     11  N   UNL     1       0.515  -5.758   1.892  0.00  0.00    -0.312 N 
ATOM     12  C   UNL     1       1.640  -6.510   1.913  0.00  0.00    +0.092 A 
ATOM     13  C   UNL     1       1.295  -7.771   2.260  0.00  0.00    +0.020 A 
ATOM     14  C   UNL     1      -0.100  -7.785   2.479  0.00  0.00    +0.025 A 
ATOM     15  C   UNL     1      -0.552  -6.539   2.273  0.00  0.00    +0.049 A 
ATOM     16  C   UNL     1      -1.935  -5.988   2.444  0.00  0.00    +0.155 C 
ATOM     17  N   UNL     1      -2.552  -5.633   1.143  0.00  0.00    -0.269 N 
ATOM     18  C   UNL     1      -1.675  -5.000   0.142  0.00  0.00    +0.148 C 
ATOM     19  C   UNL     1      -3.853  -5.878   0.888  0.00  0.00    +0.304 C 
ATOM     20  O   UNL     1      -4.550  -6.401   1.735  0.00  0.00    -0.253 OA
ATOM     21  N   UNL     1      -4.380  -5.542  -0.306  0.00  0.00    -0.295 N 
ATOM     22  H   UNL     1      -3.824  -5.124  -0.982  0.00  0.00    +0.151 HD
ATOM     23  H   UNL     1      -0.199  -0.180  -0.989  0.00  0.00    -0.082 HD
ENDROOT
BRANCH  16  24
ATOM     24  C   UNL     1      -1.869  -4.754   3.307  0.00  0.00    -0.021 A 
ATOM     25  C   UNL     1      -2.710  -3.687   3.051  0.00  0.00    +0.009 A 
ATOM     26  C   UNL     1      -2.651  -2.554   3.840  0.00  0.00    +0.046 A 
ATOM     27  C   UNL     1      -1.746  -2.489   4.890  0.00  0.00    +0.120 A 
ATOM     28  C   UNL     1      -0.903  -3.561   5.144  0.00  0.00    +0.046 A 
ATOM     29  C   UNL     1      -0.970  -4.693   4.356  0.00  0.00    +0.009 A 
BRANCH  27  30
ATOM     30  O   UNL     1      -1.685  -1.376   5.667  0.00  0.00    -0.495 OA
ATOM     31  C   UNL     1      -0.730  -1.378   6.730  0.00  0.00    +0.277 C 
ENDBRANCH  27  30
ENDBRANCH  16  24
BRANCH  21  32
ATOM     32  C   UNL     1      -5.794  -5.808  -0.583  0.00  0.00    +0.141 C 
BRANCH  32  33
ATOM     33  C   UNL     1      -6.130  -5.341  -1.976  0.00  0.00    -0.030 A 
ATOM     34  C   UNL     1      -6.565  -4.046  -2.184  0.00  0.00    +0.008 A 
ATOM     35  C   UNL     1      -6.872  -3.616  -3.462  0.00  0.00    +0.038 A 
ATOM     36  C   UNL     1      -6.744  -4.484  -4.533  0.00  0.00    +0.123 A 
ATOM     37  C   UNL     1      -6.308  -5.782  -4.323  0.00  0.00    +0.038 A 
ATOM     38  C   UNL     1      -5.996  -6.207  -3.045  0.00  0.00    +0.008 A 
ATOM     39  F   UNL     1      -7.045  -4.066  -5.782  0.00  0.00    -0.205 F 
ENDBRANCH  32  33
ENDBRANCH  21  32
TORSDOF 4
