REMARK  Name = ZINC21256431
REMARK  6 active torsions:
REMARK  status: ('A' for Active; 'I' for Inactive)
REMARK    1  A    between atoms: C_1  and  C_2
REMARK    2  A    between atoms: C_2  and  C_3
REMARK    3  A    between atoms: C_2  and  O_4
REMARK    4  A    between atoms: O_4  and  C_5
REMARK    5  A    between atoms: C_8  and  C_11
REMARK    6  A    between atoms: C_16  and  C_26
REMARK                            x       y       z     vdW  Elec       q    Type
REMARK                         _______ _______ _______ _____ _____    ______ ____
ROOT
ATOM      1  C   UNL     1       6.048   1.127  -3.601  0.00  0.00    +0.032 C 
ATOM      2  C   UNL     1       5.160   2.336  -3.312  0.00  0.00    +0.059 C 
ATOM      3  C   UNL     1       4.645   2.269  -1.883  0.00  0.00    +0.017 C 
ATOM      4  C   UNL     1       4.382   1.085  -1.313  0.00  0.00    +0.036 C 
ATOM      5  C   UNL     1       3.826   0.868   0.075  0.00  0.00    +0.137 C 
ATOM      6  N   UNL     1       3.821   2.056   0.903  0.00  0.00    -0.331 N 
ATOM      7  C   UNL     1       3.042   3.161   0.571  0.00  0.00    +0.049 A 
ATOM      8  C   UNL     1       1.977   3.557   1.365  0.00  0.00    +0.025 A 
ATOM      9  C   UNL     1       1.198   4.632   0.974  0.00  0.00    +0.002 A 
ATOM     10  C   UNL     1       1.475   5.307  -0.201  0.00  0.00    +0.002 A 
ATOM     11  C   UNL     1       2.548   4.925  -0.988  0.00  0.00    +0.025 A 
ATOM     12  C   UNL     1       3.340   3.865  -0.586  0.00  0.00    +0.052 A 
ATOM     13  N   UNL     1       4.478   3.478  -1.288  0.00  0.00    -0.316 N 
ATOM     14  C   UNL     1       4.630  -0.119  -2.019  0.00  0.00    +0.163 C 
ATOM     15  O   UNL     1       4.372  -1.178  -1.480  0.00  0.00    -0.292 OA
ATOM     16  C   UNL     1       5.199  -0.134  -3.406  0.00  0.00    +0.088 C 
ATOM     17  H   UNL     1       4.440   2.096   1.812  0.00  0.00    +0.147 HD
ATOM     18  H   UNL     1       5.277   4.232  -1.341  0.00  0.00    +0.152 HD
ENDROOT
BRANCH   5  19
ATOM     19  C   UNL     1       2.411   0.365  -0.048  0.00  0.00    -0.003 A 
ATOM     20  C   UNL     1       1.698   0.587  -1.211  0.00  0.00    +0.007 A 
ATOM     21  C   UNL     1       0.400   0.126  -1.326  0.00  0.00    +0.002 A 
ATOM     22  C   UNL     1      -0.186  -0.558  -0.277  0.00  0.00    +0.021 A 
ATOM     23  C   UNL     1       0.526  -0.781   0.888  0.00  0.00    +0.060 A 
ATOM     24  C   UNL     1       1.826  -0.319   1.002  0.00  0.00    +0.064 A 
ATOM     25 CL   UNL     1       2.721  -0.597   2.463  0.00  0.00    -0.082 Cl
ATOM     26 CL   UNL     1      -0.210  -1.639   2.205  0.00  0.00    -0.082 Cl
ENDBRANCH   5  19
BRANCH   1  30
ATOM     27  C   UNL     1       7.473   1.305  -7.626  0.00  0.00    +0.121 A 
ATOM     28  C   UNL     1       8.373   1.298  -6.570  0.00  0.00    +0.046 A 
ATOM     29  C   UNL     1       7.910   1.241  -5.269  0.00  0.00    +0.007 A 
ATOM     30  C   UNL     1       6.551   1.190  -5.020  0.00  0.00    -0.043 A 
ATOM     31  C   UNL     1       5.652   1.191  -6.071  0.00  0.00    +0.007 A 
ATOM     32  C   UNL     1       6.110   1.254  -7.373  0.00  0.00    +0.046 A 
BRANCH  27  33
ATOM     33  O   UNL     1       7.927   1.362  -8.905  0.00  0.00    -0.489 OA
BRANCH  33  35
ATOM     34  C   UNL     1      10.018   0.157  -9.031  0.00  0.00    +0.051 C 
ATOM     35  C   UNL     1       9.334   1.525  -9.089  0.00  0.00    +0.167 C 
ATOM     36  C   UNL     1       9.600   2.171 -10.450  0.00  0.00    +0.051 C 
ENDBRANCH  33  35
ENDBRANCH  27  33
ENDBRANCH   1  30
TORSDOF 4
