REMARK  Name = ZINC08763875
REMARK  11 active torsions:
REMARK  status: ('A' for Active; 'I' for Inactive)
REMARK    1  A    between atoms: C_1  and  C_2
REMARK    2  A    between atoms: C_4  and  C_32
REMARK    3  A    between atoms: C_6  and  O_8
REMARK    4  A    between atoms: O_8  and  C_9
REMARK    5  A    between atoms: C_14  and  O_20
REMARK    6  A    between atoms: O_20  and  C_21
REMARK    7  A    between atoms: C_21  and  C_22
REMARK    8  A    between atoms: C_22  and  C_24
REMARK    9  A    between atoms: C_22  and  O_31
REMARK   10  A    between atoms: C_24  and  N_63
REMARK   11  A    between atoms: C_27  and  C_30
REMARK                            x       y       z     vdW  Elec       q    Type
REMARK                         _______ _______ _______ _____ _____    ______ ____
ROOT
ATOM      1  C   UNL     1       1.318  13.219  -7.482  0.00  0.00    +0.210 A 
ATOM      2  C   UNL     1       0.952  12.240  -8.333  0.00  0.00    +0.245 A 
ATOM      3  O   UNL     1       1.020  10.940  -8.015  0.00  0.00    -0.459 OA
ATOM      4  C   UNL     1       1.460  10.513  -6.814  0.00  0.00    +0.142 A 
ATOM      5  C   UNL     1       1.522   9.158  -6.518  0.00  0.00    +0.092 A 
ATOM      6  C   UNL     1       1.974   8.746  -5.276  0.00  0.00    +0.124 A 
ATOM      7  C   UNL     1       2.376   9.680  -4.323  0.00  0.00    +0.046 A 
ATOM      8  C   UNL     1       2.325  11.016  -4.600  0.00  0.00    +0.019 A 
ATOM      9  C   UNL     1       1.867  11.447  -5.846  0.00  0.00    +0.068 A 
ATOM     10  C   UNL     1       1.797  12.879  -6.185  0.00  0.00    +0.234 A 
ATOM     11  O   UNL     1       2.135  13.738  -5.388  0.00  0.00    -0.283 OA
ENDROOT
BRANCH   1  12
ATOM     12  O   UNL     1       1.228  14.524  -7.859  0.00  0.00    -0.449 OA
BRANCH  12  18
ATOM     13  C   UNL     1       2.456  15.759 -12.418  0.00  0.00    +0.044 C 
ATOM     14  C   UNL     1       1.419  15.399 -11.385  0.00  0.00    -0.047 A 
ATOM     15  C   UNL     1       0.083  15.344 -11.737  0.00  0.00    +0.007 A 
ATOM     16  C   UNL     1      -0.870  15.015 -10.791  0.00  0.00    -0.047 A 
ATOM     17  C   UNL     1      -0.489  14.739  -9.492  0.00  0.00    +0.049 A 
ATOM     18  C   UNL     1       0.851  14.794  -9.136  0.00  0.00    +0.129 A 
ATOM     19  C   UNL     1       1.805  15.130 -10.086  0.00  0.00    +0.049 A 
ATOM     20  C   UNL     1      -2.325  14.955 -11.178  0.00  0.00    +0.044 C 
ENDBRANCH  12  18
ENDBRANCH   1  12
BRANCH   6  21
ATOM     21  O   UNL     1       2.031   7.421  -4.986  0.00  0.00    -0.489 OA
BRANCH  21  22
ATOM     22  C   UNL     1       2.511   7.061  -3.689  0.00  0.00    +0.258 C 
BRANCH  22  23
ATOM     23  C   UNL     1       2.503   5.538  -3.547  0.00  0.00    +0.135 C 
BRANCH  23  24
ATOM     24  O   UNL     1       1.157   5.062  -3.597  0.00  0.00    -0.390 OA
ATOM     25  H   UNL     1       0.588   5.416  -2.900  0.00  0.00    +0.210 HD
ENDBRANCH  23  24
BRANCH  23  26
ATOM     26  C   UNL     1       3.133   5.147  -2.209  0.00  0.00    -0.044 C 
BRANCH  26  33
ATOM     27  C   UNL     1       4.111   3.038  -2.885  0.00  0.00    -0.078 C 
ATOM     28  C   UNL     1       3.941   1.519  -2.812  0.00  0.00    -0.016 C 
ATOM     29  C   UNL     1       4.075   1.065  -1.355  0.00  0.00    -0.018 C 
ATOM     30  C   UNL     1       3.030   1.791  -0.504  0.00  0.00    -0.016 C 
ATOM     31  C   UNL     1       3.227   3.303  -0.644  0.00  0.00    -0.078 C 
ATOM     32  C   UNL     1       3.845  -0.446  -1.268  0.00  0.00    +0.007 C 
ATOM     33  N   UNL     1       3.061   3.679  -2.064  0.00  0.00    +0.381 N 
ATOM     34  H   UNL     1       2.142   3.356  -2.388  0.00  0.00    -0.082 HD
ENDBRANCH  26  33
ENDBRANCH  23  26
ENDBRANCH  22  23
ENDBRANCH  21  22
ENDBRANCH   6  21
TORSDOF 8
