REMARK  Name = ZINC12800754
REMARK  8 active torsions:
REMARK  status: ('A' for Active; 'I' for Inactive)
REMARK    1  A    between atoms: C_4  and  N_7
REMARK    2  A    between atoms: C_8  and  C_10
REMARK    3  A    between atoms: C_15  and  O_16
REMARK    4  A    between atoms: O_16  and  C_17
REMARK    5  A    between atoms: C_17  and  C_18
REMARK    6  A    between atoms: N_20  and  C_21
REMARK    7  A    between atoms: C_21  and  C_23
REMARK    8  A    between atoms: C_21  and  C_30
REMARK                            x       y       z     vdW  Elec       q    Type
REMARK                         _______ _______ _______ _____ _____    ______ ____
ROOT
ATOM      1  C   UNL     1       8.513   2.040  -0.501  0.00  0.00    +0.324 C 
ENDROOT
BRANCH   1   2
ATOM      2  C   UNL     1       8.308   3.533  -0.473  0.00  0.00    +0.251 C 
ATOM      3  O   UNL     1       7.190   3.990  -0.362  0.00  0.00    -0.272 OA
ATOM      4  N   UNL     1       9.367   4.360  -0.573  0.00  0.00    -0.301 N 
ATOM      5  H   UNL     1      10.262   3.995  -0.661  0.00  0.00    +0.150 HD
BRANCH   4   6
ATOM      6  C   UNL     1       9.168   5.811  -0.546  0.00  0.00    +0.140 C 
BRANCH   6   7
ATOM      7  C   UNL     1      10.311   6.488  -1.258  0.00  0.00    -0.022 A 
ATOM      8  C   UNL     1      11.603   6.025  -1.087  0.00  0.00    +0.008 A 
ATOM      9  C   UNL     1      12.651   6.642  -1.743  0.00  0.00    +0.038 A 
ATOM     10  C   UNL     1      12.409   7.731  -2.563  0.00  0.00    +0.123 A 
ATOM     11  C   UNL     1      11.116   8.197  -2.729  0.00  0.00    +0.038 A 
ATOM     12  C   UNL     1      10.069   7.575  -2.076  0.00  0.00    +0.008 A 
ATOM     13  F   UNL     1      13.434   8.338  -3.200  0.00  0.00    -0.205 F 
ENDBRANCH   6   7
BRANCH   6  14
ATOM     14  C   UNL     1       9.115   6.285   0.883  0.00  0.00    +0.014 A 
ATOM     15  C   UNL     1       8.312   7.223   1.442  0.00  0.00    +0.013 A 
ATOM     16  C   UNL     1       8.438   7.495   2.792  0.00  0.00    +0.008 A 
ATOM     17  C   UNL     1       9.368   6.824   3.514  0.00  0.00    +0.045 A 
ATOM     18  S   UNL     1      10.099   5.762   2.278  0.00  0.00    -0.099 S 
ENDBRANCH   6  14
ENDBRANCH   4   6
ENDBRANCH   1   2
BRANCH   1  19
ATOM     19  O   UNL     1       7.249   1.383  -0.381  0.00  0.00    -0.482 OA
BRANCH  19  25
ATOM     20  C   UNL     1       6.055  -0.684  -0.275  0.00  0.00    +0.079 A 
ATOM     21  C   UNL     1       6.076  -2.081  -0.278  0.00  0.00    +0.017 A 
ATOM     22  C   UNL     1       7.274  -2.750  -0.402  0.00  0.00    +0.001 A 
ATOM     23  C   UNL     1       8.461  -2.043  -0.514  0.00  0.00    +0.004 A 
ATOM     24  C   UNL     1       8.455  -0.662  -0.508  0.00  0.00    +0.046 A 
ATOM     25  C   UNL     1       7.257   0.027  -0.388  0.00  0.00    +0.133 A 
BRANCH  20  27
ATOM     26  N   UNL     1       3.621  -0.650  -0.037  0.00  0.00    -0.281 N 
ATOM     27  C   UNL     1       4.775   0.038  -0.146  0.00  0.00    +0.252 C 
ATOM     28  O   UNL     1       4.761   1.254  -0.139  0.00  0.00    -0.270 OA
ATOM     29  H   UNL     1       3.638  -1.617   0.034  0.00  0.00    +0.155 HD
BRANCH  26  33
ATOM     30  C   UNL     1      -0.018   1.377  -0.008  0.00  0.00    +0.000 A 
ATOM     31  C   UNL     1       1.037   1.863  -0.758  0.00  0.00    +0.002 A 
ATOM     32  C   UNL     1       2.245   1.194  -0.769  0.00  0.00    +0.023 A 
ATOM     33  C   UNL     1       2.399   0.031  -0.027  0.00  0.00    +0.034 A 
ATOM     34  C   UNL     1       1.338  -0.456   0.725  0.00  0.00    +0.023 A 
ATOM     35  C   UNL     1       0.133   0.219   0.733  0.00  0.00    +0.002 A 
ENDBRANCH  26  33
ENDBRANCH  20  27
ENDBRANCH  19  25
ENDBRANCH   1  19
TORSDOF 8
