REMARK  Name = ZINC09383083
REMARK  6 active torsions:
REMARK  status: ('A' for Active; 'I' for Inactive)
REMARK    1  A    between atoms: C_1  and  C_2
REMARK    2  A    between atoms: C_10  and  N_16
REMARK    3  A    between atoms: C_11  and  C_12
REMARK    4  A    between atoms: C_12  and  O_14
REMARK    5  A    between atoms: O_14  and  C_15
REMARK    6  A    between atoms: C_17  and  C_19
REMARK                            x       y       z     vdW  Elec       q    Type
REMARK                         _______ _______ _______ _____ _____    ______ ____
ROOT
ATOM      1  C   UNL     1       5.715   2.728  -4.263  0.00  0.00    +0.109 C 
ATOM      2  C   UNL     1       4.226   2.561  -4.429  0.00  0.00    +0.213 C 
ATOM      3  O   UNL     1       3.784   2.022  -5.421  0.00  0.00    -0.276 OA
ATOM      4  N   UNL     1       3.387   3.012  -3.475  0.00  0.00    -0.297 N 
ATOM      5  C   UNL     1       1.929   2.972  -3.662  0.00  0.00    +0.113 C 
ATOM      6  C   UNL     1       1.307   2.025  -2.633  0.00  0.00    +0.056 C 
ATOM      7  C   UNL     1       1.870   2.344  -1.254  0.00  0.00    -0.018 A 
ATOM      8  C   UNL     1       3.027   3.025  -1.109  0.00  0.00    +0.013 A 
ATOM      9  S   UNL     1       3.273   3.139   0.640  0.00  0.00    -0.076 S 
ATOM     10  C   UNL     1       1.855   2.300   1.177  0.00  0.00    +0.087 A 
ATOM     11  C   UNL     1       1.229   1.945  -0.011  0.00  0.00    +0.091 A 
ATOM     12  C   UNL     1       3.897   3.563  -2.204  0.00  0.00    +0.150 C 
ENDROOT
BRANCH  10  13
ATOM     13  N   UNL     1       1.446   2.044   2.475  0.00  0.00    -0.275 N 
ATOM     14  C   UNL     1       2.192   2.472   3.513  0.00  0.00    +0.249 C 
ATOM     15  O   UNL     1       3.224   3.082   3.310  0.00  0.00    -0.270 OA
ATOM     16  H   UNL     1       0.623   1.558   2.637  0.00  0.00    +0.156 HD
BRANCH  14  17
ATOM     17  C   UNL     1       1.756   2.199   4.898  0.00  0.00    +0.037 A 
ATOM     18  C   UNL     1       0.569   1.504   5.135  0.00  0.00    +0.014 A 
ATOM     19  C   UNL     1       0.169   1.247   6.430  0.00  0.00    +0.016 A 
ATOM     20  C   UNL     1       0.938   1.688   7.494  0.00  0.00    +0.018 A 
ATOM     21  C   UNL     1       2.114   2.383   7.266  0.00  0.00    +0.016 A 
ATOM     22  C   UNL     1       2.527   2.640   5.976  0.00  0.00    +0.014 A 
ATOM     23 BR   UNL     1       0.379   1.339   9.267  0.00  0.00    -0.050 Br
ENDBRANCH  14  17
ENDBRANCH  10  13
BRANCH  11  24
ATOM     24  C   UNL     1      -0.033   1.203  -0.012  0.00  0.00    +0.342 C 
ATOM     25  O   UNL     1      -0.023  -0.013  -0.027  0.00  0.00    -0.245 OA
BRANCH  24  26
ATOM     26  O   UNL     1      -1.206   1.868  -0.001  0.00  0.00    -0.464 OA
ATOM     27  C   UNL     1      -2.418   1.067  -0.008  0.00  0.00    +0.280 C 
ENDBRANCH  24  26
ENDBRANCH  11  24
TORSDOF 4
