REMARK  Name = ZINC15858729
REMARK  6 active torsions:
REMARK  status: ('A' for Active; 'I' for Inactive)
REMARK    1  A    between atoms: C_1  and  C_2
REMARK    2  A    between atoms: C_3  and  C_24
REMARK    3  A    between atoms: C_8  and  O_23
REMARK    4  A    between atoms: C_9  and  C_13
REMARK    5  A    between atoms: C_10  and  C_12
REMARK    6  A    between atoms: C_13  and  C_14
REMARK                            x       y       z     vdW  Elec       q    Type
REMARK                         _______ _______ _______ _____ _____    ______ ____
ROOT
ATOM      1  C   UNL     1       4.550   5.444  -0.015  0.00  0.00    +0.066 C 
ATOM      2  C   UNL     1       3.148   4.891  -0.004  0.00  0.00    +0.051 A 
ATOM      3  C   UNL     1       2.075   5.721   0.011  0.00  0.00    +0.011 A 
ATOM      4  S   UNL     1       0.739   4.535   0.018  0.00  0.00    -0.053 S 
ATOM      5  C   UNL     1       1.714   3.097   0.002  0.00  0.00    +0.197 A 
ATOM      6  N   UNL     1       2.936   3.591  -0.002  0.00  0.00    -0.226 NA
ATOM      7  N   UNL     1       1.307   1.764  -0.001  0.00  0.00    -0.175 N 
ATOM      8  C   UNL     1       2.125   0.677  -0.015  0.00  0.00    +0.221 A 
ATOM      9  C   UNL     1       1.335  -0.429  -0.013  0.00  0.00    +0.045 A 
ATOM     10  C   UNL     1       0.002  -0.004   0.002  0.00  0.00    +0.068 A 
ATOM     11  N   UNL     1      -0.016   1.304   0.009  0.00  0.00    -0.166 NA
ATOM     12  C   UNL     1      -1.209  -0.901   0.008  0.00  0.00    +0.068 C 
ATOM     13  C   UNL     1       2.024   7.227   0.018  0.00  0.00    +0.053 C 
ENDROOT
BRANCH   8  14
ATOM     14  O   UNL     1       3.483   0.693  -0.028  0.00  0.00    -0.492 OA
ATOM     15  H   UNL     1       3.868   0.703  -0.914  0.00  0.00    +0.294 HD
ENDBRANCH   8  14
BRANCH   9  16
ATOM     16  C   UNL     1       1.810  -1.859  -0.025  0.00  0.00    +0.138 C 
BRANCH  16  17
ATOM     17  C   UNL     1       1.954  -2.329  -1.449  0.00  0.00    +0.220 C 
ATOM     18  O   UNL     1       1.697  -1.576  -2.365  0.00  0.00    -0.275 OA
ATOM     19  N   UNL     1       2.369  -3.585  -1.706  0.00  0.00    -0.301 N 
ATOM     20  C   UNL     1       2.673  -4.455  -0.592  0.00  0.00    +0.108 C 
ATOM     21  C   UNL     1       4.155  -4.297  -0.192  0.00  0.00    +0.019 C 
ATOM     22  C   UNL     1       5.027  -4.896  -1.214  0.00  0.00    +0.002 C 
ATOM     23  C   UNL     1       4.933  -4.236  -2.586  0.00  0.00    +0.002 C 
ATOM     24  C   UNL     1       3.780  -4.836  -3.352  0.00  0.00    +0.019 C 
ATOM     25  C   UNL     1       2.500  -4.013  -3.112  0.00  0.00    +0.108 C 
ENDBRANCH  16  17
ENDBRANCH   9  16
TORSDOF 3
