REMARK  Name = ZINC09125447
REMARK  4 active torsions:
REMARK  status: ('A' for Active; 'I' for Inactive)
REMARK    1  A    between atoms: C_6  and  S_11
REMARK    2  A    between atoms: S_11  and  N_14
REMARK    3  A    between atoms: C_19  and  C_20
REMARK    4  A    between atoms: C_19  and  N_57
REMARK                            x       y       z     vdW  Elec       q    Type
REMARK                         _______ _______ _______ _____ _____    ______ ____
ROOT
ATOM      1  N   UNL     1      -0.990   2.200   1.551  0.00  0.00    -0.180 NA
ATOM      2  C   UNL     1      -0.239   1.506   0.493  0.00  0.00    +0.091 C 
ATOM      3  C   UNL     1      -0.896   1.812  -0.857  0.00  0.00    -0.061 C 
ATOM      4  C   UNL     1      -1.879   3.858  -0.004  0.00  0.00    -0.061 C 
ATOM      5  C   UNL     1      -1.263   3.636   1.381  0.00  0.00    +0.091 C 
ATOM      6  N   UNL     1      -0.978   3.279  -1.024  0.00  0.00    +0.387 N 
ATOM      7  H   UNL     1      -0.040   3.680  -0.905  0.00  0.00    -0.081 HD
ENDROOT
BRANCH   1   8
ATOM      8  S   UNL     1      -1.518   1.386   2.893  0.00  0.00    +0.061 S 
ATOM      9  O   UNL     1      -2.623   2.120   3.404  0.00  0.00    -0.153 OA
ATOM     10  O   UNL     1      -1.617   0.018   2.524  0.00  0.00    -0.153 OA
BRANCH   8  16
ATOM     11  C   UNL     1       2.811   2.743   7.836  0.00  0.00    +0.001 A 
ATOM     12  C   UNL     1       1.824   3.726   7.793  0.00  0.00    +0.001 A 
ATOM     13  C   UNL     1       0.824   3.675   6.871  0.00  0.00    +0.008 A 
ATOM     14  C   UNL     1       0.783   2.617   5.947  0.00  0.00    -0.016 A 
ATOM     15  C   UNL     1      -0.234   2.531   4.980  0.00  0.00    +0.037 A 
ATOM     16  C   UNL     1      -0.241   1.491   4.102  0.00  0.00    +0.106 A 
ATOM     17  C   UNL     1       0.743   0.505   4.149  0.00  0.00    +0.029 A 
ATOM     18  C   UNL     1       1.746   0.559   5.067  0.00  0.00    +0.010 A 
ATOM     19  C   UNL     1       1.787   1.617   5.991  0.00  0.00    -0.018 A 
ATOM     20  C   UNL     1       2.803   1.703   6.957  0.00  0.00    +0.008 A 
ENDBRANCH   8  16
ENDBRANCH   1   8
BRANCH   6  21
ATOM     21  C   UNL     1      -1.472   3.606  -2.377  0.00  0.00    +0.019 C 
BRANCH  21  22
ATOM     22  C   UNL     1      -2.874   3.090  -2.569  0.00  0.00    +0.204 C 
ATOM     23  O   UNL     1      -3.394   2.410  -1.709  0.00  0.00    -0.277 OA
ATOM     24  N   UNL     1      -3.552   3.382  -3.697  0.00  0.00    -0.262 N 
ATOM     25  C   UNL     1      -2.945   4.203  -4.755  0.00  0.00    +0.209 C 
ATOM     26  C   UNL     1      -3.974   5.176  -5.273  0.00  0.00    +0.235 C 
ATOM     27  O   UNL     1      -3.615   6.244  -5.722  0.00  0.00    -0.274 OA
ATOM     28  N   UNL     1      -5.285   4.873  -5.244  0.00  0.00    -0.283 N 
ATOM     29  C   UNL     1      -5.729   3.670  -4.686  0.00  0.00    +0.055 A 
ATOM     30  C   UNL     1      -4.857   2.908  -3.902  0.00  0.00    +0.058 A 
ATOM     31  C   UNL     1      -5.280   1.716  -3.342  0.00  0.00    +0.025 A 
ATOM     32  C   UNL     1      -6.571   1.273  -3.566  0.00  0.00    +0.002 A 
ATOM     33  C   UNL     1      -7.436   2.017  -4.347  0.00  0.00    +0.002 A 
ATOM     34  C   UNL     1      -7.022   3.221  -4.904  0.00  0.00    +0.025 A 
ATOM     35  H   UNL     1      -5.930   5.497  -5.613  0.00  0.00    +0.155 HD
ENDBRANCH  21  22
ENDBRANCH   6  21
TORSDOF 4
