REMARK  Name = ZINC35590110
REMARK  4 active torsions:
REMARK  status: ('A' for Active; 'I' for Inactive)
REMARK    1  A    between atoms: C_11  and  C_13
REMARK    2  A    between atoms: C_13  and  S_14
REMARK    3  A    between atoms: S_14  and  C_15
REMARK    4  A    between atoms: N_23  and  C_24
REMARK                            x       y       z     vdW  Elec       q    Type
REMARK                         _______ _______ _______ _____ _____    ______ ____
ROOT
ATOM      1  C   UNL     1       6.119   3.744  -1.636  0.00  0.00    +0.160 A 
ATOM      2  N   UNL     1       5.009   4.458  -1.642  0.00  0.00    -0.133 NA
ATOM      3  N   UNL     1       5.046   5.778  -2.030  0.00  0.00    -0.125 NA
ATOM      4  C   UNL     1       6.190   6.323  -2.393  0.00  0.00    +0.190 A 
ATOM      5  S   UNL     1       7.315   4.950  -2.192  0.00  0.00    -0.024 S 
ATOM      6  N   UNL     1       6.453   7.624  -2.816  0.00  0.00    -0.247 N 
ATOM      7  C   UNL     1       5.451   8.522  -2.894  0.00  0.00    +0.310 C 
ATOM      8  O   UNL     1       4.318   8.197  -2.596  0.00  0.00    -0.252 OA
ATOM      9  N   UNL     1       5.705   9.781  -3.304  0.00  0.00    -0.263 N 
ATOM     10  H   UNL     1       7.356   7.884  -3.054  0.00  0.00    +0.158 HD
ATOM     11  H   UNL     1       6.608  10.040  -3.542  0.00  0.00    +0.157 HD
ENDROOT
BRANCH   9  12
ATOM     12  C   UNL     1       4.665  10.712  -3.385  0.00  0.00    +0.073 A 
ATOM     13  C   UNL     1       4.711  12.017  -3.775  0.00  0.00    +0.031 A 
ATOM     14  C   UNL     1       3.540  12.753  -3.775  0.00  0.00    +0.009 A 
ATOM     15  C   UNL     1       2.387  12.157  -3.388  0.00  0.00    +0.047 A 
ATOM     16  S   UNL     1       2.933  10.500  -3.011  0.00  0.00    -0.082 S 
ENDBRANCH   9  12
BRANCH   1  17
ATOM     17  S   UNL     1       6.360   2.057  -1.191  0.00  0.00    -0.088 S 
BRANCH  17  18
ATOM     18  C   UNL     1       4.700   1.482  -0.737  0.00  0.00    +0.172 C 
BRANCH  18  29
ATOM     19  C   UNL     1       3.778  -4.738   0.695  0.00  0.00    +0.000 A 
ATOM     20  C   UNL     1       4.870  -4.093   0.142  0.00  0.00    +0.002 A 
ATOM     21  C   UNL     1       4.815  -2.736  -0.106  0.00  0.00    +0.024 A 
ATOM     22  C   UNL     1       3.663  -2.019   0.199  0.00  0.00    +0.039 A 
ATOM     23  C   UNL     1       2.568  -2.666   0.749  0.00  0.00    -0.026 A 
ATOM     24  C   UNL     1       2.632  -4.028   0.997  0.00  0.00    +0.005 A 
ATOM     25  C   UNL     1       1.301  -1.924   1.082  0.00  0.00    +0.038 C 
ATOM     26  C   UNL     1       1.578  -0.427   1.222  0.00  0.00    +0.024 C 
ATOM     27  C   UNL     1       2.337   0.056  -0.021  0.00  0.00    +0.114 C 
ATOM     28  N   UNL     1       3.630  -0.641  -0.057  0.00  0.00    -0.270 N 
ATOM     29  C   UNL     1       4.764   0.033  -0.330  0.00  0.00    +0.230 C 
ATOM     30  O   UNL     1       5.837  -0.527  -0.248  0.00  0.00    -0.274 OA
ENDBRANCH  18  29
ENDBRANCH  17  18
ENDBRANCH   1  17
TORSDOF 4
