REMARK  Name = ZINC16957650
REMARK  7 active torsions:
REMARK  status: ('A' for Active; 'I' for Inactive)
REMARK    1  A    between atoms: C_5  and  C_7
REMARK    2  A    between atoms: C_7  and  O_8
REMARK    3  A    between atoms: C_9  and  C_11
REMARK    4  A    between atoms: C_9  and  C_24
REMARK    5  A    between atoms: C_24  and  C_26
REMARK    6  A    between atoms: N_28  and  C_29
REMARK    7  A    between atoms: C_33  and  N_35
REMARK                            x       y       z     vdW  Elec       q    Type
REMARK                         _______ _______ _______ _____ _____    ______ ____
ROOT
ATOM      1  C   UNL     1       2.443   3.924  -0.019  0.00  0.00    +0.137 C 
ATOM      2  C   UNL     1       3.706   3.103   0.024  0.00  0.00    +0.087 C 
ENDROOT
BRANCH   2   3
ATOM      3  C   UNL     1       4.873   3.934  -0.512  0.00  0.00    +0.222 C 
ATOM      4  C   UNL     1       6.154   3.110  -0.517  0.00  0.00    +0.075 C 
ATOM      5  C   UNL     1       6.604   2.478  -1.790  0.00  0.00    -0.018 C 
ATOM      6  C   UNL     1       7.926   2.218  -1.856  0.00  0.00    -0.004 C 
ATOM      7  C   UNL     1       8.797   2.544  -0.708  0.00  0.00    -0.004 C 
ATOM      8  C   UNL     1       8.463   3.554   0.122  0.00  0.00    -0.012 C 
ATOM      9  C   UNL     1       7.187   4.244  -0.218  0.00  0.00    +0.131 C 
ATOM     10  C   UNL     1       6.443   4.993   0.845  0.00  0.00    +0.315 C 
ATOM     11  O   UNL     1       6.884   5.440   1.877  0.00  0.00    -0.250 OA
ATOM     12  O   UNL     1       5.158   5.060   0.391  0.00  0.00    -0.455 OA
ENDBRANCH   2   3
BRANCH   1  17
ATOM     13  C   UNL     1       1.061   2.977  -3.373  0.00  0.00    +0.001 A 
ATOM     14  C   UNL     1      -0.148   3.652  -3.367  0.00  0.00    +0.003 A 
ATOM     15  C   UNL     1      -0.521   4.407  -2.272  0.00  0.00    +0.039 A 
ATOM     16  C   UNL     1       0.317   4.504  -1.176  0.00  0.00    +0.134 A 
ATOM     17  C   UNL     1       1.544   3.829  -1.179  0.00  0.00    +0.052 A 
ATOM     18  C   UNL     1       1.909   3.062  -2.291  0.00  0.00    +0.014 A 
ATOM     19  F   UNL     1      -0.046   5.247  -0.108  0.00  0.00    -0.205 F 
ENDBRANCH   1  17
BRANCH   1  20
ATOM     20  O   UNL     1       2.168   4.663   0.902  0.00  0.00    -0.506 OA
ATOM     21  H   UNL     1       2.882   4.605   1.600  0.00  0.00    +0.292 HD
ENDBRANCH   1  20
BRANCH   2  22
ATOM     22  C   UNL     1       3.398   1.737   0.582  0.00  0.00    +0.251 C 
ATOM     23  O   UNL     1       3.387   1.561   1.777  0.00  0.00    -0.282 OA
BRANCH  22  24
ATOM     24  C   UNL     1       3.108   0.604  -0.341  0.00  0.00    +0.289 C 
ATOM     25  O   UNL     1       3.029   0.800  -1.536  0.00  0.00    -0.266 OA
ATOM     26  N   UNL     1       2.933  -0.638   0.152  0.00  0.00    -0.279 N 
ATOM     27  H   UNL     1       2.914  -0.781   1.111  0.00  0.00    +0.155 HD
BRANCH  26  28
ATOM     28  C   UNL     1       2.778  -1.719  -0.719  0.00  0.00    +0.036 A 
ATOM     29  C   UNL     1       3.462  -1.743  -1.929  0.00  0.00    +0.023 A 
ATOM     30  C   UNL     1       3.307  -2.813  -2.787  0.00  0.00    +0.004 A 
ATOM     31  C   UNL     1       2.473  -3.861  -2.444  0.00  0.00    +0.033 A 
ATOM     32  C   UNL     1       1.790  -3.841  -1.241  0.00  0.00    +0.128 A 
ATOM     33  C   UNL     1       1.945  -2.776  -0.376  0.00  0.00    +0.056 A 
BRANCH  32  34
ATOM     34  N   UNL     1       0.898  -4.965  -0.879  0.00  0.00    +0.056 N 
ATOM     35  O   UNL     1       0.765  -5.907  -1.639  0.00  0.00    -0.126 OA
ATOM     36  O   UNL     1       0.297  -4.948   0.180  0.00  0.00    -0.126 OA
ENDBRANCH  32  34
ENDBRANCH  26  28
ENDBRANCH  22  24
ENDBRANCH   2  22
TORSDOF 7
