REMARK  Name = ZINC40732911
REMARK  10 active torsions:
REMARK  status: ('A' for Active; 'I' for Inactive)
REMARK    1  A    between atoms: C_1  and  C_2
REMARK    2  A    between atoms: C_5  and  N_8
REMARK    3  A    between atoms: C_9  and  C_11
REMARK    4  A    between atoms: C_11  and  O_12
REMARK    5  A    between atoms: O_12  and  C_13
REMARK    6  A    between atoms: C_18  and  C_19
REMARK    7  A    between atoms: C_19  and  N_20
REMARK    8  A    between atoms: N_20  and  C_21
REMARK    9  A    between atoms: C_21  and  C_22
REMARK   10  A    between atoms: C_22  and  C_23
REMARK                            x       y       z     vdW  Elec       q    Type
REMARK                         _______ _______ _______ _____ _____    ______ ____
ROOT
ATOM      1  C   UNL     1       0.545  -8.176   2.625  0.00  0.00    +0.123 A 
ATOM      2  C   UNL     1       0.572  -9.011   1.517  0.00  0.00    +0.046 A 
ATOM      3  C   UNL     1       0.702 -10.376   1.686  0.00  0.00    +0.004 A 
ATOM      4  C   UNL     1       0.806 -10.910   2.957  0.00  0.00    +0.000 A 
ATOM      5  C   UNL     1       0.779 -10.080   4.062  0.00  0.00    +0.005 A 
ATOM      6  C   UNL     1       0.655  -8.713   3.899  0.00  0.00    -0.023 A 
ENDROOT
BRANCH   1   7
ATOM      7  O   UNL     1       0.417  -6.833   2.462  0.00  0.00    -0.483 OA
BRANCH   7   8
ATOM      8  C   UNL     1       0.309  -6.349   1.121  0.00  0.00    +0.324 C 
BRANCH   8  10
ATOM      9  N   UNL     1       0.059  -4.170  -0.021  0.00  0.00    -0.283 N 
ATOM     10  C   UNL     1       0.175  -4.848   1.138  0.00  0.00    +0.255 C 
ATOM     11  O   UNL     1       0.173  -4.251   2.193  0.00  0.00    -0.272 OA
ATOM     12  H   UNL     1      -0.017  -4.651  -0.860  0.00  0.00    +0.155 HD
BRANCH   9  17
ATOM     13  C   UNL     1       0.008   1.503   0.007  0.00  0.00    +0.044 C 
ATOM     14  C   UNL     1       0.022  -0.004  -0.001  0.00  0.00    -0.050 A 
ATOM     15  C   UNL     1       0.777  -0.692   0.931  0.00  0.00    +0.005 A 
ATOM     16  C   UNL     1       0.791  -2.073   0.927  0.00  0.00    +0.023 A 
ATOM     17  C   UNL     1       0.046  -2.771  -0.014  0.00  0.00    +0.034 A 
ATOM     18  C   UNL     1      -0.712  -2.077  -0.948  0.00  0.00    +0.023 A 
ATOM     19  C   UNL     1      -0.726  -0.696  -0.936  0.00  0.00    +0.005 A 
ENDBRANCH   9  17
ENDBRANCH   8  10
ENDBRANCH   7   8
ENDBRANCH   1   7
BRANCH   6  20
ATOM     20  C   UNL     1       0.632  -7.809   5.104  0.00  0.00    -0.043 C 
BRANCH  20  21
ATOM     21  N   UNL     1      -0.757  -7.445   5.417  0.00  0.00    +0.382 N 
ATOM     22  H   UNL     1      -1.165  -6.966   4.629  0.00  0.00    -0.085 HD
ATOM     23  H   UNL     1      -1.287  -8.281   5.614  0.00  0.00    -0.085 HD
BRANCH  21  24
ATOM     24  C   UNL     1      -0.779  -6.563   6.592  0.00  0.00    -0.078 C 
BRANCH  24  25
ATOM     25  C   UNL     1      -2.225  -6.185   6.918  0.00  0.00    +0.011 C 
BRANCH  25  26
ATOM     26  C   UNL     1      -2.248  -5.280   8.123  0.00  0.00    -0.075 C 
ATOM     27  C   UNL     1      -2.278  -4.002   7.921  0.00  0.00    -0.028 C 
ATOM     28  C   UNL     1      -2.293  -2.978   9.018  0.00  0.00    +0.027 C 
ATOM     29  C   UNL     1      -2.693  -3.631  10.343  0.00  0.00    +0.004 C 
ATOM     30  C   UNL     1      -1.838  -4.888  10.542  0.00  0.00    +0.005 C 
ATOM     31  C   UNL     1      -2.242  -5.917   9.481  0.00  0.00    +0.030 C 
ENDBRANCH  25  26
ENDBRANCH  24  25
ENDBRANCH  21  24
ENDBRANCH  20  21
ENDBRANCH   6  20
TORSDOF 9
