REMARK  Name = ZINC02256708
REMARK  7 active torsions:
REMARK  status: ('A' for Active; 'I' for Inactive)
REMARK    1  A    between atoms: C_1  and  O_2
REMARK    2  A    between atoms: O_2  and  C_3
REMARK    3  A    between atoms: C_8  and  C_9
REMARK    4  A    between atoms: C_10  and  C_11
REMARK    5  A    between atoms: N_13  and  C_14
REMARK    6  A    between atoms: C_17  and  C_31
REMARK    7  A    between atoms: C_20  and  C_24
REMARK                            x       y       z     vdW  Elec       q    Type
REMARK                         _______ _______ _______ _____ _____    ______ ____
ROOT
ATOM      1  C   UNL     1      -0.970  -7.024  -1.847  0.00  0.00    +0.241 C 
ATOM      2  N   UNL     1      -1.591  -6.556  -2.899  0.00  0.00    -0.140 NA
ATOM      3  N   UNL     1      -2.028  -7.637  -3.667  0.00  0.00    -0.180 N 
ATOM      4  C   UNL     1      -2.768  -7.738  -4.932  0.00  0.00    +0.156 C 
ATOM      5  C   UNL     1      -3.049  -9.140  -5.440  0.00  0.00    +0.030 C 
ATOM      6  C   UNL     1      -2.601 -10.169  -4.695  0.00  0.00    +0.073 C 
ATOM      7  N   UNL     1      -1.925  -9.967  -3.537  0.00  0.00    -0.217 NA
ATOM      8  C   UNL     1      -1.645  -8.785  -3.037  0.00  0.00    +0.211 C 
ATOM      9  N   UNL     1      -0.978  -8.405  -1.900  0.00  0.00    -0.254 N 
ATOM     10  H   UNL     1      -0.582  -9.003  -1.246  0.00  0.00    +0.158 HD
ENDROOT
BRANCH   6  11
ATOM     11  C   UNL     1      -2.853 -11.558  -5.153  0.00  0.00    +0.000 A 
ATOM     12  C   UNL     1      -3.541 -11.787  -6.343  0.00  0.00    +0.011 A 
ATOM     13  C   UNL     1      -3.773 -13.081  -6.765  0.00  0.00    +0.020 A 
ATOM     14  C   UNL     1      -3.323 -14.149  -6.008  0.00  0.00    +0.041 A 
ATOM     15  C   UNL     1      -2.639 -13.926  -4.825  0.00  0.00    +0.020 A 
ATOM     16  C   UNL     1      -2.398 -12.637  -4.398  0.00  0.00    +0.011 A 
ATOM     17 CL   UNL     1      -3.618 -15.774  -6.544  0.00  0.00    -0.084 Cl
ENDBRANCH   6  11
BRANCH   4  18
ATOM     18  C   UNL     1      -1.985  -7.007  -5.992  0.00  0.00    -0.021 A 
ATOM     19  C   UNL     1      -0.607  -7.113  -6.030  0.00  0.00    +0.007 A 
ATOM     20  C   UNL     1       0.112  -6.443  -7.001  0.00  0.00    +0.020 A 
ATOM     21  C   UNL     1      -0.548  -5.665  -7.936  0.00  0.00    +0.041 A 
ATOM     22  C   UNL     1      -1.927  -5.558  -7.897  0.00  0.00    +0.020 A 
ATOM     23  C   UNL     1      -2.645  -6.234  -6.929  0.00  0.00    +0.007 A 
ATOM     24 CL   UNL     1       0.355  -4.822  -9.156  0.00  0.00    -0.084 Cl
ENDBRANCH   4  18
BRANCH   1  27
ATOM     25  C   UNL     1      -0.461  -4.960  -0.925  0.00  0.00    +0.273 C 
ATOM     26  O   UNL     1      -1.084  -4.356  -1.964  0.00  0.00    -0.266 OA
ATOM     27  N   UNL     1      -0.404  -6.275  -0.866  0.00  0.00    -0.174 NA
BRANCH  25  29
ATOM     28  C   UNL     1       0.071  -2.830   0.037  0.00  0.00    +0.017 C 
ATOM     29  C   UNL     1       0.130  -4.178   0.098  0.00  0.00    +0.073 C 
BRANCH  28  35
ATOM     30  C   UNL     1       0.625  -0.618   1.040  0.00  0.00    +0.127 A 
ATOM     31  C   UNL     1       1.201   0.136   2.050  0.00  0.00    +0.046 A 
ATOM     32  C   UNL     1       1.835  -0.489   3.106  0.00  0.00    +0.004 A 
ATOM     33  C   UNL     1       1.900  -1.872   3.167  0.00  0.00    +0.001 A 
ATOM     34  C   UNL     1       1.333  -2.639   2.172  0.00  0.00    +0.011 A 
ATOM     35  C   UNL     1       0.683  -2.019   1.099  0.00  0.00    +0.017 A 
BRANCH  30  37
ATOM     36  C   UNL     1      -0.017   1.425   0.010  0.00  0.00    +0.277 C 
ATOM     37  O   UNL     1       0.002  -0.004   0.002  0.00  0.00    -0.495 OA
ENDBRANCH  30  37
ENDBRANCH  28  35
ENDBRANCH  25  29
ENDBRANCH   1  27
TORSDOF 6
