REMARK  Name = ZINC21234460
REMARK  10 active torsions:
REMARK  status: ('A' for Active; 'I' for Inactive)
REMARK    1  A    between atoms: C_1  and  C_2
REMARK    2  A    between atoms: C_2  and  C_3
REMARK    3  A    between atoms: C_2  and  O_4
REMARK    4  A    between atoms: O_4  and  C_5
REMARK    5  A    between atoms: C_8  and  C_11
REMARK    6  A    between atoms: C_16  and  C_22
REMARK    7  A    between atoms: C_24  and  O_31
REMARK    8  A    between atoms: C_27  and  O_28
REMARK    9  A    between atoms: O_28  and  C_29
REMARK   10  A    between atoms: O_31  and  C_32
REMARK                            x       y       z     vdW  Elec       q    Type
REMARK                         _______ _______ _______ _____ _____    ______ ____
ROOT
ATOM      1  C   UNL     1       2.490   1.045  -0.010  0.00  0.00    +0.032 C 
ATOM      2  C   UNL     1       3.395   1.630  -1.096  0.00  0.00    +0.059 C 
ATOM      3  C   UNL     1       4.728   0.925  -1.078  0.00  0.00    +0.018 C 
ATOM      4  C   UNL     1       5.233   0.429   0.071  0.00  0.00    +0.020 C 
ATOM      5  C   UNL     1       6.576  -0.263   0.067  0.00  0.00    +0.066 C 
ATOM      6  C   UNL     1       6.748  -1.030  -1.245  0.00  0.00    +0.109 C 
ATOM      7  C   UNL     1       6.390  -0.125  -2.396  0.00  0.00    +0.218 C 
ATOM      8  O   UNL     1       6.975  -0.230  -3.452  0.00  0.00    -0.275 OA
ATOM      9  N   UNL     1       5.423   0.799  -2.254  0.00  0.00    -0.289 N 
ATOM     10  C   UNL     1       4.534   0.541   1.285  0.00  0.00    +0.162 C 
ATOM     11  O   UNL     1       5.026   0.093   2.302  0.00  0.00    -0.292 OA
ATOM     12  C   UNL     1       3.186   1.207   1.346  0.00  0.00    +0.088 C 
ATOM     13  H   UNL     1       5.194   1.460  -3.102  0.00  0.00    +0.155 HD
ENDROOT
BRANCH   5  14
ATOM     14  C   UNL     1       7.671   0.764   0.197  0.00  0.00    +0.006 A 
ATOM     15  C   UNL     1       7.807   1.753  -0.759  0.00  0.00    +0.054 A 
ATOM     16  C   UNL     1       8.812   2.701  -0.637  0.00  0.00    +0.134 A 
ATOM     17  C   UNL     1       9.687   2.651   0.439  0.00  0.00    +0.063 A 
ATOM     18  C   UNL     1       9.553   1.659   1.392  0.00  0.00    +0.064 A 
ATOM     19  C   UNL     1       8.545   0.714   1.272  0.00  0.00    +0.125 A 
ATOM     20 BR   UNL     1      11.061   3.939   0.601  0.00  0.00    -0.046 Br
BRANCH  19  21
ATOM     21  O   UNL     1       8.414  -0.262   2.210  0.00  0.00    -0.495 OA
ATOM     22  C   UNL     1       9.349  -0.254   3.290  0.00  0.00    +0.277 C 
ENDBRANCH  19  21
BRANCH  16  23
ATOM     23  O   UNL     1       8.943   3.677  -1.575  0.00  0.00    -0.494 OA
ATOM     24  C   UNL     1       8.008   3.668  -2.656  0.00  0.00    +0.277 C 
ENDBRANCH  16  23
ENDBRANCH   5  14
BRANCH   1  28
ATOM     25  C   UNL     1      -1.237   3.137   0.032  0.00  0.00    +0.121 A 
ATOM     26  C   UNL     1      -1.210   1.769  -0.199  0.00  0.00    +0.046 A 
ATOM     27  C   UNL     1      -0.005   1.094  -0.207  0.00  0.00    +0.007 A 
ATOM     28  C   UNL     1       1.176   1.783   0.005  0.00  0.00    -0.043 A 
ATOM     29  C   UNL     1       1.152   3.147   0.231  0.00  0.00    +0.007 A 
ATOM     30  C   UNL     1      -0.051   3.825   0.245  0.00  0.00    +0.046 A 
BRANCH  25  31
ATOM     31  O   UNL     1      -2.422   3.802   0.045  0.00  0.00    -0.489 OA
BRANCH  31  33
ATOM     32  C   UNL     1      -3.631   5.837  -0.441  0.00  0.00    +0.051 C 
ATOM     33  C   UNL     1      -2.365   5.225   0.163  0.00  0.00    +0.167 C 
ATOM     34  C   UNL     1      -2.268   5.611   1.641  0.00  0.00    +0.051 C 
ENDBRANCH  31  33
ENDBRANCH  25  31
ENDBRANCH   1  28
TORSDOF 6
