REMARK  Name = ZINC22242418
REMARK  8 active torsions:
REMARK  status: ('A' for Active; 'I' for Inactive)
REMARK    1  A    between atoms: C_1  and  C_2
REMARK    2  A    between atoms: C_4  and  N_11
REMARK    3  A    between atoms: C_6  and  C_8
REMARK    4  A    between atoms: C_8  and  C_9
REMARK    5  A    between atoms: C_8  and  C_10
REMARK    6  A    between atoms: N_14  and  C_17
REMARK    7  A    between atoms: C_17  and  C_18
REMARK    8  A    between atoms: C_31  and  C_33
REMARK                            x       y       z     vdW  Elec       q    Type
REMARK                         _______ _______ _______ _____ _____    ______ ____
ROOT
ATOM      1  C   UNL     1      -0.219  -0.468   2.465  0.00  0.00    +0.204 C 
ATOM      2  O   UNL     1      -0.724  -1.048   1.527  0.00  0.00    -0.277 OA
ATOM      3  N   UNL     1       0.203  -1.163   3.540  0.00  0.00    -0.259 N 
ATOM      4  C   UNL     1       0.788  -0.506   4.631  0.00  0.00    +0.058 A 
ATOM      5  C   UNL     1       0.019   0.267   5.486  0.00  0.00    +0.025 A 
ATOM      6  C   UNL     1       0.611   0.889   6.570  0.00  0.00    +0.002 A 
ATOM      7  C   UNL     1       1.966   0.742   6.805  0.00  0.00    +0.002 A 
ATOM      8  C   UNL     1       2.742  -0.021   5.951  0.00  0.00    +0.025 A 
ATOM      9  C   UNL     1       2.159  -0.638   4.857  0.00  0.00    +0.055 A 
ATOM     10  N   UNL     1       2.934  -1.368   3.948  0.00  0.00    -0.284 N 
ATOM     11  C   UNL     1       2.546  -2.600   3.552  0.00  0.00    +0.219 C 
ATOM     12  O   UNL     1       3.180  -3.187   2.701  0.00  0.00    -0.275 OA
ATOM     13  C   UNL     1       1.330  -3.248   4.159  0.00  0.00    +0.128 C 
ATOM     14  C   UNL     1       0.052  -2.619   3.592  0.00  0.00    +0.194 C 
ATOM     15  H   UNL     1       3.866  -0.939   3.551  0.00  0.00    +0.155 HD
ENDROOT
BRANCH  14  16
ATOM     16  C   UNL     1      -1.137  -2.975   4.486  0.00  0.00    +0.409 C 
ATOM     17  F   UNL     1      -2.301  -2.404   3.963  0.00  0.00    -0.169 F 
ATOM     18  F   UNL     1      -1.282  -4.366   4.537  0.00  0.00    -0.169 F 
ATOM     19  F   UNL     1      -0.914  -2.482   5.777  0.00  0.00    -0.169 F 
ENDBRANCH  14  16
BRANCH   1  20
ATOM     20  C   UNL     1      -0.062   1.031   2.429  0.00  0.00    +0.019 C 
BRANCH  20  24
ATOM     21  N   UNL     1      -0.108   3.008  -1.304  0.00  0.00    -0.319 N 
ATOM     22  C   UNL     1      -0.015   1.541  -1.303  0.00  0.00    +0.088 C 
ATOM     23  C   UNL     1       0.473   1.065   0.067  0.00  0.00    -0.059 C 
ATOM     24  N   UNL     1      -0.456   1.532   1.105  0.00  0.00    +0.387 N 
ATOM     25  C   UNL     1      -0.550   2.998   1.103  0.00  0.00    -0.059 C 
ATOM     26  C   UNL     1      -1.038   3.475  -0.267  0.00  0.00    +0.088 C 
ATOM     27  H   UNL     1      -1.453   1.128   0.875  0.00  0.00    -0.081 HD
BRANCH  21  31
ATOM     28  C   UNL     1      -1.171   6.740  -4.333  0.00  0.00    +0.066 C 
ATOM     29  C   UNL     1      -0.999   5.272  -4.039  0.00  0.00    +0.044 A 
ATOM     30  C   UNL     1      -0.632   4.851  -2.776  0.00  0.00    +0.066 A 
ATOM     31  C   UNL     1      -0.479   3.481  -2.553  0.00  0.00    +0.125 A 
ATOM     32  N   UNL     1      -0.700   2.637  -3.557  0.00  0.00    -0.217 NA
ATOM     33  C   UNL     1      -1.053   3.083  -4.745  0.00  0.00    +0.134 A 
ATOM     34  N   UNL     1      -1.201   4.370  -4.988  0.00  0.00    -0.237 NA
BRANCH  33  35
ATOM     35  C   UNL     1      -1.294   2.095  -5.856  0.00  0.00    +0.051 C 
ATOM     36  C   UNL     1      -2.736   2.226  -6.352  0.00  0.00    +0.015 C 
ATOM     37  C   UNL     1      -0.331   2.379  -7.010  0.00  0.00    +0.015 C 
ENDBRANCH  33  35
ENDBRANCH  21  31
ENDBRANCH  20  24
ENDBRANCH   1  20
TORSDOF 5
