REMARK  Name = ZINC03847256
REMARK  7 active torsions:
REMARK  status: ('A' for Active; 'I' for Inactive)
REMARK    1  A    between atoms: C_1  and  C_2
REMARK    2  A    between atoms: C_6  and  O_24
REMARK    3  A    between atoms: C_13  and  O_16
REMARK    4  A    between atoms: O_16  and  C_17
REMARK    5  A    between atoms: C_20  and  C_22
REMARK    6  A    between atoms: C_23  and  N_54
REMARK    7  A    between atoms: C_27  and  N_56
REMARK                            x       y       z     vdW  Elec       q    Type
REMARK                         _______ _______ _______ _____ _____    ______ ____
ROOT
ATOM      1  C   UNL     1       2.369   5.036  -2.080  0.00  0.00    +0.039 C 
ATOM      2  C   UNL     1       2.323   5.195  -0.559  0.00  0.00    +0.106 C 
ATOM      3  C   UNL     1       1.097   5.986  -0.180  0.00  0.00    -0.007 A 
ATOM      4  C   UNL     1       1.107   7.359  -0.084  0.00  0.00    -0.040 A 
ATOM      5  C   UNL     1      -0.072   8.019   0.240  0.00  0.00    +0.053 A 
ATOM      6  C   UNL     1      -1.254   7.330   0.481  0.00  0.00    +0.159 A 
ATOM      7  C   UNL     1      -1.267   5.943   0.418  0.00  0.00    +0.168 A 
ATOM      8  C   UNL     1      -0.078   5.297   0.088  0.00  0.00    +0.037 A 
ATOM      9  C   UNL     1      -0.046   3.802   0.028  0.00  0.00    +0.037 A 
ATOM     10  C   UNL     1      -1.251   3.112   0.015  0.00  0.00    -0.007 A 
ATOM     11  C   UNL     1      -1.236   1.736   0.017  0.00  0.00    -0.040 A 
ATOM     12  C   UNL     1      -0.013   1.076   0.008  0.00  0.00    +0.053 A 
ATOM     13  C   UNL     1       1.191   1.768   0.000  0.00  0.00    +0.162 A 
ATOM     14  C   UNL     1       1.187   3.157   0.019  0.00  0.00    +0.168 A 
ATOM     15  O   UNL     1       2.320   3.905   0.049  0.00  0.00    -0.495 OA
ATOM     16  C   UNL     1      -2.510   0.944   0.040  0.00  0.00    +0.017 C 
ATOM     17  C   UNL     1      -3.745   1.821  -0.083  0.00  0.00    -0.068 C 
ATOM     18  C   UNL     1      -2.532   3.904  -0.029  0.00  0.00    +0.106 C 
ATOM     19  O   UNL     1      -2.367   5.196   0.692  0.00  0.00    -0.495 OA
ATOM     20  C   UNL     1      -2.922   4.152  -1.488  0.00  0.00    +0.039 C 
ATOM     21  C   UNL     1      -4.851   3.841   0.657  0.00  0.00    -0.090 C 
ATOM     22  C   UNL     1       2.362   8.148  -0.318  0.00  0.00    +0.017 C 
ATOM     23  C   UNL     1       3.519   7.277  -0.777  0.00  0.00    -0.068 C 
ATOM     24  C   UNL     1       4.739   5.238  -0.385  0.00  0.00    -0.090 C 
ATOM     25  N   UNL     1      -3.572   3.097   0.633  0.00  0.00    +0.407 N 
ATOM     26  H   UNL     1      -3.281   2.903   1.598  0.00  0.00    -0.076 HD
ATOM     27  N   UNL     1       3.492   5.974  -0.098  0.00  0.00    +0.407 N 
ATOM     28  H   UNL     1       3.416   6.124   0.915  0.00  0.00    -0.076 HD
ENDROOT
BRANCH  13  29
ATOM     29  O   UNL     1       2.369   1.089  -0.026  0.00  0.00    -0.491 OA
ATOM     30  C   UNL     1       2.295  -0.338  -0.045  0.00  0.00    +0.277 C 
ENDBRANCH  13  29
BRANCH   6  31
ATOM     31  O   UNL     1      -2.393   8.011   0.778  0.00  0.00    -0.503 OA
ATOM     32  H   UNL     1      -2.922   8.249   0.004  0.00  0.00    +0.292 HD
ENDBRANCH   6  31
TORSDOF 2
