REMARK  Name = ZINC36202351
REMARK  19 active torsions:
REMARK  status: ('A' for Active; 'I' for Inactive)
REMARK    1  A    between atoms: C_1  and  C_2
REMARK    2  A    between atoms: C_2  and  C_3
REMARK    3  A    between atoms: C_2  and  N_4
REMARK    4  A    between atoms: N_4  and  C_5
REMARK    5  A    between atoms: N_4  and  C_16
REMARK    6  A    between atoms: C_5  and  C_6
REMARK    7  A    between atoms: C_10  and  O_14
REMARK    8  A    between atoms: C_11  and  O_12
REMARK    9  A    between atoms: O_12  and  C_13
REMARK   10  A    between atoms: O_14  and  C_15
REMARK   11  A    between atoms: C_16  and  C_17
REMARK   12  A    between atoms: C_20  and  C_22
REMARK   13  A    between atoms: C_22  and  C_23
REMARK   14  A    between atoms: C_22  and  C_31
REMARK   15  A    between atoms: C_22  and  O_39
REMARK   16  A    between atoms: C_26  and  O_29
REMARK   17  A    between atoms: O_29  and  C_30
REMARK   18  A    between atoms: C_34  and  O_37
REMARK   19  A    between atoms: O_37  and  C_38
REMARK                            x       y       z     vdW  Elec       q    Type
REMARK                         _______ _______ _______ _____ _____    ______ ____
ROOT
ATOM      1  C   UNL     1      -3.749   2.421  -0.393  0.00  0.00    +0.089 A 
ATOM      2  C   UNL     1      -3.504   3.743  -0.413  0.00  0.00    +0.043 A 
ATOM      3  C   UNL     1      -4.570   4.368   0.275  0.00  0.00    +0.048 A 
ATOM      4  C   UNL     1      -5.402   3.390   0.675  0.00  0.00    +0.146 A 
ATOM      5  O   UNL     1      -4.903   2.213   0.262  0.00  0.00    -0.463 OA
ENDROOT
BRANCH   1   6
ATOM      6  C   UNL     1      -2.880   1.354  -1.007  0.00  0.00    -0.002 C 
BRANCH   6   7
ATOM      7  N   UNL     1      -1.987   0.799   0.020  0.00  0.00    +0.389 N 
ATOM      8  H   UNL     1      -2.533   0.501   0.815  0.00  0.00    -0.080 HD
BRANCH   7  10
ATOM      9  C   UNL     1      -0.241   1.324   1.654  0.00  0.00    -0.013 C 
ATOM     10  C   UNL     1      -1.027   1.827   0.442  0.00  0.00    -0.074 C 
ATOM     11  C   UNL     1      -0.060   2.124  -0.706  0.00  0.00    -0.013 C 
ENDBRANCH   7  10
BRANCH   7  12
ATOM     12  C   UNL     1      -1.261  -0.352  -0.534  0.00  0.00    -0.038 C 
BRANCH  12  13
ATOM     13  C   UNL     1      -0.560  -1.086   0.580  0.00  0.00    -0.019 A 
ATOM     14  C   UNL     1       0.789  -1.373   0.479  0.00  0.00    +0.005 A 
ATOM     15  C   UNL     1       1.434  -2.046   1.499  0.00  0.00    +0.004 A 
ATOM     16  C   UNL     1       0.733  -2.438   2.625  0.00  0.00    +0.049 A 
ATOM     17  C   UNL     1      -0.619  -2.154   2.733  0.00  0.00    +0.162 A 
ATOM     18  C   UNL     1      -1.267  -1.470   1.708  0.00  0.00    +0.163 A 
BRANCH  18  19
ATOM     19  O   UNL     1      -2.592  -1.184   1.812  0.00  0.00    -0.491 OA
ATOM     20  C   UNL     1      -3.508  -2.159   1.307  0.00  0.00    +0.277 C 
ENDBRANCH  18  19
BRANCH  17  21
ATOM     21  O   UNL     1      -1.309  -2.538   3.840  0.00  0.00    -0.491 OA
ATOM     22  C   UNL     1      -0.577  -3.231   4.853  0.00  0.00    +0.277 C 
ENDBRANCH  17  21
ENDBRANCH  12  13
ENDBRANCH   7  12
ENDBRANCH   6   7
ENDBRANCH   1   6
BRANCH   4  23
ATOM     23  C   UNL     1      -6.681   3.582   1.448  0.00  0.00    +0.174 C 
BRANCH  23  24
ATOM     24  C   UNL     1      -7.654   2.488   1.091  0.00  0.00    -0.004 A 
ATOM     25  C   UNL     1      -8.815   2.793   0.407  0.00  0.00    +0.011 A 
ATOM     26  C   UNL     1      -9.709   1.792   0.079  0.00  0.00    +0.046 A 
ATOM     27  C   UNL     1      -9.439   0.479   0.437  0.00  0.00    +0.120 A 
ATOM     28  C   UNL     1      -8.273   0.175   1.123  0.00  0.00    +0.046 A 
ATOM     29  C   UNL     1      -7.380   1.179   1.444  0.00  0.00    +0.011 A 
BRANCH  27  30
ATOM     30  O   UNL     1     -10.317  -0.508   0.116  0.00  0.00    -0.495 OA
ATOM     31  C   UNL     1      -9.974  -1.836   0.515  0.00  0.00    +0.277 C 
ENDBRANCH  27  30
ENDBRANCH  23  24
BRANCH  23  32
ATOM     32  C   UNL     1      -6.387   3.530   2.926  0.00  0.00    -0.004 A 
ATOM     33  C   UNL     1      -5.412   2.675   3.406  0.00  0.00    +0.011 A 
ATOM     34  C   UNL     1      -5.141   2.626   4.759  0.00  0.00    +0.046 A 
ATOM     35  C   UNL     1      -5.847   3.436   5.637  0.00  0.00    +0.120 A 
ATOM     36  C   UNL     1      -6.824   4.293   5.153  0.00  0.00    +0.046 A 
ATOM     37  C   UNL     1      -7.088   4.343   3.798  0.00  0.00    +0.011 A 
BRANCH  35  38
ATOM     38  O   UNL     1      -5.582   3.388   6.969  0.00  0.00    -0.495 OA
ATOM     39  C   UNL     1      -6.348   4.250   7.814  0.00  0.00    +0.277 C 
ENDBRANCH  35  38
ENDBRANCH  23  32
BRANCH  23  40
ATOM     40  O   UNL     1      -7.250   4.851   1.120  0.00  0.00    -0.372 OA
ATOM     41  H   UNL     1      -6.678   5.603   1.324  0.00  0.00    +0.212 HD
ENDBRANCH  23  40
ENDBRANCH   4  23
TORSDOF 13
