REMARK  Name = ZINC20531492
REMARK  7 active torsions:
REMARK  status: ('A' for Active; 'I' for Inactive)
REMARK    1  A    between atoms: C_1  and  S_2
REMARK    2  A    between atoms: S_2  and  C_5
REMARK    3  A    between atoms: C_5  and  C_6
REMARK    4  A    between atoms: C_6  and  C_7
REMARK    5  A    between atoms: C_7  and  C_9
REMARK    6  A    between atoms: C_7  and  N_19
REMARK    7  A    between atoms: N_11  and  C_12
REMARK                            x       y       z     vdW  Elec       q    Type
REMARK                         _______ _______ _______ _____ _____    ______ ____
ROOT
ATOM      1  C   UNL     1      -1.130   2.417  -0.046  0.00  0.00    +0.164 C 
ENDROOT
BRANCH   1   2
ATOM      2  N   UNL     1       0.162   1.733  -0.145  0.00  0.00    -0.282 N 
ATOM      3  C   UNL     1       0.361   0.279  -0.148  0.00  0.00    +0.144 C 
ATOM      4  C   UNL     1       1.847   0.057  -0.274  0.00  0.00    -0.018 A 
ATOM      5  C   UNL     1       2.630  -1.073  -0.331  0.00  0.00    +0.006 A 
ATOM      6  C   UNL     1       4.005  -0.956  -0.451  0.00  0.00    +0.000 A 
ATOM      7  C   UNL     1       4.594   0.294  -0.514  0.00  0.00    +0.001 A 
ATOM      8  C   UNL     1       3.819   1.433  -0.458  0.00  0.00    +0.013 A 
ATOM      9  C   UNL     1       2.432   1.324  -0.337  0.00  0.00    +0.042 A 
ATOM     10  C   UNL     1       1.359   2.334  -0.254  0.00  0.00    +0.248 C 
ATOM     11  O   UNL     1       1.533   3.536  -0.282  0.00  0.00    -0.270 OA
ENDBRANCH   1   2
BRANCH   1  12
ATOM     12  C   UNL     1      -1.143   3.291   1.182  0.00  0.00    +0.238 C 
ATOM     13  O   UNL     1      -0.169   3.338   1.903  0.00  0.00    -0.273 OA
ATOM     14  N   UNL     1      -2.236   4.021   1.479  0.00  0.00    -0.284 N 
ATOM     15  H   UNL     1      -3.086   4.046   0.781  0.00  0.00    +0.155 HD
BRANCH  14  16
ATOM     16  C   UNL     1      -2.291   4.746   2.675  0.00  0.00    +0.034 A 
ATOM     17  C   UNL     1      -1.667   4.255   3.814  0.00  0.00    +0.024 A 
ATOM     18  C   UNL     1      -1.718   4.975   4.992  0.00  0.00    +0.017 A 
ATOM     19  C   UNL     1      -2.398   6.179   5.039  0.00  0.00    +0.018 A 
ATOM     20  C   UNL     1      -3.025   6.667   3.907  0.00  0.00    +0.017 A 
ATOM     21  C   UNL     1      -2.973   5.954   2.725  0.00  0.00    +0.024 A 
ATOM     22 BR   UNL     1      -2.471   7.159   6.655  0.00  0.00    -0.050 Br
ENDBRANCH  14  16
ENDBRANCH   1  12
BRANCH   1  23
ATOM     23  C   UNL     1      -1.346   3.282  -1.289  0.00  0.00    +0.054 C 
BRANCH  23  24
ATOM     24  C   UNL     1      -1.458   2.383  -2.522  0.00  0.00    +0.168 C 
BRANCH  24  26
ATOM     25  C   UNL     1      -1.820   2.178  -5.326  0.00  0.00    +0.194 C 
ATOM     26  S   UNL     1      -1.714   3.408  -3.997  0.00  0.00    -0.034 S 
ATOM     27  O   UNL     1      -2.975   4.054  -3.881  0.00  0.00    -0.175 OA
ATOM     28  O   UNL     1      -0.550   4.196  -4.205  0.00  0.00    -0.175 OA
ENDBRANCH  24  26
ENDBRANCH  23  24
ENDBRANCH   1  23
TORSDOF 6
