REMARK  Name = ZINC35632469
REMARK  5 active torsions:
REMARK  status: ('A' for Active; 'I' for Inactive)
REMARK    1  A    between atoms: C_1  and  C_2
REMARK    2  A    between atoms: C_2  and  C_4
REMARK    3  A    between atoms: C_2  and  O_20
REMARK    4  A    between atoms: C_7  and  O_11
REMARK    5  A    between atoms: O_11  and  C_12
REMARK                            x       y       z     vdW  Elec       q    Type
REMARK                         _______ _______ _______ _____ _____    ______ ____
ROOT
ATOM      1  C   UNL     1      -1.412  -0.526  -0.025  0.00  0.00    -0.016 A 
ATOM      2  C   UNL     1      -2.104  -0.588   1.171  0.00  0.00    +0.010 A 
ATOM      3  C   UNL     1      -3.400  -1.066   1.197  0.00  0.00    +0.049 A 
ATOM      4  C   UNL     1      -4.009  -1.484   0.023  0.00  0.00    +0.164 A 
ATOM      5  C   UNL     1      -3.312  -1.420  -1.178  0.00  0.00    +0.166 A 
ATOM      6  C   UNL     1      -2.017  -0.935  -1.198  0.00  0.00    +0.048 A 
ATOM      7  F   UNL     1      -3.901  -1.826  -2.324  0.00  0.00    -0.202 F 
ENDROOT
BRANCH   1   9
ATOM      8  C   UNL     1      -0.019   1.526  -0.017  0.00  0.00    +0.043 C 
ATOM      9  C   UNL     1       0.001  -0.004  -0.049  0.00  0.00    +0.142 C 
BRANCH   9  10
ATOM     10  O   UNL     1       0.710  -0.495   1.091  0.00  0.00    -0.387 OA
ATOM     11  H   UNL     1       1.629  -0.198   1.140  0.00  0.00    +0.210 HD
ENDBRANCH   9  10
ENDBRANCH   1   9
BRANCH   4  12
ATOM     12  O   UNL     1      -5.284  -1.955   0.046  0.00  0.00    -0.452 OA
BRANCH  12  13
ATOM     13  C   UNL     1      -5.466  -3.302   0.047  0.00  0.00    +0.147 A 
ATOM     14  C   UNL     1      -4.373  -4.151   0.141  0.00  0.00    +0.049 A 
ATOM     15  C   UNL     1      -4.561  -5.519   0.142  0.00  0.00    +0.019 A 
ATOM     16  C   UNL     1      -5.838  -6.044   0.049  0.00  0.00    +0.019 A 
ATOM     17  C   UNL     1      -6.930  -5.200  -0.045  0.00  0.00    +0.039 A 
ATOM     18  C   UNL     1      -6.747  -3.830  -0.041  0.00  0.00    +0.084 A 
ATOM     19 CL   UNL     1      -8.118  -2.770  -0.151  0.00  0.00    -0.080 Cl
ATOM     20 BR   UNL     1      -6.091  -7.918   0.050  0.00  0.00    -0.050 Br
ENDBRANCH  12  13
ENDBRANCH   4  12
TORSDOF 4
