REMARK  Name = ZINC03233979
REMARK  9 active torsions:
REMARK  status: ('A' for Active; 'I' for Inactive)
REMARK    1  A    between atoms: C_6  and  C_7
REMARK    2  A    between atoms: N_9  and  C_10
REMARK    3  A    between atoms: C_10  and  C_12
REMARK    4  A    between atoms: C_10  and  C_16
REMARK    5  A    between atoms: C_12  and  C_13
REMARK    6  A    between atoms: C_16  and  O_18
REMARK    7  A    between atoms: O_18  and  C_19
REMARK    8  A    between atoms: C_19  and  C_20
REMARK    9  A    between atoms: N_22  and  C_23
REMARK                            x       y       z     vdW  Elec       q    Type
REMARK                         _______ _______ _______ _____ _____    ______ ____
ROOT
ATOM      1  C   UNL     1       4.672  -4.478   0.483  0.00  0.00    +0.329 C 
ATOM      2  O   UNL     1       5.230  -3.711  -0.265  0.00  0.00    -0.249 OA
ENDROOT
BRANCH   1   3
ATOM      3  C   UNL     1       3.682  -3.958   1.494  0.00  0.00    +0.191 C 
BRANCH   3   6
ATOM      4  C   UNL     1       2.482  -1.865   1.831  0.00  0.00    +0.245 C 
ATOM      5  O   UNL     1       1.545  -2.504   2.269  0.00  0.00    -0.270 OA
ATOM      6  N   UNL     1       3.576  -2.502   1.369  0.00  0.00    -0.298 N 
ATOM      7  H   UNL     1       4.388  -1.929   0.898  0.00  0.00    +0.150 HD
BRANCH   4  13
ATOM      8  C   UNL     1       1.288   0.275   2.281  0.00  0.00    +0.014 A 
ATOM      9  C   UNL     1       1.237   1.653   2.253  0.00  0.00    +0.021 A 
ATOM     10  C   UNL     1       2.305   2.378   1.752  0.00  0.00    +0.041 A 
ATOM     11  C   UNL     1       3.431   1.726   1.277  0.00  0.00    +0.021 A 
ATOM     12  C   UNL     1       3.494   0.349   1.300  0.00  0.00    +0.014 A 
ATOM     13  C   UNL     1       2.420  -0.388   1.804  0.00  0.00    +0.037 A 
ATOM     14 CL   UNL     1       2.233   4.113   1.720  0.00  0.00    -0.084 Cl
ENDBRANCH   4  13
ENDBRANCH   3   6
BRANCH   3  15
ATOM     15  C   UNL     1       4.159  -4.315   2.904  0.00  0.00    +0.129 C 
BRANCH  15  16
ATOM     16  C   UNL     1       5.501  -3.679   3.157  0.00  0.00    +0.213 C 
ATOM     17  O   UNL     1       5.983  -2.931   2.333  0.00  0.00    -0.276 OA
ATOM     18  N   UNL     1       6.167  -3.942   4.299  0.00  0.00    -0.329 N 
ATOM     19  H   UNL     1       7.147  -3.478   4.484  0.00  0.00    +0.145 HD
ATOM     20  H   UNL     1       5.730  -4.620   5.047  0.00  0.00    +0.145 HD
ENDBRANCH  15  16
ENDBRANCH   3  15
ENDBRANCH   1   3
BRANCH   1  21
ATOM     21  O   UNL     1       4.932  -5.793   0.414  0.00  0.00    -0.454 OA
BRANCH  21  22
ATOM     22  C   UNL     1       5.896  -6.222  -0.584  0.00  0.00    +0.328 C 
BRANCH  22  23
ATOM     23  C   UNL     1       6.058  -7.719  -0.514  0.00  0.00    +0.255 C 
ATOM     24  O   UNL     1       5.424  -8.360   0.297  0.00  0.00    -0.272 OA
ATOM     25  N   UNL     1       6.908  -8.344  -1.352  0.00  0.00    -0.278 N 
ATOM     26  H   UNL     1       7.414  -7.777  -2.147  0.00  0.00    +0.155 HD
BRANCH  25  27
ATOM     27  C   UNL     1       7.147  -9.719  -1.211  0.00  0.00    +0.111 A 
ATOM     28  C   UNL     1       8.448 -10.206  -1.247  0.00  0.00    +0.185 A 
ATOM     29  C   UNL     1       8.683 -11.563  -1.103  0.00  0.00    +0.198 A 
ATOM     30  C   UNL     1       7.620 -12.437  -0.934  0.00  0.00    +0.199 A 
ATOM     31  C   UNL     1       6.322 -11.954  -0.903  0.00  0.00    +0.198 A 
ATOM     32  C   UNL     1       6.083 -10.597  -1.041  0.00  0.00    +0.185 A 
ATOM     33  F   UNL     1       4.817 -10.126  -1.011  0.00  0.00    -0.200 F 
ATOM     34  F   UNL     1       5.288 -12.807  -0.737  0.00  0.00    -0.199 F 
ATOM     35  F   UNL     1       7.851 -13.761  -0.798  0.00  0.00    -0.199 F 
ATOM     36  F   UNL     1       9.948 -12.037  -1.134  0.00  0.00    -0.199 F 
ATOM     37  F   UNL     1       9.484  -9.355  -1.418  0.00  0.00    -0.200 F 
ENDBRANCH  25  27
ENDBRANCH  22  23
ENDBRANCH  21  22
ENDBRANCH   1  21
TORSDOF 9
