REMARK  Name = ZINC20386491
REMARK  6 active torsions:
REMARK  status: ('A' for Active; 'I' for Inactive)
REMARK    1  A    between atoms: C_4  and  C_7
REMARK    2  A    between atoms: C_7  and  S_8
REMARK    3  A    between atoms: S_8  and  C_9
REMARK    4  A    between atoms: C_11  and  N_26
REMARK    5  A    between atoms: C_12  and  C_24
REMARK    6  A    between atoms: C_14  and  C_16
REMARK                            x       y       z     vdW  Elec       q    Type
REMARK                         _______ _______ _______ _____ _____    ______ ____
ROOT
ATOM      1  C   UNL     1       5.810  -1.898   1.401  0.00  0.00    +0.089 C 
ATOM      2  N   UNL     1       6.348  -2.251   0.266  0.00  0.00    -0.229 NA
ATOM      3  C   UNL     1       7.477  -2.977   0.208  0.00  0.00    +0.131 C 
ATOM      4  C   UNL     1       7.936  -3.659   1.316  0.00  0.00    +0.076 C 
ATOM      5  C   UNL     1       7.142  -3.613   2.598  0.00  0.00    +0.026 C 
ATOM      6  C   UNL     1       6.462  -2.243   2.714  0.00  0.00    +0.141 C 
ATOM      7  C   UNL     1       8.080  -3.820   3.788  0.00  0.00    +0.013 C 
ATOM      8  C   UNL     1       7.273  -3.772   5.087  0.00  0.00    +0.001 C 
ATOM      9  C   UNL     1       6.215  -4.876   5.072  0.00  0.00    +0.000 C 
ATOM     10  C   UNL     1       5.277  -4.668   3.881  0.00  0.00    +0.001 C 
ATOM     11  C   UNL     1       6.083  -4.716   2.582  0.00  0.00    +0.013 C 
ENDROOT
BRANCH   6  12
ATOM     12  C   UNL     1       7.488  -1.194   3.056  0.00  0.00    +0.221 C 
ATOM     13  O   UNL     1       8.406  -0.973   2.295  0.00  0.00    -0.275 OA
ATOM     14  N   UNL     1       7.386  -0.502   4.208  0.00  0.00    -0.329 N 
ATOM     15  H   UNL     1       6.652  -0.679   4.817  0.00  0.00    +0.145 HD
ATOM     16  H   UNL     1       8.047   0.173   4.428  0.00  0.00    +0.145 HD
ENDBRANCH   6  12
BRANCH   3  17
ATOM     17  N   UNL     1       8.186  -3.042  -0.974  0.00  0.00    -0.342 N 
ATOM     18  H   UNL     1       7.869  -2.566  -1.757  0.00  0.00    +0.144 HD
ATOM     19  H   UNL     1       9.002  -3.565  -1.022  0.00  0.00    +0.144 HD
ENDBRANCH   3  17
BRANCH   4  20
ATOM     20  C   UNL     1       9.156  -4.405   1.250  0.00  0.00    +0.099 C 
ATOM     21  N   UNL     1      10.125  -4.996   1.197  0.00  0.00    -0.191 NA
ENDBRANCH   4  20
BRANCH   1  22
ATOM     22  S   UNL     1       4.384  -1.048   1.397  0.00  0.00    -0.105 S 
BRANCH  22  23
ATOM     23  C   UNL     1       3.985  -0.868  -0.363  0.00  0.00    +0.110 C 
BRANCH  23  27
ATOM     24  C   UNL     1       0.328   1.299  -0.782  0.00  0.00    +0.000 A 
ATOM     25  C   UNL     1       1.532   1.976  -0.747  0.00  0.00    +0.000 A 
ATOM     26  C   UNL     1       2.716   1.275  -0.612  0.00  0.00    +0.004 A 
ATOM     27  C   UNL     1       2.694  -0.103  -0.510  0.00  0.00    -0.037 A 
ATOM     28  C   UNL     1       1.490  -0.780  -0.543  0.00  0.00    +0.004 A 
ATOM     29  C   UNL     1       0.306  -0.079  -0.681  0.00  0.00    +0.000 A 
ENDBRANCH  23  27
ENDBRANCH  22  23
ENDBRANCH   1  22
TORSDOF 6
