REMARK  Name = ZINC38660293
REMARK  14 active torsions:
REMARK  status: ('A' for Active; 'I' for Inactive)
REMARK    1  A    between atoms: C_1  and  C_2
REMARK    2  A    between atoms: C_2  and  C_3
REMARK    3  A    between atoms: C_3  and  C_4
REMARK    4  A    between atoms: C_4  and  C_5
REMARK    5  A    between atoms: C_5  and  O_6
REMARK    6  A    between atoms: O_6  and  C_7
REMARK    7  A    between atoms: C_10  and  C_15
REMARK    8  A    between atoms: C_12  and  O_13
REMARK    9  A    between atoms: O_13  and  C_14
REMARK   10  A    between atoms: C_20  and  O_29
REMARK   11  A    between atoms: C_24  and  N_28
REMARK   12  A    between atoms: C_25  and  C_26
REMARK   13  A    between atoms: O_29  and  C_30
REMARK   14  A    between atoms: C_30  and  C_32
REMARK                            x       y       z     vdW  Elec       q    Type
REMARK                         _______ _______ _______ _____ _____    ______ ____
ROOT
ATOM      1  C   UNL     1       3.986  -6.462  -6.857  0.00  0.00    +0.098 C 
ATOM      2  C   UNL     1       5.431  -6.041  -6.926  0.00  0.00    +0.008 A 
ATOM      3  C   UNL     1       6.326  -6.525  -5.988  0.00  0.00    +0.012 A 
ATOM      4  C   UNL     1       7.654  -6.151  -6.036  0.00  0.00    +0.047 A 
ATOM      5  C   UNL     1       8.095  -5.285  -7.027  0.00  0.00    +0.135 A 
ATOM      6  C   UNL     1       7.202  -4.799  -7.967  0.00  0.00    +0.093 A 
ATOM      7  C   UNL     1       5.866  -5.177  -7.918  0.00  0.00    +0.138 A 
ATOM      8  O   UNL     1       5.004  -4.691  -8.845  0.00  0.00    -0.441 OA
ATOM      9  C   UNL     1       3.834  -5.314  -9.063  0.00  0.00    +0.199 C 
ATOM     10  C   UNL     1       3.300  -6.165  -8.160  0.00  0.00    +0.098 C 
ENDROOT
BRANCH   1  14
ATOM     11  C   UNL     1       2.038  -4.317  -3.712  0.00  0.00    +0.162 A 
ATOM     12  C   UNL     1       2.612  -3.631  -4.770  0.00  0.00    +0.050 A 
ATOM     13  C   UNL     1       3.241  -4.327  -5.785  0.00  0.00    +0.008 A 
ATOM     14  C   UNL     1       3.299  -5.708  -5.747  0.00  0.00    -0.031 A 
ATOM     15  C   UNL     1       2.728  -6.398  -4.695  0.00  0.00    +0.054 A 
ATOM     16  C   UNL     1       2.101  -5.706  -3.671  0.00  0.00    +0.162 A 
BRANCH  16  17
ATOM     17  O   UNL     1       1.544  -6.384  -2.632  0.00  0.00    -0.491 OA
ATOM     18  C   UNL     1       1.647  -7.809  -2.657  0.00  0.00    +0.277 C 
ENDBRANCH  16  17
BRANCH  11  19
ATOM     19  O   UNL     1       1.418  -3.634  -2.712  0.00  0.00    -0.488 OA
BRANCH  19  20
ATOM     20  C   UNL     1       1.391  -2.209  -2.820  0.00  0.00    +0.229 C 
BRANCH  20  21
ATOM     21  C   UNL     1       0.658  -1.620  -1.613  0.00  0.00    +0.041 C 
BRANCH  21  22
ATOM     22  C   UNL     1       0.630  -0.094  -1.729  0.00  0.00    +0.003 C 
BRANCH  22  24
ATOM     23  C   UNL     1      -0.132   2.020  -0.637  0.00  0.00    +0.004 C 
ATOM     24  C   UNL     1      -0.103   0.495  -0.522  0.00  0.00    -0.003 C 
ENDBRANCH  22  24
ENDBRANCH  21  22
ENDBRANCH  20  21
ENDBRANCH  19  20
ENDBRANCH  11  19
ENDBRANCH   1  14
BRANCH   9  25
ATOM     25  N   UNL     1       3.164  -5.080 -10.238  0.00  0.00    -0.328 N 
ATOM     26  H   UNL     1       3.536  -4.471 -10.896  0.00  0.00    +0.145 HD
ATOM     27  H   UNL     1       2.318  -5.522 -10.410  0.00  0.00    +0.145 HD
ENDBRANCH   9  25
BRANCH  10  28
ATOM     28  C   UNL     1       2.049  -6.797  -8.454  0.00  0.00    +0.101 C 
ATOM     29  N   UNL     1       1.057  -7.299  -8.687  0.00  0.00    -0.191 NA
ENDBRANCH  10  28
BRANCH   5  30
ATOM     30  O   UNL     1       9.402  -4.916  -7.075  0.00  0.00    -0.422 OA
BRANCH  30  31
ATOM     31  C   UNL     1      10.312  -5.849  -7.419  0.00  0.00    +0.347 C 
ATOM     32  O   UNL     1       9.946  -6.952  -7.775  0.00  0.00    -0.244 OA
BRANCH  31  33
ATOM     33  C   UNL     1      11.752  -5.532  -7.362  0.00  0.00    +0.094 A 
ATOM     34  C   UNL     1      12.177  -4.268  -6.947  0.00  0.00    +0.018 A 
ATOM     35  C   UNL     1      13.523  -3.978  -6.896  0.00  0.00    +0.001 A 
ATOM     36  C   UNL     1      14.456  -4.937  -7.255  0.00  0.00    +0.003 A 
ATOM     37  C   UNL     1      14.046  -6.191  -7.667  0.00  0.00    +0.039 A 
ATOM     38  C   UNL     1      12.698  -6.498  -7.718  0.00  0.00    +0.137 A 
ATOM     39  F   UNL     1      12.298  -7.726  -8.116  0.00  0.00    -0.205 F 
ENDBRANCH  31  33
ENDBRANCH  30  31
ENDBRANCH   5  30
TORSDOF 12
