REMARK  Name = ZINC12411962
REMARK  6 active torsions:
REMARK  status: ('A' for Active; 'I' for Inactive)
REMARK    1  A    between atoms: C_1  and  C_2
REMARK    2  A    between atoms: C_2  and  N_3
REMARK    3  A    between atoms: N_6  and  C_9
REMARK    4  A    between atoms: C_12  and  N_15
REMARK    5  A    between atoms: C_28  and  C_30
REMARK    6  A    between atoms: C_31  and  C_32
REMARK                            x       y       z     vdW  Elec       q    Type
REMARK                         _______ _______ _______ _____ _____    ______ ____
ROOT
ATOM      1  N   UNL     1       4.095   5.286   2.469  0.00  0.00    -0.299 N 
ATOM      2  C   UNL     1       3.068   5.743   1.672  0.00  0.00    +0.135 A 
ATOM      3  C   UNL     1       1.679   5.334   1.911  0.00  0.00    +0.041 A 
ATOM      4  C   UNL     1       1.335   4.476   2.942  0.00  0.00    +0.022 A 
ATOM      5  C   UNL     1      -0.005   4.121   3.121  0.00  0.00    -0.017 A 
ATOM      6  C   UNL     1      -0.396   3.249   4.157  0.00  0.00    +0.008 A 
ATOM      7  C   UNL     1      -1.708   2.926   4.303  0.00  0.00    +0.001 A 
ATOM      8  C   UNL     1      -2.686   3.431   3.447  0.00  0.00    +0.001 A 
ATOM      9  C   UNL     1      -2.377   4.279   2.432  0.00  0.00    +0.008 A 
ATOM     10  C   UNL     1      -1.034   4.656   2.224  0.00  0.00    -0.016 A 
ATOM     11  C   UNL     1      -0.682   5.522   1.187  0.00  0.00    +0.037 A 
ATOM     12  C   UNL     1       0.652   5.872   1.011  0.00  0.00    +0.077 A 
ATOM     13  N   UNL     1       1.044   6.701   0.029  0.00  0.00    -0.228 NA
ATOM     14  C   UNL     1       2.316   7.020  -0.119  0.00  0.00    +0.155 A 
ATOM     15  N   UNL     1       3.298   6.568   0.663  0.00  0.00    -0.212 NA
ATOM     16  H   UNL     1       3.870   4.716   3.382  0.00  0.00    +0.154 HD
ENDROOT
BRANCH   1  20
ATOM     17  C   UNL     1       8.054   6.062   1.417  0.00  0.00    +0.014 A 
ATOM     18  C   UNL     1       7.727   4.877   2.064  0.00  0.00    +0.023 A 
ATOM     19  C   UNL     1       6.416   4.620   2.412  0.00  0.00    +0.025 A 
ATOM     20  C   UNL     1       5.424   5.546   2.116  0.00  0.00    +0.032 A 
ATOM     21  C   UNL     1       5.751   6.729   1.464  0.00  0.00    +0.025 A 
ATOM     22  C   UNL     1       7.062   6.988   1.120  0.00  0.00    +0.023 A 
BRANCH  17  26
ATOM     23  N   UNL     1      11.856   7.727   1.178  0.00  0.00    -0.300 NA
ATOM     24  C   UNL     1      10.965   7.870   0.018  0.00  0.00    +0.101 C 
ATOM     25  C   UNL     1       9.516   7.656   0.462  0.00  0.00    +0.100 C 
ATOM     26  N   UNL     1       9.383   6.322   1.064  0.00  0.00    -0.391 NA
ATOM     27  C   UNL     1      10.274   6.179   2.224  0.00  0.00    +0.100 C 
ATOM     28  C   UNL     1      11.723   6.393   1.780  0.00  0.00    +0.101 C 
ATOM     29  H   UNL     1       9.633   5.556   0.314  0.00  0.00    +0.126 HD
BRANCH  23  31
ATOM     30  C   UNL     1      14.107   8.088   2.072  0.00  0.00    +0.020 C 
ATOM     31  C   UNL     1      13.251   8.000   0.807  0.00  0.00    +0.081 C 
ENDBRANCH  23  31
ENDBRANCH  17  26
ENDBRANCH   1  20
BRANCH  14  32
ATOM     32  C   UNL     1       2.674   7.933  -1.216  0.00  0.00    +0.049 C 
ATOM     33  C   UNL     1       1.872   8.042  -2.289  0.00  0.00    +0.011 C 
BRANCH  33  34
ATOM     34  C   UNL     1       0.924   6.961  -2.612  0.00  0.00    -0.025 A 
ATOM     35  C   UNL     1       1.255   5.631  -2.337  0.00  0.00    +0.009 A 
ATOM     36  C   UNL     1       0.361   4.626  -2.637  0.00  0.00    +0.020 A 
ATOM     37  C   UNL     1      -0.859   4.930  -3.220  0.00  0.00    +0.041 A 
ATOM     38  C   UNL     1      -1.190   6.245  -3.500  0.00  0.00    +0.020 A 
ATOM     39  C   UNL     1      -0.308   7.261  -3.201  0.00  0.00    +0.009 A 
ATOM     40 CL   UNL     1      -1.975   3.656  -3.601  0.00  0.00    -0.084 Cl
ENDBRANCH  33  34
ENDBRANCH  14  32
TORSDOF 5
