REMARK  Name = ZINC56924275
REMARK  1 active torsions:
REMARK  status: ('A' for Active; 'I' for Inactive)
REMARK    1  A    between atoms: C_10  and  C_13
REMARK                            x       y       z     vdW  Elec       q    Type
REMARK                         _______ _______ _______ _____ _____    ______ ____
ROOT
ATOM      1  C   UNL     1      -0.017   1.382   0.010  0.00  0.00    +0.039 A 
ATOM      2  C   UNL     1       1.192   2.061   0.002  0.00  0.00    +0.116 A 
ATOM      3  N   UNL     1       2.320   1.370  -0.013  0.00  0.00    -0.223 NA
ATOM      4  C   UNL     1       2.303   0.046  -0.020  0.00  0.00    +0.221 A 
ATOM      5  N   UNL     1       1.165  -0.633  -0.013  0.00  0.00    -0.223 NA
ATOM      6  C   UNL     1       0.002  -0.004   0.002  0.00  0.00    +0.116 A 
ATOM      7  N   UNL     1       3.504  -0.646  -0.035  0.00  0.00    -0.263 N 
ATOM      8  C   UNL     1       3.505  -2.033  -0.042  0.00  0.00    +0.165 A 
ATOM      9  N   UNL     1       4.528  -2.864  -0.051  0.00  0.00    -0.220 NA
ATOM     10  C   UNL     1       4.345  -4.186  -0.057  0.00  0.00    +0.135 A 
ATOM     11  C   UNL     1       3.064  -4.681  -0.054  0.00  0.00    +0.081 A 
ATOM     12  S   UNL     1       2.120  -3.162  -0.035  0.00  0.00    -0.060 S 
ATOM     13  H   UNL     1       4.343  -0.160  -0.040  0.00  0.00    +0.157 HD
ENDROOT
BRANCH  10  14
ATOM     14  C   UNL     1       5.498  -5.099  -0.067  0.00  0.00    +0.269 C 
ATOM     15  O   UNL     1       5.321  -6.302  -0.073  0.00  0.00    -0.268 OA
ATOM     16  N   UNL     1       6.751  -4.602  -0.070  0.00  0.00    -0.259 N 
ATOM     17  C   UNL     1       7.840  -5.464  -0.080  0.00  0.00    +0.165 A 
ATOM     18  N   UNL     1       7.842  -6.779  -0.093  0.00  0.00    -0.229 NA
ATOM     19  C   UNL     1       8.971  -7.481  -0.102  0.00  0.00    +0.054 A 
ATOM     20  C   UNL     1      10.106  -6.736  -0.095  0.00  0.00    +0.014 A 
ATOM     21  S   UNL     1       9.481  -5.079  -0.086  0.00  0.00    -0.057 S 
ATOM     22  C   UNL     1      11.516  -7.223  -0.100  0.00  0.00    +0.044 C 
ATOM     23  C   UNL     1      11.508  -8.718   0.257  0.00  0.00    +0.006 C 
ATOM     24  C   UNL     1      10.439  -9.421  -0.584  0.00  0.00    +0.006 C 
ATOM     25  C   UNL     1       9.043  -9.002  -0.119  0.00  0.00    +0.056 C 
ATOM     26  H   UNL     1       6.893  -3.642  -0.066  0.00  0.00    +0.157 HD
ENDBRANCH  10  14
TORSDOF 1
