REMARK  Name = ZINC03305859
REMARK  5 active torsions:
REMARK  status: ('A' for Active; 'I' for Inactive)
REMARK    1  A    between atoms: C_8  and  C_10
REMARK    2  A    between atoms: C_14  and  N_15
REMARK    3  A    between atoms: C_16  and  C_18
REMARK    4  A    between atoms: C_21  and  S_24
REMARK    5  A    between atoms: S_24  and  N_27
REMARK                            x       y       z     vdW  Elec       q    Type
REMARK                         _______ _______ _______ _____ _____    ______ ____
ROOT
ATOM      1  C   UNL     1      -3.077   1.157   2.337  0.00  0.00    +0.039 A 
ATOM      2  C   UNL     1      -2.199   1.201   1.182  0.00  0.00    -0.026 A 
ATOM      3  C   UNL     1      -2.761   0.886  -0.008  0.00  0.00    -0.005 A 
ATOM      4  S   UNL     1      -4.454   0.525   0.373  0.00  0.00    -0.077 S 
ATOM      5  C   UNL     1      -4.400   0.800   2.135  0.00  0.00    +0.082 A 
ATOM      6  C   UNL     1      -2.092   0.853  -1.347  0.00  0.00    +0.043 C 
ATOM      7  C   UNL     1      -0.750   1.591  -1.235  0.00  0.00    +0.005 C 
ATOM      8  C   UNL     1      -0.013   1.086   0.008  0.00  0.00    +0.005 C 
ATOM      9  C   UNL     1      -0.725   1.577   1.269  0.00  0.00    +0.037 C 
ENDROOT
BRANCH   1  17
ATOM     10  C   UNL     1       0.369   2.728   7.198  0.00  0.00    +0.002 A 
ATOM     11  C   UNL     1      -0.690   2.600   8.085  0.00  0.00    +0.001 A 
ATOM     12  C   UNL     1      -1.932   2.223   7.607  0.00  0.00    +0.017 A 
ATOM     13  C   UNL     1      -2.098   1.983   6.266  0.00  0.00    +0.040 A 
ATOM     14  C   UNL     1      -1.042   2.104   5.333  0.00  0.00    +0.079 A 
ATOM     15  C   UNL     1       0.214   2.491   5.858  0.00  0.00    +0.029 A 
ATOM     16  N   UNL     1      -1.359   1.830   4.051  0.00  0.00    -0.239 NA
ATOM     17  C   UNL     1      -2.576   1.481   3.684  0.00  0.00    +0.112 A 
ATOM     18  S   UNL     1      -3.461   1.494   5.237  0.00  0.00    -0.067 S 
ENDBRANCH   1  17
BRANCH   5  19
ATOM     19  N   UNL     1      -5.425   0.687   3.066  0.00  0.00    -0.275 N 
ATOM     20  C   UNL     1      -6.660   0.323   2.668  0.00  0.00    +0.249 C 
ATOM     21  O   UNL     1      -6.878   0.095   1.494  0.00  0.00    -0.270 OA
ATOM     22  H   UNL     1      -5.251   0.869   4.003  0.00  0.00    +0.156 HD
BRANCH  20  23
ATOM     23  C   UNL     1      -7.750   0.203   3.659  0.00  0.00    +0.037 A 
ATOM     24  C   UNL     1      -7.501   0.459   5.009  0.00  0.00    +0.015 A 
ATOM     25  C   UNL     1      -8.524   0.350   5.928  0.00  0.00    +0.029 A 
ATOM     26  C   UNL     1      -9.792  -0.024   5.516  0.00  0.00    +0.106 A 
ATOM     27  C   UNL     1     -10.043  -0.285   4.181  0.00  0.00    +0.029 A 
ATOM     28  C   UNL     1      -9.030  -0.174   3.251  0.00  0.00    +0.015 A 
BRANCH  26  29
ATOM     29  S   UNL     1     -11.091  -0.168   6.698  0.00  0.00    +0.061 S 
ATOM     30  O   UNL     1     -10.733   0.657   7.798  0.00  0.00    -0.153 OA
ATOM     31  O   UNL     1     -12.309  -0.002   5.985  0.00  0.00    -0.153 OA
BRANCH  29  32
ATOM     32  N   UNL     1     -11.077  -1.728   7.253  0.00  0.00    -0.177 NA
ATOM     33  C   UNL     1     -11.830  -2.850   6.674  0.00  0.00    +0.109 C 
ATOM     34  C   UNL     1     -11.527  -4.097   7.532  0.00  0.00    +0.018 C 
ATOM     35  C   UNL     1     -11.075  -3.484   8.884  0.00  0.00    +0.018 C 
ATOM     36  C   UNL     1     -10.312  -2.221   8.413  0.00  0.00    +0.109 C 
ENDBRANCH  29  32
ENDBRANCH  26  29
ENDBRANCH  20  23
ENDBRANCH   5  19
TORSDOF 5
