REMARK  Name = ZINC13203043
REMARK  8 active torsions:
REMARK  status: ('A' for Active; 'I' for Inactive)
REMARK    1  A    between atoms: C_4  and  N_11
REMARK    2  A    between atoms: C_5  and  C_7
REMARK    3  A    between atoms: C_12  and  C_14
REMARK    4  A    between atoms: C_14  and  S_15
REMARK    5  A    between atoms: S_15  and  C_16
REMARK    6  A    between atoms: C_19  and  C_24
REMARK    7  A    between atoms: N_20  and  C_21
REMARK    8  A    between atoms: C_21  and  C_22
REMARK                            x       y       z     vdW  Elec       q    Type
REMARK                         _______ _______ _______ _____ _____    ______ ____
ROOT
ATOM      1  C   UNL     1      -4.878   0.016  -0.166  0.00  0.00    +0.173 C 
ENDROOT
BRANCH   1   3
ATOM      2  N   UNL     1      -2.413  -0.035   0.025  0.00  0.00    -0.284 N 
ATOM      3  C   UNL     1      -3.568  -0.722  -0.069  0.00  0.00    +0.227 C 
ATOM      4  O   UNL     1      -3.554  -1.935  -0.076  0.00  0.00    -0.275 OA
ATOM      5  H   UNL     1      -2.429   0.931   0.112  0.00  0.00    +0.155 HD
BRANCH   2   9
ATOM      6  C   UNL     1       1.228  -2.059  -0.054  0.00  0.00    +0.001 A 
ATOM      7  C   UNL     1       0.111  -2.624  -0.642  0.00  0.00    +0.002 A 
ATOM      8  C   UNL     1      -1.097  -1.956  -0.618  0.00  0.00    +0.024 A 
ATOM      9  C   UNL     1      -1.190  -0.714  -0.002  0.00  0.00    +0.045 A 
ATOM     10  C   UNL     1      -0.067  -0.150   0.588  0.00  0.00    +0.076 A 
ATOM     11  C   UNL     1       1.140  -0.821   0.555  0.00  0.00    +0.014 A 
BRANCH  10  12
ATOM     12  C   UNL     1      -0.163   1.197   1.258  0.00  0.00    +0.419 C 
ATOM     13  F   UNL     1       1.088   1.552   1.773  0.00  0.00    -0.166 F 
ATOM     14  F   UNL     1      -0.571   2.155   0.323  0.00  0.00    -0.166 F 
ATOM     15  F   UNL     1      -1.096   1.135   2.299  0.00  0.00    -0.166 F 
ENDBRANCH  10  12
ENDBRANCH   2   9
ENDBRANCH   1   3
BRANCH   1  16
ATOM     16  S   UNL     1      -6.236  -1.176  -0.279  0.00  0.00    -0.077 S 
BRANCH  16  17
ATOM     17  C   UNL     1      -7.605  -0.071  -0.378  0.00  0.00    +0.193 A 
ATOM     18  N   UNL     1      -7.551   1.241  -0.359  0.00  0.00    -0.122 NA
ATOM     19  N   UNL     1      -8.733   1.734  -0.452  0.00  0.00    -0.128 NA
ATOM     20  C   UNL     1      -9.619   0.766  -0.528  0.00  0.00    +0.172 A 
ATOM     21  N   UNL     1      -8.923  -0.421  -0.483  0.00  0.00    -0.291 N 
BRANCH  20  22
ATOM     22  C   UNL     1     -11.079   0.921  -0.639  0.00  0.00    +0.056 A 
ATOM     23  C   UNL     1     -11.850   2.032  -0.409  0.00  0.00    +0.019 A 
ATOM     24  C   UNL     1     -13.213   1.938  -0.585  0.00  0.00    +0.008 A 
ATOM     25  C   UNL     1     -13.751   0.752  -0.969  0.00  0.00    +0.046 A 
ATOM     26  S   UNL     1     -12.307  -0.289  -1.103  0.00  0.00    -0.094 S 
ENDBRANCH  20  22
BRANCH  21  27
ATOM     27  C   UNL     1      -9.478  -1.776  -0.536  0.00  0.00    +0.250 C 
BRANCH  27  28
ATOM     28  C   UNL     1      -9.778  -2.251   0.863  0.00  0.00    +0.375 C 
ATOM     29  O   UNL     1      -9.552  -1.532   1.807  0.00  0.00    -0.244 OA
ATOM     30  O   UNL     1     -10.297  -3.473   1.059  0.00  0.00    -0.244 OA
ENDBRANCH  27  28
ENDBRANCH  21  27
ENDBRANCH  16  17
ENDBRANCH   1  16
TORSDOF 8
