REMARK  Name = ZINC11388457
REMARK  5 active torsions:
REMARK  status: ('A' for Active; 'I' for Inactive)
REMARK    1  A    between atoms: C_1  and  C_2
REMARK    2  A    between atoms: C_2  and  S_3
REMARK    3  A    between atoms: S_3  and  C_4
REMARK    4  A    between atoms: C_7  and  C_10
REMARK    5  A    between atoms: N_8  and  N_9
REMARK                            x       y       z     vdW  Elec       q    Type
REMARK                         _______ _______ _______ _____ _____    ______ ____
ROOT
ATOM      1  C   UNL     1       2.041   0.776  -0.092  0.00  0.00    +0.209 A 
ATOM      2  N   UNL     1       1.187   1.760   0.082  0.00  0.00    -0.121 NA
ATOM      3  N   UNL     1      -0.011   1.299   0.139  0.00  0.00    -0.127 NA
ATOM      4  C   UNL     1       0.004  -0.006   0.005  0.00  0.00    +0.183 A 
ATOM      5  N   UNL     1       1.319  -0.382  -0.146  0.00  0.00    -0.224 N 
ENDROOT
BRANCH   4   6
ATOM      6  C   UNL     1      -1.171  -0.904   0.016  0.00  0.00    +0.040 A 
ATOM      7  C   UNL     1      -1.156  -2.068   0.787  0.00  0.00    +0.033 A 
ATOM      8  C   UNL     1      -2.256  -2.902   0.793  0.00  0.00    +0.042 A 
ATOM      9  C   UNL     1      -3.372  -2.586   0.036  0.00  0.00    +0.021 A 
ATOM     10  C   UNL     1      -3.393  -1.435  -0.729  0.00  0.00    +0.022 A 
ATOM     11  C   UNL     1      -2.302  -0.589  -0.740  0.00  0.00    +0.052 A 
ATOM     12 CL   UNL     1      -2.333   0.860  -1.696  0.00  0.00    -0.083 Cl
ATOM     13 CL   UNL     1      -2.240  -4.350   1.750  0.00  0.00    -0.084 Cl
ENDBRANCH   4   6
BRANCH   5  14
ATOM     14  N   UNL     1       1.801  -1.649  -0.317  0.00  0.00    -0.295 N 
ATOM     15  H   UNL     1       1.108  -2.502  -0.343  0.00  0.00    +0.163 HD
ATOM     16  H   UNL     1       2.883  -1.815  -0.428  0.00  0.00    +0.163 HD
ENDBRANCH   5  14
BRANCH   1  17
ATOM     17  S   UNL     1       3.792   0.923  -0.229  0.00  0.00    -0.085 S 
BRANCH  17  19
ATOM     18  C   UNL     1       5.451   3.092  -0.153  0.00  0.00    +0.016 C 
ATOM     19  C   UNL     1       3.970   2.716  -0.062  0.00  0.00    +0.074 C 
ENDBRANCH  17  19
ENDBRANCH   1  17
TORSDOF 4
