REMARK  Name = ZINC35363924
REMARK  6 active torsions:
REMARK  status: ('A' for Active; 'I' for Inactive)
REMARK    1  A    between atoms: C_1  and  C_2
REMARK    2  A    between atoms: C_2  and  C_3
REMARK    3  A    between atoms: C_3  and  C_5
REMARK    4  A    between atoms: C_3  and  N_6
REMARK    5  A    between atoms: C_11  and  C_28
REMARK    6  A    between atoms: C_28  and  C_29
REMARK                            x       y       z     vdW  Elec       q    Type
REMARK                         _______ _______ _______ _____ _____    ______ ____
ROOT
ATOM      1  N   UNL     1      -2.082  -0.162   1.273  0.00  0.00    -0.239 N 
ATOM      2  C   UNL     1      -1.617  -0.547   2.467  0.00  0.00    +0.227 C 
ATOM      3  O   UNL     1      -0.630  -1.228   2.648  0.00  0.00    -0.275 OA
ATOM      4  C   UNL     1      -2.513  -0.001   3.555  0.00  0.00    +0.107 C 
ATOM      5  C   UNL     1      -1.738   1.053   4.373  0.00  0.00    +0.072 C 
ATOM      6  N   UNL     1      -1.937   2.330   3.636  0.00  0.00    -0.295 NA
ATOM      7  C   UNL     1      -3.336   2.267   3.176  0.00  0.00    +0.136 C 
ATOM      8  C   UNL     1      -3.590   0.795   2.767  0.00  0.00    +0.122 C 
ATOM      9  C   UNL     1      -3.183   0.596   1.324  0.00  0.00    +0.228 C 
ATOM     10  O   UNL     1      -3.766   1.050   0.363  0.00  0.00    -0.275 OA
ATOM     11  C   UNL     1      -4.290   2.707   4.250  0.00  0.00    +0.003 A 
ATOM     12  C   UNL     1      -4.553   2.261   5.526  0.00  0.00    +0.008 A 
ATOM     13  C   UNL     1      -5.516   2.890   6.295  0.00  0.00    +0.000 A 
ATOM     14  C   UNL     1      -6.214   3.967   5.779  0.00  0.00    +0.002 A 
ATOM     15  C   UNL     1      -5.953   4.418   4.501  0.00  0.00    +0.023 A 
ATOM     16  C   UNL     1      -4.985   3.790   3.720  0.00  0.00    +0.039 A 
ATOM     17  N   UNL     1      -4.548   4.057   2.421  0.00  0.00    -0.283 N 
ATOM     18  C   UNL     1      -3.579   3.207   2.027  0.00  0.00    +0.243 C 
ATOM     19  O   UNL     1      -3.013   3.201   0.955  0.00  0.00    -0.273 OA
ATOM     20  H   UNL     1      -1.790   3.123   4.242  0.00  0.00    +0.124 HD
ATOM     21  H   UNL     1      -4.900   4.771   1.867  0.00  0.00    +0.155 HD
ENDROOT
BRANCH   1  22
ATOM     22  C   UNL     1      -1.433  -0.534   0.013  0.00  0.00    +0.081 C 
ATOM     23  C   UNL     1      -1.416  -2.058  -0.121  0.00  0.00    +0.028 C 
BRANCH  22  25
ATOM     24  C   UNL     1      -0.019   1.526   0.010  0.00  0.00    +0.006 C 
ATOM     25  C   UNL     1       0.002  -0.004   0.002  0.00  0.00    +0.019 C 
ENDBRANCH  22  25
ENDBRANCH   1  22
BRANCH   5  26
ATOM     26  C   UNL     1      -0.252   0.695   4.431  0.00  0.00    +0.056 C 
BRANCH  26  27
ATOM     27  C   UNL     1       0.464   1.667   5.334  0.00  0.00    -0.021 A 
ATOM     28  C   UNL     1       1.107   2.782   4.956  0.00  0.00    +0.087 A 
ATOM     29  N   UNL     1       1.635   3.411   6.051  0.00  0.00    -0.360 N 
ATOM     30  H   UNL     1       2.144   4.236   6.028  0.00  0.00    +0.165 HD
ATOM     31  C   UNL     1       1.337   2.696   7.189  0.00  0.00    +0.047 A 
ATOM     32  C   UNL     1       0.585   1.576   6.791  0.00  0.00    +0.003 A 
ATOM     33  C   UNL     1       0.133   0.664   7.747  0.00  0.00    +0.010 A 
ATOM     34  C   UNL     1       0.420   0.867   9.067  0.00  0.00    +0.001 A 
ATOM     35  C   UNL     1       1.158   1.973   9.466  0.00  0.00    +0.002 A 
ATOM     36  C   UNL     1       1.622   2.880   8.538  0.00  0.00    +0.026 A 
ENDBRANCH  26  27
ENDBRANCH   5  26
TORSDOF 4
