REMARK  Name = ZINC01128736
REMARK  10 active torsions:
REMARK  status: ('A' for Active; 'I' for Inactive)
REMARK    1  A    between atoms: C_1  and  C_2
REMARK    2  A    between atoms: C_2  and  C_3
REMARK    3  A    between atoms: C_2  and  C_4
REMARK    4  A    between atoms: C_2  and  C_5
REMARK    5  A    between atoms: C_12  and  N_18
REMARK    6  A    between atoms: C_13  and  C_14
REMARK    7  A    between atoms: C_14  and  O_16
REMARK    8  A    between atoms: O_16  and  C_17
REMARK    9  A    between atoms: C_19  and  C_21
REMARK   10  A    between atoms: C_21  and  C_22
REMARK                            x       y       z     vdW  Elec       q    Type
REMARK                         _______ _______ _______ _____ _____    ______ ____
ROOT
ATOM      1  N   UNL     1      -3.682   5.097   3.803  0.00  0.00    -0.279 N 
ATOM      2  C   UNL     1      -3.707   4.736   2.505  0.00  0.00    +0.220 C 
ATOM      3  O   UNL     1      -3.849   5.578   1.644  0.00  0.00    -0.275 OA
ATOM      4  H   UNL     1      -3.569   4.424   4.492  0.00  0.00    +0.155 HD
ENDROOT
BRANCH   1  11
ATOM      5  C   UNL     1      -3.923  11.274   5.431  0.00  0.00    -0.000 C 
ATOM      6  C   UNL     1      -4.626  10.575   6.598  0.00  0.00    +0.009 C 
ATOM      7  C   UNL     1      -3.997   9.201   6.836  0.00  0.00    +0.037 C 
ATOM      8  C   UNL     1      -3.977   8.436   5.519  0.00  0.00    -0.021 A 
ATOM      9  C   UNL     1      -4.112   9.079   4.339  0.00  0.00    -0.004 A 
ATOM     10  S   UNL     1      -4.029   7.802   3.115  0.00  0.00    -0.077 S 
ATOM     11  C   UNL     1      -3.817   6.431   4.154  0.00  0.00    +0.086 A 
ATOM     12  C   UNL     1      -3.822   6.994   5.424  0.00  0.00    +0.091 A 
ATOM     13  C   UNL     1      -4.290  10.550   4.127  0.00  0.00    +0.046 C 
BRANCH   5  15
ATOM     14  C   UNL     1      -4.031  13.446   6.662  0.00  0.00    +0.011 C 
ATOM     15  C   UNL     1      -4.382  12.732   5.355  0.00  0.00    -0.035 C 
ATOM     16  C   UNL     1      -3.679  13.428   4.188  0.00  0.00    +0.011 C 
ATOM     17  C   UNL     1      -5.896  12.779   5.139  0.00  0.00    +0.011 C 
ENDBRANCH   5  15
BRANCH  12  18
ATOM     18  C   UNL     1      -3.673   6.165   6.622  0.00  0.00    +0.342 C 
ATOM     19  O   UNL     1      -2.565   5.940   7.071  0.00  0.00    -0.245 OA
BRANCH  18  20
ATOM     20  O   UNL     1      -4.763   5.652   7.227  0.00  0.00    -0.464 OA
ATOM     21  C   UNL     1      -4.540   4.840   8.410  0.00  0.00    +0.280 C 
ENDBRANCH  18  20
ENDBRANCH  12  18
ENDBRANCH   1  11
BRANCH   2  22
ATOM     22  C   UNL     1      -3.560   3.285   2.123  0.00  0.00    +0.127 C 
BRANCH  22  23
ATOM     23  C   UNL     1      -3.623   3.150   0.601  0.00  0.00    +0.166 C 
ATOM     24  C   UNL     1      -3.600   1.690   0.223  0.00  0.00    +0.238 C 
ATOM     25  O   UNL     1      -4.644   1.085   0.102  0.00  0.00    -0.273 OA
ATOM     26  N   UNL     1      -2.433   1.052   0.018  0.00  0.00    -0.282 N 
ATOM     27  C   UNL     1      -1.221   1.753   0.017  0.00  0.00    +0.055 A 
ATOM     28  C   UNL     1      -0.013   1.076   0.008  0.00  0.00    +0.025 A 
ATOM     29  C   UNL     1       1.175   1.784   0.000  0.00  0.00    +0.002 A 
ATOM     30  C   UNL     1       1.163   3.167   0.007  0.00  0.00    +0.002 A 
ATOM     31  C   UNL     1      -0.038   3.852   0.018  0.00  0.00    +0.025 A 
ATOM     32  C   UNL     1      -1.230   3.149   0.022  0.00  0.00    +0.049 A 
ATOM     33  N   UNL     1      -2.462   3.819   0.010  0.00  0.00    -0.331 N 
ATOM     34  H   UNL     1      -2.431   0.094  -0.131  0.00  0.00    +0.155 HD
ATOM     35  H   UNL     1      -2.547   4.699  -0.389  0.00  0.00    +0.147 HD
ENDBRANCH  22  23
ENDBRANCH   2  22
TORSDOF 6
