REMARK  Name = ZINC08783244
REMARK  4 active torsions:
REMARK  status: ('A' for Active; 'I' for Inactive)
REMARK    1  A    between atoms: C_3  and  C_6
REMARK    2  A    between atoms: C_14  and  N_25
REMARK    3  A    between atoms: C_15  and  C_23
REMARK    4  A    between atoms: C_16  and  C_18
REMARK                            x       y       z     vdW  Elec       q    Type
REMARK                         _______ _______ _______ _____ _____    ______ ____
ROOT
ATOM      1  C   UNL     1       3.393  -0.591  -1.226  0.00  0.00    +0.023 C 
ATOM      2  C   UNL     1       2.169  -0.025  -1.280  0.00  0.00    +0.010 C 
ATOM      3  C   UNL     1       2.002   1.478  -1.357  0.00  0.00    +0.120 C 
ATOM      4  N   UNL     1       0.876   1.831  -0.472  0.00  0.00    -0.308 NA
ATOM      5  C   UNL     1      -0.369   1.232  -0.955  0.00  0.00    +0.117 C 
ATOM      6  C   UNL     1      -0.244  -0.263  -1.105  0.00  0.00    -0.000 C 
ATOM      7  C   UNL     1       0.945  -0.849  -1.267  0.00  0.00    +0.136 C 
ATOM      8  O   UNL     1       1.066  -2.191  -1.413  0.00  0.00    -0.441 OA
ATOM      9  C   UNL     1       0.008  -2.924  -1.803  0.00  0.00    +0.199 C 
ATOM     10  C   UNL     1      -1.255  -2.450  -1.663  0.00  0.00    +0.098 C 
ATOM     11  C   UNL     1      -1.505  -1.093  -1.068  0.00  0.00    +0.102 C 
ATOM     12  H   UNL     1       1.078   1.461   0.544  0.00  0.00    +0.123 HD
ENDROOT
BRANCH   1  15
ATOM     13  C   UNL     1       4.310  -4.252  -1.050  0.00  0.00    +0.008 A 
ATOM     14  C   UNL     1       4.367  -2.956  -1.506  0.00  0.00    +0.015 A 
ATOM     15  C   UNL     1       3.528  -2.018  -0.928  0.00  0.00    +0.013 A 
ATOM     16  S   UNL     1       2.658  -3.002   0.282  0.00  0.00    -0.097 S 
ATOM     17  C   UNL     1       3.441  -4.570  -0.056  0.00  0.00    +0.046 A 
ENDBRANCH   1  15
BRANCH  11  18
ATOM     18  C   UNL     1      -1.956  -1.251   0.361  0.00  0.00    +0.002 A 
ATOM     19  C   UNL     1      -3.124  -0.870   0.934  0.00  0.00    +0.012 A 
ATOM     20  C   UNL     1      -3.324  -1.120   2.279  0.00  0.00    +0.008 A 
ATOM     21  C   UNL     1      -2.346  -1.740   2.985  0.00  0.00    +0.045 A 
ATOM     22  S   UNL     1      -1.095  -1.995   1.737  0.00  0.00    -0.101 S 
ENDBRANCH  11  18
BRANCH   9  23
ATOM     23  N   UNL     1       0.209  -4.166  -2.350  0.00  0.00    -0.328 N 
ATOM     24  H   UNL     1      -0.651  -4.772  -2.671  0.00  0.00    +0.145 HD
ATOM     25  H   UNL     1       1.231  -4.557  -2.467  0.00  0.00    +0.145 HD
ENDBRANCH   9  23
BRANCH  10  26
ATOM     26  C   UNL     1      -2.363  -3.252  -2.086  0.00  0.00    +0.101 C 
ATOM     27  N   UNL     1      -3.242  -3.889  -2.422  0.00  0.00    -0.191 NA
ENDBRANCH  10  26
TORSDOF 4
