REMARK  Name = ZINC21325098
REMARK  8 active torsions:
REMARK  status: ('A' for Active; 'I' for Inactive)
REMARK    1  A    between atoms: C_1  and  C_2
REMARK    2  A    between atoms: C_2  and  C_23
REMARK    3  A    between atoms: N_3  and  N_4
REMARK    4  A    between atoms: C_8  and  S_11
REMARK    5  A    between atoms: N_9  and  N_10
REMARK    6  A    between atoms: S_11  and  C_12
REMARK    7  A    between atoms: C_12  and  C_13
REMARK    8  A    between atoms: N_15  and  C_16
REMARK                            x       y       z     vdW  Elec       q    Type
REMARK                         _______ _______ _______ _____ _____    ______ ____
ROOT
ATOM      1  N   UNL     1       1.073   1.727  -2.676  0.00  0.00    -0.204 N 
ATOM      2  C   UNL     1      -0.246   1.846  -2.264  0.00  0.00    +0.254 A 
ATOM      3  N   UNL     1      -1.246   2.277  -2.994  0.00  0.00    -0.109 NA
ATOM      4  N   UNL     1      -2.403   2.248  -2.204  0.00  0.00    -0.119 NA
ATOM      5  C   UNL     1      -2.072   1.794  -1.018  0.00  0.00    +0.210 A 
ATOM      6  N   UNL     1      -0.732   1.531  -1.025  0.00  0.00    -0.211 N 
ATOM      7  H   UNL     1       1.836   1.350  -1.980  0.00  0.00    +0.178 HD
ENDROOT
BRANCH   1  10
ATOM      8  C   UNL     1       3.715   1.460  -3.414  0.00  0.00    +0.068 C 
ATOM      9  C   UNL     1       2.671   1.977  -4.369  0.00  0.00    +0.070 C 
ATOM     10  N   UNL     1       1.434   2.088  -3.981  0.00  0.00    -0.184 NA
BRANCH   9  11
ATOM     11  C   UNL     1       3.048   2.355  -5.735  0.00  0.00    +0.035 A 
ATOM     12  C   UNL     1       2.253   2.846  -6.755  0.00  0.00    +0.017 A 
ATOM     13  C   UNL     1       2.845   3.132  -7.965  0.00  0.00    +0.008 A 
ATOM     14  C   UNL     1       4.178   2.925  -8.118  0.00  0.00    +0.046 A 
ATOM     15  S   UNL     1       4.655   2.309  -6.512  0.00  0.00    -0.095 S 
ENDBRANCH   9  11
ENDBRANCH   1  10
BRANCH   6  16
ATOM     16  N   UNL     1      -0.003   1.045   0.023  0.00  0.00    -0.294 N 
ATOM     17  H   UNL     1      -0.498   0.824   0.981  0.00  0.00    +0.163 HD
ATOM     18  H   UNL     1       1.077   0.874  -0.090  0.00  0.00    +0.163 HD
ENDBRANCH   6  16
BRANCH   5  19
ATOM     19  S   UNL     1      -3.165   1.565   0.345  0.00  0.00    -0.075 S 
BRANCH  19  20
ATOM     20  C   UNL     1      -4.779   2.093  -0.293  0.00  0.00    +0.173 C 
BRANCH  20  21
ATOM     21  C   UNL     1      -5.819   1.946   0.787  0.00  0.00    +0.228 C 
ATOM     22  O   UNL     1      -5.503   1.527   1.880  0.00  0.00    -0.275 OA
ATOM     23  N   UNL     1      -7.101   2.281   0.539  0.00  0.00    -0.284 N 
ATOM     24  H   UNL     1      -7.375   2.730  -0.427  0.00  0.00    +0.155 HD
BRANCH  23  25
ATOM     25  C   UNL     1      -8.084   2.057   1.510  0.00  0.00    +0.047 A 
ATOM     26  C   UNL     1      -7.775   2.194   2.857  0.00  0.00    +0.024 A 
ATOM     27  C   UNL     1      -8.748   1.976   3.812  0.00  0.00    +0.002 A 
ATOM     28  C   UNL     1     -10.026   1.612   3.430  0.00  0.00    +0.001 A 
ATOM     29  C   UNL     1     -10.336   1.470   2.090  0.00  0.00    +0.017 A 
ATOM     30  C   UNL     1      -9.368   1.691   1.129  0.00  0.00    +0.039 A 
ATOM     31 BR   UNL     1      -9.793   1.494  -0.704  0.00  0.00    -0.048 Br
ENDBRANCH  23  25
ENDBRANCH  20  21
ENDBRANCH  19  20
ENDBRANCH   5  19
TORSDOF 7
