REMARK  Name = ZINC41309951
REMARK  5 active torsions:
REMARK  status: ('A' for Active; 'I' for Inactive)
REMARK    1  A    between atoms: C_1  and  C_2
REMARK    2  A    between atoms: C_2  and  C_4
REMARK    3  A    between atoms: C_2  and  C_9
REMARK    4  A    between atoms: N_11  and  C_12
REMARK    5  A    between atoms: C_22  and  C_24
REMARK                            x       y       z     vdW  Elec       q    Type
REMARK                         _______ _______ _______ _____ _____    ______ ____
ROOT
ATOM      1  C   UNL     1      -3.575  -0.683  -1.021  0.00  0.00    +0.034 A 
ATOM      2  C   UNL     1      -4.068  -1.489  -0.002  0.00  0.00    +0.025 A 
ATOM      3  C   UNL     1      -5.333  -2.028  -0.105  0.00  0.00    +0.025 A 
ATOM      4  C   UNL     1      -6.115  -1.766  -1.224  0.00  0.00    +0.040 A 
ATOM      5  C   UNL     1      -5.627  -0.960  -2.241  0.00  0.00    -0.024 A 
ATOM      6  C   UNL     1      -4.358  -0.417  -2.135  0.00  0.00    +0.028 A 
ATOM      7  C   UNL     1      -6.452  -0.647  -3.462  0.00  0.00    +0.038 C 
ATOM      8  C   UNL     1      -7.557  -1.688  -3.643  0.00  0.00    +0.024 C 
ATOM      9  C   UNL     1      -8.330  -1.824  -2.325  0.00  0.00    +0.114 C 
ATOM     10  N   UNL     1      -7.398  -2.330  -1.308  0.00  0.00    -0.271 N 
ATOM     11  C   UNL     1      -7.768  -3.318  -0.470  0.00  0.00    +0.223 C 
ATOM     12  O   UNL     1      -7.015  -3.681   0.410  0.00  0.00    -0.275 OA
ENDROOT
BRANCH   1  15
ATOM     13  C   UNL     1      -1.302  -0.838  -0.334  0.00  0.00    +0.220 C 
ATOM     14  O   UNL     1      -1.542  -1.909   0.182  0.00  0.00    -0.275 OA
ATOM     15  N   UNL     1      -2.290  -0.135  -0.921  0.00  0.00    -0.285 N 
ATOM     16  H   UNL     1      -2.112   0.750  -1.274  0.00  0.00    +0.155 HD
BRANCH  13  18
ATOM     17  C   UNL     1       0.120   1.051   0.414  0.00  0.00    +0.017 C 
ATOM     18  C   UNL     1       0.103  -0.293  -0.317  0.00  0.00    +0.075 C 
BRANCH  18  19
ATOM     19  C   UNL     1       1.024  -1.278   0.405  0.00  0.00    +0.001 C 
ATOM     20  C   UNL     1       2.479  -0.767   0.368  0.00  0.00    +0.004 C 
ATOM     21  C   UNL     1       3.329  -2.050   0.192  0.00  0.00    +0.000 C 
ATOM     22  C   UNL     1       2.467  -2.901  -0.773  0.00  0.00    +0.000 C 
ATOM     23  C   UNL     1       1.017  -2.635  -0.320  0.00  0.00    +0.004 C 
ENDBRANCH  18  19
ENDBRANCH  13  18
ENDBRANCH   1  15
BRANCH  11  24
ATOM     24  C   UNL     1      -9.116  -3.973  -0.625  0.00  0.00    +0.076 C 
ATOM     25  C   UNL     1     -10.114  -3.817   0.524  0.00  0.00    +0.013 C 
ATOM     26  C   UNL     1      -9.431  -5.165   0.281  0.00  0.00    +0.013 C 
ENDBRANCH  11  24
TORSDOF 4
