REMARK  Name = ZINC14546173
REMARK  8 active torsions:
REMARK  status: ('A' for Active; 'I' for Inactive)
REMARK    1  A    between atoms: C_1  and  C_2
REMARK    2  A    between atoms: C_2  and  C_3
REMARK    3  A    between atoms: C_2  and  C_4
REMARK    4  A    between atoms: C_2  and  N_5
REMARK    5  A    between atoms: C_6  and  C_8
REMARK    6  A    between atoms: C_15  and  C_24
REMARK    7  A    between atoms: C_29  and  O_30
REMARK    8  A    between atoms: O_30  and  C_31
REMARK                            x       y       z     vdW  Elec       q    Type
REMARK                         _______ _______ _______ _____ _____    ______ ____
ROOT
ATOM      1  C   UNL     1      -0.221  -4.328   0.313  0.00  0.00    +0.058 A 
ATOM      2  C   UNL     1       0.319  -5.342  -0.476  0.00  0.00    +0.015 A 
ATOM      3  C   UNL     1       0.555  -5.123  -1.815  0.00  0.00    +0.001 A 
ATOM      4  C   UNL     1       0.262  -3.890  -2.374  0.00  0.00    +0.006 A 
ATOM      5  C   UNL     1      -0.263  -2.873  -1.607  0.00  0.00    -0.019 A 
ATOM      6  C   UNL     1      -0.527  -3.072  -0.249  0.00  0.00    +0.044 A 
ATOM      7  N   UNL     1      -1.075  -2.113   0.586  0.00  0.00    -0.336 N 
ATOM      8  C   UNL     1      -1.292  -0.776   0.011  0.00  0.00    +0.108 C 
ATOM      9  C   UNL     1      -1.783  -0.977  -1.407  0.00  0.00    +0.029 C 
ATOM     10  C   UNL     1      -0.546  -1.538  -2.176  0.00  0.00    +0.049 C 
ATOM     11  C   UNL     1      -0.916  -1.335  -3.599  0.00  0.00    -0.023 C 
ATOM     12  C   UNL     1      -1.736  -0.293  -3.678  0.00  0.00    -0.030 C 
ATOM     13  C   UNL     1      -2.006   0.265  -2.277  0.00  0.00    +0.033 C 
ATOM     14  H   UNL     1      -1.914  -2.457   1.029  0.00  0.00    +0.147 HD
ENDROOT
BRANCH   8  15
ATOM     15  C   UNL     1       0.002  -0.004   0.002  0.00  0.00    +0.015 A 
ATOM     16  C   UNL     1       1.208  -0.677  -0.013  0.00  0.00    +0.009 A 
ATOM     17  C   UNL     1       2.396   0.030  -0.021  0.00  0.00    +0.001 A 
ATOM     18  C   UNL     1       2.380   1.413  -0.013  0.00  0.00    +0.004 A 
ATOM     19  C   UNL     1       1.177   2.091   0.002  0.00  0.00    +0.046 A 
ATOM     20  C   UNL     1      -0.017   1.383   0.010  0.00  0.00    +0.125 A 
BRANCH  20  21
ATOM     21  O   UNL     1      -1.202   2.047   0.019  0.00  0.00    -0.495 OA
ATOM     22  C   UNL     1      -1.145   3.475   0.026  0.00  0.00    +0.277 C 
ENDBRANCH  20  21
ENDBRANCH   8  15
BRANCH   1  24
ATOM     23  N   UNL     1      -0.182  -5.770   2.287  0.00  0.00    -0.307 N 
ATOM     24  C   UNL     1      -0.473  -4.571   1.745  0.00  0.00    +0.246 C 
ATOM     25  O   UNL     1      -0.944  -3.689   2.438  0.00  0.00    -0.270 OA
ATOM     26  H   UNL     1       0.194  -6.474   1.735  0.00  0.00    +0.150 HD
BRANCH  23  28
ATOM     27  C   UNL     1      -1.923  -5.825   4.004  0.00  0.00    +0.031 C 
ATOM     28  C   UNL     1      -0.433  -6.011   3.710  0.00  0.00    +0.026 C 
ATOM     29  C   UNL     1      -0.018  -7.440   4.066  0.00  0.00    +0.031 C 
ATOM     30  C   UNL     1       0.380  -5.021   4.546  0.00  0.00    +0.031 C 
ENDBRANCH  23  28
ENDBRANCH   1  24
TORSDOF 4
