REMARK  Name = ZINC39429813
REMARK  7 active torsions:
REMARK  status: ('A' for Active; 'I' for Inactive)
REMARK    1  A    between atoms: C_4  and  C_7
REMARK    2  A    between atoms: N_10  and  C_19
REMARK    3  A    between atoms: C_19  and  C_20
REMARK    4  A    between atoms: C_20  and  C_21
REMARK    5  A    between atoms: N_23  and  C_24
REMARK    6  A    between atoms: C_24  and  C_25
REMARK    7  A    between atoms: C_27  and  C_31
REMARK                            x       y       z     vdW  Elec       q    Type
REMARK                         _______ _______ _______ _____ _____    ______ ____
ROOT
ATOM      1  C   UNL     1       5.746  -1.677  -3.048  0.00  0.00    -0.069 C 
ENDROOT
BRANCH   1   4
ATOM      2  C   UNL     1       5.914  -1.183   0.676  0.00  0.00    +0.187 C 
ATOM      3  C   UNL     1       6.064  -0.925  -0.806  0.00  0.00    -0.028 C 
ATOM      4  N   UNL     1       5.338  -1.869  -1.649  0.00  0.00    +0.385 N 
ATOM      5  C   UNL     1       3.889  -1.674  -1.540  0.00  0.00    -0.039 C 
ATOM      6  C   UNL     1       3.382  -2.448  -0.338  0.00  0.00    -0.022 A 
ATOM      7  C   UNL     1       2.578  -3.555  -0.517  0.00  0.00    +0.005 A 
ATOM      8  C   UNL     1       2.107  -4.246   0.586  0.00  0.00    +0.000 A 
ATOM      9  C   UNL     1       2.440  -3.826   1.861  0.00  0.00    +0.004 A 
ATOM     10  C   UNL     1       3.249  -2.720   2.040  0.00  0.00    +0.046 A 
ATOM     11  C   UNL     1       3.727  -2.033   0.933  0.00  0.00    +0.123 A 
ATOM     12  O   UNL     1       4.561  -0.968   1.096  0.00  0.00    -0.486 OA
ATOM     13  H   UNL     1       5.568  -2.810  -1.365  0.00  0.00    -0.081 HD
BRANCH   2  17
ATOM     14  C   UNL     1       8.489   1.462   2.826  0.00  0.00    +0.000 A 
ATOM     15  C   UNL     1       8.919   0.188   2.506  0.00  0.00    +0.000 A 
ATOM     16  C   UNL     1       8.085  -0.668   1.810  0.00  0.00    +0.007 A 
ATOM     17  C   UNL     1       6.822  -0.250   1.435  0.00  0.00    -0.009 A 
ATOM     18  C   UNL     1       6.392   1.024   1.757  0.00  0.00    +0.007 A 
ATOM     19  C   UNL     1       7.226   1.880   2.451  0.00  0.00    +0.000 A 
ENDBRANCH   2  17
ENDBRANCH   1   4
BRANCH   1  20
ATOM     20  C   UNL     1       7.220  -2.055  -3.206  0.00  0.00    +0.077 C 
BRANCH  20  21
ATOM     21  C   UNL     1       7.601  -1.990  -4.662  0.00  0.00    +0.212 C 
ATOM     22  O   UNL     1       6.776  -1.672  -5.492  0.00  0.00    -0.276 OA
ATOM     23  N   UNL     1       8.861  -2.284  -5.043  0.00  0.00    -0.310 N 
ATOM     24  H   UNL     1       9.521  -2.538  -4.380  0.00  0.00    +0.149 HD
BRANCH  23  25
ATOM     25  C   UNL     1       9.232  -2.220  -6.459  0.00  0.00    +0.161 C 
BRANCH  25  26
ATOM     26  C   UNL     1      10.684  -2.592  -6.615  0.00  0.00    +0.076 C 
ATOM     27  C   UNL     1      11.124  -3.671  -7.267  0.00  0.00    +0.030 C 
ATOM     28  C   UNL     1      12.634  -3.587  -7.134  0.00  0.00    +0.153 C 
ATOM     29  N   UNL     1      12.830  -2.354  -6.352  0.00  0.00    -0.297 N 
ATOM     30  N   UNL     1      11.717  -1.876  -6.119  0.00  0.00    -0.181 NA
ATOM     31  H   UNL     1      13.681  -1.982  -6.074  0.00  0.00    +0.183 HD
BRANCH  28  32
ATOM     32  C   UNL     1      13.171  -4.784  -6.393  0.00  0.00    -0.020 A 
ATOM     33  C   UNL     1      13.098  -4.833  -5.013  0.00  0.00    +0.006 A 
ATOM     34  C   UNL     1      13.591  -5.931  -4.334  0.00  0.00    +0.000 A 
ATOM     35  C   UNL     1      14.157  -6.980  -5.033  0.00  0.00    +0.000 A 
ATOM     36  C   UNL     1      14.229  -6.931  -6.413  0.00  0.00    +0.000 A 
ATOM     37  C   UNL     1      13.733  -5.835  -7.093  0.00  0.00    +0.006 A 
ENDBRANCH  28  32
ENDBRANCH  25  26
ENDBRANCH  23  25
ENDBRANCH  20  21
ENDBRANCH   1  20
TORSDOF 7
