REMARK  Name = ZINC45870440
REMARK  6 active torsions:
REMARK  status: ('A' for Active; 'I' for Inactive)
REMARK    1  A    between atoms: C_1  and  C_2
REMARK    2  A    between atoms: C_3  and  C_13
REMARK    3  A    between atoms: C_5  and  C_7
REMARK    4  A    between atoms: C_13  and  C_14
REMARK    5  A    between atoms: N_16  and  C_17
REMARK    6  A    between atoms: C_17  and  C_18
REMARK                            x       y       z     vdW  Elec       q    Type
REMARK                         _______ _______ _______ _____ _____    ______ ____
ROOT
ATOM      1  C   UNL     1      -3.001  -0.228  -1.406  0.00  0.00    +0.219 C 
ATOM      2  O   UNL     1      -2.251  -0.451  -2.333  0.00  0.00    -0.275 OA
ATOM      3  N   UNL     1      -4.271   0.156  -1.644  0.00  0.00    -0.315 N 
ATOM      4  H   UNL     1      -4.871   0.333  -0.903  0.00  0.00    +0.149 HD
ENDROOT
BRANCH   1   5
ATOM      5  C   UNL     1      -2.513  -0.381   0.012  0.00  0.00    +0.154 C 
BRANCH   5   8
ATOM      6  C   UNL     1      -0.018   1.503   0.010  0.00  0.00    +0.088 C 
ATOM      7  C   UNL     1       0.002  -0.004   0.002  0.00  0.00    +0.126 A 
ATOM      8  C   UNL     1      -1.071  -0.816   0.003  0.00  0.00    +0.091 A 
ATOM      9  N   UNL     1      -0.627  -2.083  -0.006  0.00  0.00    -0.213 NA
ATOM     10  C   UNL     1       0.685  -2.068  -0.012  0.00  0.00    +0.228 A 
ATOM     11  O   UNL     1       1.098  -0.788  -0.013  0.00  0.00    -0.440 OA
BRANCH  10  12
ATOM     12  C   UNL     1       1.562  -3.258  -0.023  0.00  0.00    +0.037 A 
ATOM     13  C   UNL     1       1.006  -4.538  -0.033  0.00  0.00    +0.013 A 
ATOM     14  C   UNL     1       1.830  -5.644  -0.043  0.00  0.00    +0.001 A 
ATOM     15  C   UNL     1       3.204  -5.487  -0.043  0.00  0.00    +0.000 A 
ATOM     16  C   UNL     1       3.762  -4.221  -0.033  0.00  0.00    +0.001 A 
ATOM     17  C   UNL     1       2.949  -3.106  -0.028  0.00  0.00    +0.013 A 
ENDBRANCH  10  12
ENDBRANCH   5   8
ENDBRANCH   1   5
BRANCH   3  18
ATOM     18  C   UNL     1      -4.745   0.304  -3.022  0.00  0.00    +0.108 C 
BRANCH  18  19
ATOM     19  C   UNL     1      -6.210   0.746  -3.012  0.00  0.00    +0.019 C 
ATOM     20  C   UNL     1      -7.060  -0.356  -2.385  0.00  0.00    +0.018 C 
ATOM     21  C   UNL     1      -8.133  -0.867  -3.370  0.00  0.00    +0.050 C 
ATOM     22  C   UNL     1      -8.915   0.367  -3.791  0.00  0.00    -0.036 A 
ATOM     23  C   UNL     1     -10.263   0.526  -3.640  0.00  0.00    +0.004 A 
ATOM     24  C   UNL     1     -10.850   1.710  -4.069  0.00  0.00    +0.000 A 
ATOM     25  C   UNL     1     -10.080   2.707  -4.639  0.00  0.00    +0.000 A 
ATOM     26  C   UNL     1      -8.709   2.538  -4.789  0.00  0.00    +0.004 A 
ATOM     27  C   UNL     1      -8.139   1.373  -4.364  0.00  0.00    -0.036 A 
ATOM     28  C   UNL     1      -6.657   1.044  -4.460  0.00  0.00    +0.054 C 
ATOM     29  C   UNL     1      -6.593  -0.292  -5.184  0.00  0.00    -0.036 A 
ATOM     30  C   UNL     1      -7.369  -1.295  -4.613  0.00  0.00    -0.036 A 
ATOM     31  C   UNL     1      -7.407  -2.545  -5.160  0.00  0.00    +0.004 A 
ATOM     32  C   UNL     1      -6.656  -2.800  -6.301  0.00  0.00    +0.000 A 
ATOM     33  C   UNL     1      -5.885  -1.802  -6.869  0.00  0.00    +0.000 A 
ATOM     34  C   UNL     1      -5.852  -0.536  -6.305  0.00  0.00    +0.004 A 
ENDBRANCH  18  19
ENDBRANCH   3  18
TORSDOF 5
