REMARK  Name = ZINC63270051
REMARK  4 active torsions:
REMARK  status: ('A' for Active; 'I' for Inactive)
REMARK    1  A    between atoms: C_1  and  C_2
REMARK    2  A    between atoms: C_13  and  C_15
REMARK    3  A    between atoms: C_15  and  C_16
REMARK    4  A    between atoms: C_30  and  C_31
REMARK                            x       y       z     vdW  Elec       q    Type
REMARK                         _______ _______ _______ _____ _____    ______ ____
ROOT
ATOM      1  C   UNL     1      -0.019   1.526   0.010  0.00  0.00    +0.013 C 
ATOM      2  C   UNL     1       0.002  -0.004   0.002  0.00  0.00    +0.034 C 
ATOM      3  C   UNL     1      -1.414  -0.524   0.009  0.00  0.00    -0.001 A 
ATOM      4  C   UNL     1      -2.348   0.129  -0.755  0.00  0.00    +0.019 A 
ATOM      5  C   UNL     1      -3.663  -0.318  -0.787  0.00  0.00    +0.028 A 
ATOM      6  C   UNL     1      -4.044  -1.442  -0.036  0.00  0.00    +0.139 A 
ATOM      7  C   UNL     1      -3.092  -2.093   0.734  0.00  0.00    +0.093 A 
ATOM      8  C   UNL     1      -1.782  -1.633   0.758  0.00  0.00    +0.139 A 
ATOM      9  O   UNL     1      -0.888  -2.296   1.544  0.00  0.00    -0.425 OA
ATOM     10  C   UNL     1       0.415  -1.979   1.408  0.00  0.00    +0.316 C 
ATOM     11  O   UNL     1       1.277  -2.826   1.419  0.00  0.00    -0.250 OA
ATOM     12  C   UNL     1       0.747  -0.510   1.241  0.00  0.00    +0.114 C 
ATOM     13  O   UNL     1      -5.359  -1.649  -0.254  0.00  0.00    -0.462 OA
ATOM     14  C   UNL     1      -5.862  -0.731  -1.096  0.00  0.00    +0.204 A 
ATOM     15  C   UNL     1      -4.888   0.129  -1.475  0.00  0.00    +0.028 A 
ENDROOT
BRANCH  15  16
ATOM     16  C   UNL     1      -5.025   1.284  -2.395  0.00  0.00    -0.014 A 
ATOM     17  C   UNL     1      -4.536   2.535  -2.024  0.00  0.00    +0.008 A 
ATOM     18  C   UNL     1      -4.666   3.606  -2.885  0.00  0.00    +0.001 A 
ATOM     19  C   UNL     1      -5.280   3.440  -4.113  0.00  0.00    +0.000 A 
ATOM     20  C   UNL     1      -5.769   2.200  -4.486  0.00  0.00    +0.001 A 
ATOM     21  C   UNL     1      -5.639   1.121  -3.636  0.00  0.00    +0.008 A 
ENDBRANCH  15  16
BRANCH  12  22
ATOM     22  C   UNL     1       0.290   0.270   2.476  0.00  0.00    +0.111 C 
BRANCH  22  23
ATOM     23  C   UNL     1       1.113  -0.147   3.667  0.00  0.00    +0.217 C 
ATOM     24  O   UNL     1       1.980  -0.986   3.541  0.00  0.00    -0.276 OA
ATOM     25  N   UNL     1       0.886   0.411   4.872  0.00  0.00    -0.295 N 
ATOM     26  C   UNL     1       1.682   0.023   6.046  0.00  0.00    +0.114 C 
ATOM     27  C   UNL     1       2.491   1.233   6.529  0.00  0.00    +0.074 C 
ATOM     28  C   UNL     1       1.589   2.442   6.556  0.00  0.00    +0.039 A 
ATOM     29  H   UNL     1      -0.938   4.121   5.822  0.00  0.00    +0.166 HD
ATOM     30  C   UNL     1       0.414   2.531   5.897  0.00  0.00    +0.054 A 
ATOM     31  N   UNL     1      -0.102   3.762   6.158  0.00  0.00    -0.348 N 
ATOM     32  C   UNL     1       0.774   4.392   6.976  0.00  0.00    +0.171 A 
ATOM     33  N   UNL     1       1.782   3.593   7.208  0.00  0.00    -0.349 N 
ATOM     34  C   UNL     1      -0.163   1.433   5.047  0.00  0.00    +0.162 C 
ATOM     35  H   UNL     1       2.548   3.802   7.765  0.00  0.00    +0.166 HD
ENDBRANCH  22  23
ENDBRANCH  12  22
TORSDOF 3
