REMARK  Name = ZINC63309960
REMARK  4 active torsions:
REMARK  status: ('A' for Active; 'I' for Inactive)
REMARK    1  A    between atoms: C_3  and  C_19
REMARK    2  A    between atoms: C_4  and  O_8
REMARK    3  A    between atoms: O_8  and  S_9
REMARK    4  A    between atoms: S_9  and  C_12
REMARK                            x       y       z     vdW  Elec       q    Type
REMARK                         _______ _______ _______ _____ _____    ______ ____
ROOT
ATOM      1  C   UNL     1      -0.017   1.382   0.010  0.00  0.00    +0.021 A 
ATOM      2  C   UNL     1       1.163   2.093   0.002  0.00  0.00    +0.018 A 
ATOM      3  C   UNL     1       2.385   1.416  -0.013  0.00  0.00    +0.081 A 
ATOM      4  C   UNL     1       2.400   0.014  -0.021  0.00  0.00    +0.170 A 
ATOM      5  C   UNL     1       1.204  -0.686  -0.013  0.00  0.00    +0.069 A 
ATOM      6  C   UNL     1       0.002  -0.004   0.002  0.00  0.00    +0.045 A 
ATOM      7 CL   UNL     1      -1.492  -0.888   0.011  0.00  0.00    -0.083 Cl
ENDROOT
BRANCH   3   8
ATOM      8  C   UNL     1       3.652   2.171  -0.022  0.00  0.00    +0.245 C 
ATOM      9  O   UNL     1       4.713   1.578  -0.035  0.00  0.00    -0.270 OA
ATOM     10  N   UNL     1       3.633   3.519  -0.015  0.00  0.00    -0.325 N 
ATOM     11  H   UNL     1       2.786   3.992  -0.004  0.00  0.00    +0.145 HD
ATOM     12  H   UNL     1       4.466   4.016  -0.020  0.00  0.00    +0.145 HD
ENDBRANCH   3   8
BRANCH   4  13
ATOM     13  O   UNL     1       3.581  -0.654  -0.036  0.00  0.00    -0.341 OA
BRANCH  13  14
ATOM     14  S   UNL     1       4.133  -0.967   1.347  0.00  0.00    +0.152 S 
ATOM     15  O   UNL     1       5.448  -1.470   1.155  0.00  0.00    -0.131 OA
ATOM     16  O   UNL     1       3.863   0.168   2.159  0.00  0.00    -0.131 OA
BRANCH  14  17
ATOM     17  C   UNL     1       3.177  -2.294   2.003  0.00  0.00    +0.146 A 
ATOM     18  C   UNL     1       2.031  -2.035   2.741  0.00  0.00    +0.035 A 
ATOM     19  C   UNL     1       1.310  -3.109   3.237  0.00  0.00    +0.042 A 
ATOM     20  C   UNL     1       1.754  -4.395   2.982  0.00  0.00    +0.129 A 
ATOM     21  N   UNL     1       2.849  -4.603   2.275  0.00  0.00    -0.242 NA
ATOM     22  C   UNL     1       3.556  -3.604   1.783  0.00  0.00    +0.143 A 
ATOM     23 CL   UNL     1       0.860  -5.750   3.598  0.00  0.00    -0.062 Cl
ENDBRANCH  14  17
ENDBRANCH  13  14
ENDBRANCH   4  13
TORSDOF 4
