REMARK  Name = ZINC38696506
REMARK  9 active torsions:
REMARK  status: ('A' for Active; 'I' for Inactive)
REMARK    1  A    between atoms: C_1  and  O_2
REMARK    2  A    between atoms: O_2  and  C_3
REMARK    3  A    between atoms: C_3  and  C_5
REMARK    4  A    between atoms: C_7  and  N_16
REMARK    5  A    between atoms: C_17  and  C_19
REMARK    6  A    between atoms: C_19  and  N_20
REMARK    7  A    between atoms: C_25  and  C_27
REMARK    8  A    between atoms: C_27  and  C_28
REMARK    9  A    between atoms: C_28  and  O_29
REMARK                            x       y       z     vdW  Elec       q    Type
REMARK                         _______ _______ _______ _____ _____    ______ ____
ROOT
ATOM      1  N   UNL     1      -1.651  -2.741   1.306  0.00  0.00    -0.288 N 
ATOM      2  C   UNL     1      -2.821  -3.256   1.733  0.00  0.00    +0.200 C 
ATOM      3  O   UNL     1      -2.885  -3.800   2.815  0.00  0.00    -0.278 OA
ATOM      4  H   UNL     1      -1.617  -2.233   0.481  0.00  0.00    +0.155 HD
ENDROOT
BRANCH   1   6
ATOM      5  C   UNL     1      -0.356  -3.802   3.263  0.00  0.00    +0.234 C 
ATOM      6  C   UNL     1      -0.516  -2.934   2.035  0.00  0.00    +0.054 C 
ATOM      7  C   UNL     1       0.730  -2.378   1.803  0.00  0.00    +0.036 A 
ATOM      8  C   UNL     1       1.664  -2.861   2.835  0.00  0.00    +0.046 A 
ATOM      9  N   UNL     1       1.047  -3.674   3.671  0.00  0.00    -0.367 N 
ATOM     10  C   UNL     1       3.008  -2.409   2.785  0.00  0.00    +0.026 A 
ATOM     11  C   UNL     1       3.398  -1.557   1.805  0.00  0.00    +0.003 A 
ATOM     12  C   UNL     1       2.511  -1.100   0.828  0.00  0.00    +0.021 A 
ATOM     13  C   UNL     1       1.210  -1.488   0.810  0.00  0.00    +0.052 A 
ATOM     14 CL   UNL     1       0.140  -0.898  -0.423  0.00  0.00    -0.083 Cl
ATOM     15  H   UNL     1       1.454  -4.115   4.432  0.00  0.00    +0.161 HD
BRANCH   5  16
ATOM     16  C   UNL     1      -0.669  -5.238   2.929  0.00  0.00    +0.335 C 
ATOM     17  O   UNL     1       0.125  -5.901   2.305  0.00  0.00    -0.248 OA
BRANCH  16  19
ATOM     18  C   UNL     1      -2.063  -7.146   2.972  0.00  0.00    +0.280 C 
ATOM     19  O   UNL     1      -1.832  -5.780   3.324  0.00  0.00    -0.466 OA
ENDBRANCH  16  19
ENDBRANCH   5  16
ENDBRANCH   1   6
BRANCH   2  20
ATOM     20  C   UNL     1      -4.049  -3.156   0.866  0.00  0.00    +0.019 C 
BRANCH  20  21
ATOM     21  N   UNL     1      -5.208  -3.690   1.594  0.00  0.00    +0.387 N 
ATOM     22  C   UNL     1      -5.496  -2.830   2.749  0.00  0.00    -0.078 C 
ATOM     23  C   UNL     1      -6.651  -3.426   3.557  0.00  0.00    -0.019 C 
ATOM     24  C   UNL     1      -7.894  -3.522   2.667  0.00  0.00    -0.003 C 
ATOM     25  C   UNL     1      -7.559  -4.359   1.429  0.00  0.00    -0.015 C 
ATOM     26  C   UNL     1      -6.371  -3.729   0.699  0.00  0.00    -0.066 C 
ATOM     27  H   UNL     1      -5.001  -4.623   1.916  0.00  0.00    -0.081 HD
BRANCH  26  28
ATOM     28  C   UNL     1      -6.033  -4.562  -0.539  0.00  0.00    +0.012 C 
BRANCH  28  29
ATOM     29  C   UNL     1      -7.209  -4.521  -1.517  0.00  0.00    +0.154 C 
BRANCH  29  30
ATOM     30  O   UNL     1      -6.924  -5.360  -2.639  0.00  0.00    -0.395 OA
ATOM     31  H   UNL     1      -7.628  -5.382  -3.301  0.00  0.00    +0.209 HD
ENDBRANCH  29  30
ENDBRANCH  28  29
ENDBRANCH  26  28
ENDBRANCH  20  21
ENDBRANCH   2  20
TORSDOF 8
