REMARK  Name = ZINC09286083
REMARK  6 active torsions:
REMARK  status: ('A' for Active; 'I' for Inactive)
REMARK    1  A    between atoms: C_10  and  C_12
REMARK    2  A    between atoms: C_12  and  O_13
REMARK    3  A    between atoms: O_13  and  C_14
REMARK    4  A    between atoms: C_17  and  C_21
REMARK    5  A    between atoms: C_21  and  N_60
REMARK    6  A    between atoms: N_24  and  C_27
REMARK                            x       y       z     vdW  Elec       q    Type
REMARK                         _______ _______ _______ _____ _____    ______ ____
ROOT
ATOM      1  C   UNL     1       6.367  -1.798  -0.066  0.00  0.00    +0.202 A 
ATOM      2  C   UNL     1       5.768  -3.008  -0.062  0.00  0.00    +0.244 A 
ATOM      3  O   UNL     1       6.494  -4.135  -0.080  0.00  0.00    -0.466 OA
ATOM      4  C   UNL     1       7.832  -4.117  -0.092  0.00  0.00    +0.092 A 
ATOM      5  C   UNL     1       8.512  -2.953  -0.092  0.00  0.00    +0.094 A 
ATOM      6  C   UNL     1       7.788  -1.734  -0.079  0.00  0.00    +0.226 A 
ATOM      7  O   UNL     1       8.369  -0.659  -0.078  0.00  0.00    -0.284 OA
ENDROOT
BRANCH   1   8
ATOM      8  O   UNL     1       5.624  -0.658  -0.053  0.00  0.00    -0.476 OA
BRANCH   8   9
ATOM      9  C   UNL     1       4.203  -0.810  -0.041  0.00  0.00    +0.325 C 
BRANCH   9  19
ATOM     10  C   UNL     1      -0.751  -2.278  -0.004  0.00  0.00    +0.000 A 
ATOM     11  C   UNL     1       0.563  -2.711  -0.019  0.00  0.00    +0.002 A 
ATOM     12  C   UNL     1       1.594  -1.796  -0.024  0.00  0.00    +0.024 A 
ATOM     13  C   UNL     1       1.321  -0.427  -0.013  0.00  0.00    +0.040 A 
ATOM     14  C   UNL     1       0.002  -0.004   0.002  0.00  0.00    -0.024 A 
ATOM     15  C   UNL     1      -1.029  -0.924   0.006  0.00  0.00    +0.005 A 
ATOM     16  C   UNL     1      -0.018   1.508   0.010  0.00  0.00    +0.056 C 
ATOM     17  C   UNL     1       1.464   1.915  -0.002  0.00  0.00    +0.118 C 
ATOM     18  N   UNL     1       2.209   0.653  -0.015  0.00  0.00    -0.268 N 
ATOM     19  C   UNL     1       3.553   0.549  -0.028  0.00  0.00    +0.257 C 
ATOM     20  O   UNL     1       4.238   1.550  -0.029  0.00  0.00    -0.272 OA
ENDBRANCH   9  19
ENDBRANCH   8   9
ENDBRANCH   1   8
BRANCH   4  21
ATOM     21  C   UNL     1       8.591  -5.419  -0.106  0.00  0.00    -0.003 C 
BRANCH  21  27
ATOM     22  C   UNL     1       9.765  -4.922   1.953  0.00  0.00    -0.059 C 
ATOM     23  C   UNL     1       9.946  -5.360   3.408  0.00  0.00    +0.086 C 
ATOM     24  N   UNL     1      10.470  -6.732   3.443  0.00  0.00    -0.333 N 
ATOM     25  C   UNL     1       9.554  -7.660   2.765  0.00  0.00    +0.086 C 
ATOM     26  C   UNL     1       9.373  -7.222   1.309  0.00  0.00    -0.059 C 
ATOM     27  N   UNL     1       8.825  -5.850   1.289  0.00  0.00    +0.386 N 
ATOM     28  H   UNL     1       7.932  -5.840   1.796  0.00  0.00    -0.081 HD
BRANCH  24  29
ATOM     29  C   UNL     1      10.716  -7.142   4.757  0.00  0.00    +0.030 A 
ATOM     30  C   UNL     1      10.113  -8.290   5.252  0.00  0.00    +0.026 A 
ATOM     31  C   UNL     1      10.361  -8.696   6.548  0.00  0.00    +0.040 A 
ATOM     32  C   UNL     1      11.203  -7.952   7.358  0.00  0.00    +0.124 A 
ATOM     33  C   UNL     1      11.801  -6.804   6.869  0.00  0.00    +0.040 A 
ATOM     34  C   UNL     1      11.560  -6.397   5.571  0.00  0.00    +0.026 A 
ATOM     35  F   UNL     1      11.440  -8.348   8.628  0.00  0.00    -0.205 F 
ENDBRANCH  24  29
ENDBRANCH  21  27
ENDBRANCH   4  21
TORSDOF 6
