REMARK  Name = ZINC02516048
REMARK  6 active torsions:
REMARK  status: ('A' for Active; 'I' for Inactive)
REMARK    1  A    between atoms: C_1  and  N_37
REMARK    2  A    between atoms: C_2  and  C_3
REMARK    3  A    between atoms: C_2  and  N_37
REMARK    4  A    between atoms: C_5  and  C_6
REMARK    5  A    between atoms: C_5  and  N_37
REMARK    6  A    between atoms: C_9  and  N_13
REMARK                            x       y       z     vdW  Elec       q    Type
REMARK                         _______ _______ _______ _____ _____    ______ ____
ROOT
ATOM      1  C   UNL     1       1.177   1.782   0.000  0.00  0.00    -0.061 A 
ATOM      2  C   UNL     1      -0.013   1.076   0.008  0.00  0.00    +0.024 A 
ATOM      3  C   UNL     1      -1.218   1.748   0.017  0.00  0.00    +0.068 A 
ATOM      4  C   UNL     1      -1.235   3.145   0.030  0.00  0.00    +0.104 A 
ATOM      5  C   UNL     1      -0.031   3.851   0.023  0.00  0.00    +0.068 A 
ATOM      6  C   UNL     1       1.168   3.166   0.008  0.00  0.00    +0.024 A 
ATOM      7 CL   UNL     1      -0.040   5.587   0.032  0.00  0.00    -0.081 Cl
ATOM      8 CL   UNL     1      -2.710   0.860   0.019  0.00  0.00    -0.081 Cl
ENDROOT
BRANCH   4   9
ATOM      9  N   UNL     1      -2.429   3.819   0.045  0.00  0.00    -0.216 NA
ATOM     10  C   UNL     1      -3.011   4.148  -1.084  0.00  0.00    +0.181 C 
ATOM     11  N   UNL     1      -2.490   3.861  -2.314  0.00  0.00    -0.316 N 
ATOM     12  C   UNL     1      -3.399   4.370  -3.350  0.00  0.00    +0.123 C 
ATOM     13  C   UNL     1      -4.553   5.020  -2.566  0.00  0.00    +0.123 C 
ATOM     14  N   UNL     1      -4.198   4.819  -1.155  0.00  0.00    -0.316 N 
ATOM     15  H   UNL     1      -1.655   3.394  -2.477  0.00  0.00    +0.149 HD
ATOM     16  H   UNL     1      -4.724   5.114  -0.395  0.00  0.00    +0.149 HD
ENDBRANCH   4   9
BRANCH   1  17
ATOM     17  C   UNL     1       2.489   1.041  -0.016  0.00  0.00    -0.043 C 
BRANCH  17  19
ATOM     18  C   UNL     1       1.975  -0.108  -2.084  0.00  0.00    -0.096 C 
ATOM     19  N   UNL     1       2.901   0.833  -1.420  0.00  0.00    +0.381 N 
ATOM     20  H   UNL     1       2.873   1.733  -1.913  0.00  0.00    -0.082 HD
BRANCH  19  21
ATOM     21  C   UNL     1       4.280   0.303  -1.468  0.00  0.00    -0.063 C 
BRANCH  21  22
ATOM     22  C   UNL     1       4.761   0.308  -2.921  0.00  0.00    +0.090 C 
ATOM     23 CL   UNL     1       6.452  -0.311  -2.997  0.00  0.00    -0.127 Cl
ENDBRANCH  21  22
ENDBRANCH  19  21
ENDBRANCH  17  19
ENDBRANCH   1  17
TORSDOF 5
