REMARK  Name = ZINC13024043
REMARK  16 active torsions:
REMARK  status: ('A' for Active; 'I' for Inactive)
REMARK    1  A    between atoms: C_1  and  C_2
REMARK    2  A    between atoms: C_2  and  C_3
REMARK    3  A    between atoms: C_3  and  C_4
REMARK    4  A    between atoms: C_3  and  C_5
REMARK    5  A    between atoms: C_3  and  N_6
REMARK    6  A    between atoms: C_7  and  C_9
REMARK    7  A    between atoms: C_9  and  C_11
REMARK    8  A    between atoms: C_9  and  N_21
REMARK    9  A    between atoms: C_15  and  O_19
REMARK   10  A    between atoms: C_16  and  O_17
REMARK   11  A    between atoms: O_17  and  C_18
REMARK   12  A    between atoms: O_19  and  C_20
REMARK   13  A    between atoms: N_21  and  C_22
REMARK   14  A    between atoms: C_22  and  C_23
REMARK   15  A    between atoms: C_29  and  C_31
REMARK   16  A    between atoms: C_31  and  N_32
REMARK                            x       y       z     vdW  Elec       q    Type
REMARK                         _______ _______ _______ _____ _____    ______ ____
ROOT
ATOM      1  C   UNL     1      -0.076   0.654   0.061  0.00  0.00    +0.196 C 
ENDROOT
BRANCH   1   2
ATOM      2  C   UNL     1      -0.556   1.657   1.079  0.00  0.00    +0.027 A 
ATOM      3  C   UNL     1       0.302   2.638   1.541  0.00  0.00    +0.010 A 
ATOM      4  C   UNL     1      -0.137   3.562   2.470  0.00  0.00    +0.004 A 
ATOM      5  C   UNL     1      -1.432   3.503   2.950  0.00  0.00    +0.049 A 
ATOM      6  C   UNL     1      -2.295   2.519   2.495  0.00  0.00    +0.162 A 
ATOM      7  C   UNL     1      -1.855   1.592   1.555  0.00  0.00    +0.167 A 
BRANCH   7   8
ATOM      8  O   UNL     1      -2.699   0.625   1.106  0.00  0.00    -0.491 OA
ATOM      9  C   UNL     1      -2.814  -0.557   1.901  0.00  0.00    +0.277 C 
ENDBRANCH   7   8
BRANCH   6  10
ATOM     10  O   UNL     1      -3.570   2.460   2.966  0.00  0.00    -0.491 OA
ATOM     11  C   UNL     1      -3.952   3.444   3.929  0.00  0.00    +0.277 C 
ENDBRANCH   6  10
ENDBRANCH   1   2
BRANCH   1  13
ATOM     12  N   UNL     1       2.199   0.227   0.933  0.00  0.00    -0.308 N 
ATOM     13  C   UNL     1       1.425   0.730  -0.049  0.00  0.00    +0.239 C 
ATOM     14  O   UNL     1       1.937   1.243  -1.022  0.00  0.00    -0.273 OA
ATOM     15  H   UNL     1       1.791  -0.124   1.740  0.00  0.00    +0.149 HD
BRANCH  12  16
ATOM     16  C   UNL     1       3.656   0.209   0.781  0.00  0.00    +0.029 C 
ATOM     17  C   UNL     1       4.030  -0.623  -0.448  0.00  0.00    +0.031 C 
ATOM     18  C   UNL     1       4.168   1.640   0.603  0.00  0.00    +0.031 C 
BRANCH  16  20
ATOM     19  C   UNL     1       5.813  -0.428   1.869  0.00  0.00    +0.006 C 
ATOM     20  C   UNL     1       4.291  -0.409   2.028  0.00  0.00    +0.022 C 
ENDBRANCH  16  20
ENDBRANCH  12  16
ENDBRANCH   1  13
BRANCH   1  21
ATOM     21  N   UNL     1      -0.677   0.954  -1.241  0.00  0.00    -0.280 N 
ATOM     22  C   UNL     1      -1.462   0.042  -1.847  0.00  0.00    +0.238 C 
ATOM     23  O   UNL     1      -1.760  -0.982  -1.269  0.00  0.00    -0.274 OA
BRANCH  21  24
ATOM     24  C   UNL     1      -0.424   2.246  -1.884  0.00  0.00    +0.144 C 
BRANCH  24  25
ATOM     25  C   UNL     1      -1.415   3.262  -1.378  0.00  0.00    -0.030 A 
ATOM     26  C   UNL     1      -2.686   3.316  -1.919  0.00  0.00    +0.005 A 
ATOM     27  C   UNL     1      -3.597   4.245  -1.451  0.00  0.00    +0.000 A 
ATOM     28  C   UNL     1      -3.234   5.126  -0.451  0.00  0.00    +0.000 A 
ATOM     29  C   UNL     1      -1.961   5.076   0.086  0.00  0.00    +0.000 A 
ATOM     30  C   UNL     1      -1.051   4.144  -0.378  0.00  0.00    +0.005 A 
ENDBRANCH  24  25
ENDBRANCH  21  24
BRANCH  22  31
ATOM     31  C   UNL     1      -1.972   0.295  -3.243  0.00  0.00    +0.241 C 
BRANCH  31  32
ATOM     32  N   UNL     1      -2.831  -0.817  -3.657  0.00  0.00    -0.235 N 
ATOM     33  C   UNL     1      -4.190  -0.918  -3.476  0.00  0.00    +0.090 A 
ATOM     34  C   UNL     1      -5.151  -0.098  -2.896  0.00  0.00    +0.029 A 
ATOM     35  C   UNL     1      -6.459  -0.494  -2.873  0.00  0.00    +0.002 A 
ATOM     36  C   UNL     1      -6.838  -1.712  -3.424  0.00  0.00    +0.002 A 
ATOM     37  C   UNL     1      -5.915  -2.535  -3.999  0.00  0.00    +0.032 A 
ATOM     38  C   UNL     1      -4.567  -2.151  -4.036  0.00  0.00    +0.113 A 
ATOM     39  N   UNL     1      -3.455  -2.737  -4.523  0.00  0.00    -0.129 NA
ATOM     40  N   UNL     1      -2.430  -1.985  -4.323  0.00  0.00    -0.064 NA
ENDBRANCH  31  32
ENDBRANCH  22  31
ENDBRANCH   1  21
TORSDOF 11
