REMARK  Name = ZINC48429084
REMARK  4 active torsions:
REMARK  status: ('A' for Active; 'I' for Inactive)
REMARK    1  A    between atoms: C_6  and  O_7
REMARK    2  A    between atoms: O_7  and  C_8
REMARK    3  A    between atoms: C_8  and  C_9
REMARK    4  A    between atoms: C_11  and  C_14
REMARK                            x       y       z     vdW  Elec       q    Type
REMARK                         _______ _______ _______ _____ _____    ______ ____
ROOT
ATOM      1  C   UNL     1      -1.070  -2.126   0.001  0.00  0.00    +0.308 C 
ENDROOT
BRANCH   1   2
ATOM      2  C   UNL     1      -2.454  -2.722   0.011  0.00  0.00    +0.209 A 
ATOM      3  N   UNL     1      -3.157  -3.029   1.103  0.00  0.00    -0.188 NA
ATOM      4  C   UNL     1      -4.325  -3.529   0.761  0.00  0.00    +0.259 A 
ATOM      5  O   UNL     1      -4.389  -3.551  -0.583  0.00  0.00    -0.333 OA
ATOM      6  N   UNL     1      -3.159  -3.014  -1.046  0.00  0.00    -0.057 NA
BRANCH   4   7
ATOM      7  C   UNL     1      -5.377  -3.986   1.686  0.00  0.00    +0.046 A 
ATOM      8  C   UNL     1      -6.623  -4.526   1.200  0.00  0.00    +0.021 A 
ATOM      9  C   UNL     1      -7.504  -4.908   2.148  0.00  0.00    +0.046 A 
ATOM     10  S   UNL     1      -6.643  -4.538   3.662  0.00  0.00    -0.104 S 
ATOM     11  C   UNL     1      -5.211  -3.923   3.040  0.00  0.00    +0.058 A 
ENDBRANCH   4   7
ENDBRANCH   1   2
BRANCH   1  12
ATOM     12  O   UNL     1      -1.165  -0.700   0.009  0.00  0.00    -0.484 OA
BRANCH  12  18
ATOM     13  C   UNL     1      -0.017   1.383   0.010  0.00  0.00    +0.047 A 
ATOM     14  C   UNL     1       1.171   2.090   0.002  0.00  0.00    +0.025 A 
ATOM     15  C   UNL     1       2.378   1.415  -0.013  0.00  0.00    +0.059 A 
ATOM     16  C   UNL     1       2.400   0.030  -0.022  0.00  0.00    +0.063 A 
ATOM     17  C   UNL     1       1.214  -0.680  -0.014  0.00  0.00    +0.067 A 
ATOM     18  C   UNL     1       0.002  -0.004   0.002  0.00  0.00    +0.123 A 
ATOM     19 CL   UNL     1       3.916  -0.814  -0.042  0.00  0.00    -0.082 Cl
ATOM     20 CL   UNL     1       3.868   2.305  -0.024  0.00  0.00    -0.082 Cl
ENDBRANCH  12  18
ENDBRANCH   1  12
TORSDOF 4
