REMARK  Name = ZINC01295230
REMARK  8 active torsions:
REMARK  status: ('A' for Active; 'I' for Inactive)
REMARK    1  A    between atoms: C_1  and  C_2
REMARK    2  A    between atoms: C_2  and  C_4
REMARK    3  A    between atoms: C_2  and  S_13
REMARK    4  A    between atoms: N_6  and  C_7
REMARK    5  A    between atoms: S_13  and  C_14
REMARK    6  A    between atoms: C_23  and  C_25
REMARK    7  A    between atoms: C_23  and  C_26
REMARK    8  A    between atoms: N_29  and  C_30
REMARK                            x       y       z     vdW  Elec       q    Type
REMARK                         _______ _______ _______ _____ _____    ______ ____
ROOT
ATOM      1  C   UNL     1      -5.120   1.493   4.122  0.00  0.00    +0.173 A 
ATOM      2  N   UNL     1      -5.447   1.244   2.861  0.00  0.00    -0.216 NA
ATOM      3  C   UNL     1      -4.483   1.329   1.954  0.00  0.00    +0.117 A 
ATOM      4  C   UNL     1      -3.142   1.666   2.255  0.00  0.00    +0.076 A 
ATOM      5  C   UNL     1      -2.229   1.709   1.129  0.00  0.00    -0.018 A 
ATOM      6  C   UNL     1      -2.749   1.425  -0.089  0.00  0.00    +0.021 A 
ATOM      7  S   UNL     1      -4.464   1.089   0.205  0.00  0.00    -0.071 S 
ATOM      8  C   UNL     1      -2.004   1.407  -1.388  0.00  0.00    +0.203 C 
ATOM      9  O   UNL     1      -0.734   2.043  -1.179  0.00  0.00    -0.368 OA
ATOM     10  C   UNL     1      -0.041   1.566  -0.022  0.00  0.00    +0.068 C 
ATOM     11  C   UNL     1      -0.748   2.049   1.247  0.00  0.00    +0.071 C 
ATOM     12  C   UNL     1      -0.019   0.036  -0.040  0.00  0.00    +0.041 C 
ATOM     13  C   UNL     1       1.394   2.095  -0.036  0.00  0.00    +0.041 C 
ATOM     14  C   UNL     1      -2.827   1.929   3.628  0.00  0.00    +0.263 A 
ATOM     15  O   UNL     1      -1.701   2.226   3.988  0.00  0.00    -0.267 OA
ATOM     16  N   UNL     1      -3.856   1.825   4.502  0.00  0.00    -0.290 N 
ATOM     17  C   UNL     1      -3.596   2.081   5.921  0.00  0.00    +0.154 C 
ENDROOT
BRANCH   1  18
ATOM     18  S   UNL     1      -6.374   1.390   5.356  0.00  0.00    -0.075 S 
BRANCH  18  20
ATOM     19  C   UNL     1      -8.113   2.079   3.365  0.00  0.00    +0.029 C 
ATOM     20  C   UNL     1      -7.791   0.933   4.327  0.00  0.00    +0.137 C 
BRANCH  20  21
ATOM     21  C   UNL     1      -8.985   0.666   5.207  0.00  0.00    +0.230 C 
ATOM     22  O   UNL     1      -9.059   1.181   6.303  0.00  0.00    -0.274 OA
ATOM     23  N   UNL     1      -9.972  -0.145   4.776  0.00  0.00    -0.285 N 
ATOM     24  H   UNL     1      -9.946  -0.503   3.875  0.00  0.00    +0.155 HD
BRANCH  23  25
ATOM     25  C   UNL     1     -11.032  -0.471   5.628  0.00  0.00    +0.033 A 
ATOM     26  C   UNL     1     -11.612  -1.731   5.568  0.00  0.00    +0.023 A 
ATOM     27  C   UNL     1     -12.656  -2.051   6.414  0.00  0.00    +0.002 A 
ATOM     28  C   UNL     1     -13.130  -1.114   7.314  0.00  0.00    +0.000 A 
ATOM     29  C   UNL     1     -12.559   0.144   7.373  0.00  0.00    +0.002 A 
ATOM     30  C   UNL     1     -11.511   0.468   6.533  0.00  0.00    +0.023 A 
ENDBRANCH  23  25
ENDBRANCH  20  21
ENDBRANCH  18  20
ENDBRANCH   1  18
TORSDOF 4
