REMARK  Name = ZINC35745064
REMARK  19 active torsions:
REMARK  status: ('A' for Active; 'I' for Inactive)
REMARK    1  A    between atoms: C_1  and  O_2
REMARK    2  A    between atoms: O_2  and  C_3
REMARK    3  A    between atoms: C_3  and  C_4
REMARK    4  A    between atoms: C_4  and  C_5
REMARK    5  A    between atoms: C_5  and  N_6
REMARK    6  A    between atoms: N_6  and  C_7
REMARK    7  A    between atoms: N_6  and  C_16
REMARK    8  A    between atoms: C_7  and  C_8
REMARK    9  A    between atoms: C_11  and  O_14
REMARK   10  A    between atoms: O_14  and  C_15
REMARK   11  A    between atoms: C_16  and  C_17
REMARK   12  A    between atoms: C_20  and  C_22
REMARK   13  A    between atoms: C_22  and  C_23
REMARK   14  A    between atoms: C_22  and  C_31
REMARK   15  A    between atoms: C_22  and  O_39
REMARK   16  A    between atoms: C_26  and  O_29
REMARK   17  A    between atoms: O_29  and  C_30
REMARK   18  A    between atoms: C_34  and  O_37
REMARK   19  A    between atoms: O_37  and  C_38
REMARK                            x       y       z     vdW  Elec       q    Type
REMARK                         _______ _______ _______ _____ _____    ______ ____
ROOT
ATOM      1  C   UNL     1       1.601  -3.000  -0.639  0.00  0.00    +0.089 A 
ATOM      2  C   UNL     1       1.725  -1.902  -1.406  0.00  0.00    +0.043 A 
ATOM      3  C   UNL     1       0.732  -1.987  -2.408  0.00  0.00    +0.048 A 
ATOM      4  C   UNL     1       0.060  -3.133  -2.194  0.00  0.00    +0.146 A 
ATOM      5  O   UNL     1       0.595  -3.745  -1.125  0.00  0.00    -0.463 OA
ENDROOT
BRANCH   1   6
ATOM      6  C   UNL     1       2.451  -3.341   0.557  0.00  0.00    -0.003 C 
BRANCH   6   7
ATOM      7  N   UNL     1       1.908  -2.676   1.749  0.00  0.00    +0.387 N 
ATOM      8  H   UNL     1       1.825  -1.686   1.574  0.00  0.00    -0.081 HD
BRANCH   7   9
ATOM      9  C   UNL     1       2.809  -2.898   2.888  0.00  0.00    -0.076 C 
BRANCH   9  10
ATOM     10  C   UNL     1       4.145  -2.200   2.623  0.00  0.00    +0.009 C 
BRANCH  10  11
ATOM     11  C   UNL     1       5.032  -2.309   3.865  0.00  0.00    +0.157 C 
BRANCH  11  13
ATOM     12  C   UNL     1       7.186  -1.702   4.722  0.00  0.00    +0.193 C 
ATOM     13  O   UNL     1       6.280  -1.658   3.619  0.00  0.00    -0.383 OA
ENDBRANCH  11  13
ENDBRANCH  10  11
ENDBRANCH   9  10
ENDBRANCH   7   9
BRANCH   7  14
ATOM     14  C   UNL     1       0.583  -3.232   2.058  0.00  0.00    -0.042 C 
BRANCH  14  15
ATOM     15  C   UNL     1      -0.027  -2.468   3.205  0.00  0.00    -0.064 A 
ATOM     16  C   UNL     1       0.200  -2.878   4.506  0.00  0.00    +0.005 A 
ATOM     17  C   UNL     1      -0.359  -2.179   5.558  0.00  0.00    +0.046 A 
ATOM     18  C   UNL     1      -1.147  -1.065   5.310  0.00  0.00    +0.120 A 
ATOM     19  C   UNL     1      -1.373  -0.655   4.003  0.00  0.00    +0.046 A 
ATOM     20  C   UNL     1      -0.807  -1.354   2.954  0.00  0.00    +0.005 A 
BRANCH  18  21
ATOM     21  O   UNL     1      -1.698  -0.377   6.344  0.00  0.00    -0.495 OA
ATOM     22  C   UNL     1      -2.499   0.760   6.013  0.00  0.00    +0.277 C 
ENDBRANCH  18  21
ENDBRANCH  14  15
ENDBRANCH   7  14
ENDBRANCH   6   7
ENDBRANCH   1   6
BRANCH   4  23
ATOM     23  C   UNL     1      -1.093  -3.645  -3.018  0.00  0.00    +0.174 C 
BRANCH  23  24
ATOM     24  C   UNL     1      -1.101  -5.152  -2.989  0.00  0.00    -0.004 A 
ATOM     25  C   UNL     1      -0.829  -5.866  -4.141  0.00  0.00    +0.011 A 
ATOM     26  C   UNL     1      -0.836  -7.247  -4.117  0.00  0.00    +0.046 A 
ATOM     27  C   UNL     1      -1.117  -7.918  -2.935  0.00  0.00    +0.120 A 
ATOM     28  C   UNL     1      -1.389  -7.199  -1.780  0.00  0.00    +0.046 A 
ATOM     29  C   UNL     1      -1.375  -5.818  -1.809  0.00  0.00    +0.011 A 
BRANCH  27  30
ATOM     30  O   UNL     1      -1.125  -9.276  -2.909  0.00  0.00    -0.495 OA
ATOM     31  C   UNL     1      -1.422  -9.899  -1.658  0.00  0.00    +0.277 C 
ENDBRANCH  27  30
ENDBRANCH  23  24
BRANCH  23  32
ATOM     32  C   UNL     1      -2.388  -3.125  -2.448  0.00  0.00    -0.004 A 
ATOM     33  C   UNL     1      -2.565  -3.066  -1.078  0.00  0.00    +0.011 A 
ATOM     34  C   UNL     1      -3.750  -2.589  -0.554  0.00  0.00    +0.046 A 
ATOM     35  C   UNL     1      -4.764  -2.170  -1.403  0.00  0.00    +0.120 A 
ATOM     36  C   UNL     1      -4.584  -2.229  -2.777  0.00  0.00    +0.046 A 
ATOM     37  C   UNL     1      -3.394  -2.702  -3.297  0.00  0.00    +0.011 A 
BRANCH  35  38
ATOM     38  O   UNL     1      -5.932  -1.701  -0.889  0.00  0.00    -0.495 OA
ATOM     39  C   UNL     1      -6.931  -1.286  -1.822  0.00  0.00    +0.277 C 
ENDBRANCH  35  38
ENDBRANCH  23  32
BRANCH  23  40
ATOM     40  O   UNL     1      -0.952  -3.196  -4.367  0.00  0.00    -0.372 OA
ATOM     41  H   UNL     1      -0.939  -2.233  -4.462  0.00  0.00    +0.212 HD
ENDBRANCH  23  40
ENDBRANCH   4  23
TORSDOF 15
