REMARK  Name = ZINC39267717
REMARK  12 active torsions:
REMARK  status: ('A' for Active; 'I' for Inactive)
REMARK    1  A    between atoms: C_1  and  C_2
REMARK    2  A    between atoms: C_2  and  C_3
REMARK    3  A    between atoms: C_2  and  C_4
REMARK    4  A    between atoms: C_4  and  N_5
REMARK    5  A    between atoms: N_5  and  C_6
REMARK    6  A    between atoms: C_6  and  C_7
REMARK    7  A    between atoms: C_7  and  C_8
REMARK    8  A    between atoms: C_7  and  C_9
REMARK    9  A    between atoms: C_10  and  C_12
REMARK   10  A    between atoms: C_15  and  N_18
REMARK   11  A    between atoms: C_21  and  N_26
REMARK   12  A    between atoms: N_26  and  C_27
REMARK                            x       y       z     vdW  Elec       q    Type
REMARK                         _______ _______ _______ _____ _____    ______ ____
ROOT
ATOM      1  N   UNL     1      -2.817  -0.967  -5.855  0.00  0.00    -0.301 N 
ATOM      2  C   UNL     1      -3.473  -1.683  -6.846  0.00  0.00    +0.106 A 
ATOM      3  C   UNL     1      -3.763  -1.089  -8.071  0.00  0.00    +0.085 A 
ATOM      4  C   UNL     1      -4.423  -1.846  -9.035  0.00  0.00    +0.130 A 
ATOM      5  N   UNL     1      -4.753  -3.105  -8.756  0.00  0.00    -0.201 NA
ATOM      6  C   UNL     1      -4.461  -3.638  -7.579  0.00  0.00    +0.193 A 
ATOM      7  N   UNL     1      -3.829  -2.949  -6.640  0.00  0.00    -0.316 N 
ATOM      8  N   UNL     1      -4.820  -4.950  -7.326  0.00  0.00    -0.329 N 
ATOM      9  H   UNL     1      -2.976  -0.015  -5.758  0.00  0.00    +0.154 HD
ATOM     10  H   UNL     1      -5.280  -5.467  -8.006  0.00  0.00    +0.145 HD
ATOM     11  H   UNL     1      -4.613  -5.353  -6.468  0.00  0.00    +0.145 HD
ATOM     12  H   UNL     1      -3.627  -3.372  -5.791  0.00  0.00    +0.170 HD
ENDROOT
BRANCH   1  16
ATOM     13  C   UNL     1      -0.165  -2.905  -3.297  0.00  0.00    +0.037 A 
ATOM     14  C   UNL     1      -0.668  -1.645  -2.961  0.00  0.00    +0.015 A 
ATOM     15  C   UNL     1      -1.544  -1.007  -3.808  0.00  0.00    +0.024 A 
ATOM     16  C   UNL     1      -1.930  -1.615  -5.000  0.00  0.00    +0.032 A 
ATOM     17  C   UNL     1      -1.431  -2.870  -5.338  0.00  0.00    +0.024 A 
ATOM     18  C   UNL     1      -0.549  -3.510  -4.497  0.00  0.00    +0.015 A 
BRANCH  13  20
ATOM     19  N   UNL     1       0.584  -3.542  -1.058  0.00  0.00    -0.297 N 
ATOM     20  C   UNL     1       0.775  -3.592  -2.391  0.00  0.00    +0.247 C 
ATOM     21  O   UNL     1       1.722  -4.204  -2.846  0.00  0.00    -0.270 OA
BRANCH  19  22
ATOM     22  C   UNL     1       1.521  -4.218  -0.157  0.00  0.00    +0.111 C 
BRANCH  22  24
ATOM     23  C   UNL     1       2.186  -6.427   0.803  0.00  0.00    +0.009 C 
ATOM     24  C   UNL     1       1.137  -5.694  -0.037  0.00  0.00    +0.000 C 
ATOM     25  C   UNL     1      -0.230  -5.812   0.639  0.00  0.00    +0.009 C 
ENDBRANCH  22  24
ENDBRANCH  19  22
BRANCH  19  26
ATOM     26  C   UNL     1      -0.561  -2.811  -0.509  0.00  0.00    +0.111 C 
BRANCH  26  27
ATOM     27  C   UNL     1      -0.099  -1.441  -0.007  0.00  0.00    +0.000 C 
ATOM     28  C   UNL     1      -1.318  -0.598   0.371  0.00  0.00    +0.009 C 
ATOM     29  C   UNL     1       0.797  -1.623   1.220  0.00  0.00    +0.009 C 
ENDBRANCH  26  27
ENDBRANCH  19  26
ENDBRANCH  13  20
ENDBRANCH   1  16
BRANCH   4  30
ATOM     30  N   UNL     1      -4.732  -1.295 -10.270  0.00  0.00    -0.299 N 
ATOM     31  H   UNL     1      -4.430  -0.400 -10.491  0.00  0.00    +0.154 HD
BRANCH  30  32
ATOM     32  C   UNL     1      -5.480  -2.031 -11.196  0.00  0.00    +0.034 A 
ATOM     33  C   UNL     1      -6.447  -2.936 -10.762  0.00  0.00    +0.025 A 
ATOM     34  C   UNL     1      -7.187  -3.663 -11.641  0.00  0.00    +0.031 A 
ATOM     35  C   UNL     1      -7.001  -3.526 -13.036  0.00  0.00    +0.078 A 
ATOM     36  C   UNL     1      -6.013  -2.601 -13.448  0.00  0.00    +0.041 A 
ATOM     37  C   UNL     1      -5.271  -1.864 -12.558  0.00  0.00    +0.040 A 
ATOM     38  S   UNL     1      -6.096  -2.728 -15.219  0.00  0.00    -0.075 S 
ATOM     39  C   UNL     1      -7.390  -3.958 -15.294  0.00  0.00    +0.157 A 
ATOM     40  N   UNL     1      -7.649  -4.168 -14.032  0.00  0.00    -0.247 NA
ENDBRANCH  30  32
ENDBRANCH   4  30
TORSDOF 8
