REMARK  Name = ZINC07363538
REMARK  2 active torsions:
REMARK  status: ('A' for Active; 'I' for Inactive)
REMARK    1  A    between atoms: N_10  and  S_11
REMARK    2  A    between atoms: S_11  and  C_14
REMARK                            x       y       z     vdW  Elec       q    Type
REMARK                         _______ _______ _______ _____ _____    ______ ____
ROOT
ATOM      1  C   UNL     1      -0.013   1.076   0.008  0.00  0.00    +0.001 A 
ATOM      2  C   UNL     1       1.182   1.781   0.000  0.00  0.00    +0.004 A 
ATOM      3  C   UNL     1       1.183   3.159   0.008  0.00  0.00    +0.050 A 
ATOM      4  C   UNL     1      -0.022   3.850   0.023  0.00  0.00    +0.169 A 
ATOM      5  C   UNL     1      -1.228   3.133   0.031  0.00  0.00    +0.064 A 
ATOM      6  C   UNL     1      -1.208   1.738   0.017  0.00  0.00    +0.015 A 
ATOM      7  C   UNL     1      -2.307   4.133   0.046  0.00  0.00    +0.188 A 
ATOM      8  N   UNL     1      -1.743   5.309   0.048  0.00  0.00    -0.061 NA
ATOM      9  O   UNL     1      -0.337   5.162   0.034  0.00  0.00    -0.353 OA
ATOM     10  N   UNL     1      -3.670   3.874   0.058  0.00  0.00    -0.196 N 
ATOM     11  H   UNL     1      -3.989   2.958   0.056  0.00  0.00    +0.175 HD
ENDROOT
BRANCH  10  12
ATOM     12  S   UNL     1      -4.751   5.128   0.075  0.00  0.00    +0.076 S 
ATOM     13  O   UNL     1      -6.048   4.547   0.057  0.00  0.00    -0.150 OA
ATOM     14  O   UNL     1      -4.328   6.015   1.102  0.00  0.00    -0.150 OA
BRANCH  12  15
ATOM     15  C   UNL     1      -4.567   5.996  -1.447  0.00  0.00    +0.145 A 
ATOM     16  C   UNL     1      -3.671   7.047  -1.541  0.00  0.00    +0.069 A 
ATOM     17  C   UNL     1      -3.524   7.725  -2.738  0.00  0.00    +0.022 A 
ATOM     18  C   UNL     1      -4.278   7.359  -3.837  0.00  0.00    +0.003 A 
ATOM     19  C   UNL     1      -5.176   6.313  -3.743  0.00  0.00    +0.022 A 
ATOM     20  C   UNL     1      -5.321   5.631  -2.548  0.00  0.00    +0.069 A 
ATOM     21 CL   UNL     1      -6.450   4.318  -2.429  0.00  0.00    -0.081 Cl
ATOM     22 CL   UNL     1      -2.729   7.510  -0.159  0.00  0.00    -0.081 Cl
ENDBRANCH  12  15
ENDBRANCH  10  12
TORSDOF 2
