REMARK  Name = ZINC50361703
REMARK  4 active torsions:
REMARK  status: ('A' for Active; 'I' for Inactive)
REMARK    1  A    between atoms: C_5  and  C_6
REMARK    2  A    between atoms: C_6  and  C_8
REMARK    3  A    between atoms: C_6  and  N_10
REMARK    4  A    between atoms: C_8  and  N_9
REMARK                            x       y       z     vdW  Elec       q    Type
REMARK                         _______ _______ _______ _____ _____    ______ ____
ROOT
ATOM      1  C   UNL     1      -1.208  -0.902   0.009  0.00  0.00    +0.105 C 
ENDROOT
BRANCH   1   2
ATOM      2  N   UNL     1      -0.919  -2.109   0.794  0.00  0.00    -0.294 NA
ATOM      3  C   UNL     1       0.357  -2.709   0.384  0.00  0.00    +0.085 C 
ATOM      4  C   UNL     1       0.778  -3.781   1.389  0.00  0.00    +0.015 C 
ATOM      5  C   UNL     1      -0.046  -5.052   1.153  0.00  0.00    +0.001 C 
ATOM      6  C   UNL     1      -1.463  -4.827   1.685  0.00  0.00    +0.000 C 
ATOM      7  C   UNL     1      -1.390  -4.132   3.045  0.00  0.00    +0.001 C 
ATOM      8  C   UNL     1      -1.956  -2.717   2.928  0.00  0.00    +0.015 C 
ATOM      9  C   UNL     1      -0.930  -1.816   2.234  0.00  0.00    +0.085 C 
ENDBRANCH   1   2
BRANCH   1  14
ATOM     10  C   UNL     1      -0.475   1.452   0.619  0.00  0.00    +0.062 A 
ATOM     11  C   UNL     1       0.761   2.094   0.865  0.00  0.00    +0.070 A 
ATOM     12  C   UNL     1       1.721   1.161   0.718  0.00  0.00    +0.184 A 
ATOM     13  O   UNL     1       1.134  -0.005   0.399  0.00  0.00    -0.450 OA
ATOM     14  C   UNL     1      -0.197   0.166   0.338  0.00  0.00    +0.123 A 
ATOM     15 BR   UNL     1       3.579   1.443   0.926  0.00  0.00    -0.007 Br
ATOM     16 BR   UNL     1       1.017   3.913   1.313  0.00  0.00    -0.046 Br
ENDBRANCH   1  14
BRANCH   1  17
ATOM     17  C   UNL     1      -1.133  -1.233  -1.483  0.00  0.00    -0.059 C 
BRANCH  17  18
ATOM     18  N   UNL     1      -2.033  -2.356  -1.781  0.00  0.00    +0.379 N 
ATOM     19  H   UNL     1      -2.979  -2.102  -1.540  0.00  0.00    -0.090 HD
ATOM     20  H   UNL     1      -1.983  -2.574  -2.765  0.00  0.00    -0.090 HD
ATOM     21  H   UNL     1      -1.754  -3.162  -1.243  0.00  0.00    -0.090 HD
ENDBRANCH  17  18
ENDBRANCH   1  17
TORSDOF 4
