REMARK  Name = ZINC11997642
REMARK  12 active torsions:
REMARK  status: ('A' for Active; 'I' for Inactive)
REMARK    1  A    between atoms: C_1  and  C_2
REMARK    2  A    between atoms: C_3  and  C_9
REMARK    3  A    between atoms: C_4  and  C_8
REMARK    4  A    between atoms: N_5  and  C_7
REMARK    5  A    between atoms: C_9  and  C_11
REMARK    6  A    between atoms: C_9  and  N_73
REMARK    7  A    between atoms: C_12  and  N_73
REMARK    8  A    between atoms: C_13  and  C_14
REMARK    9  A    between atoms: C_13  and  N_73
REMARK   10  A    between atoms: C_17  and  C_22
REMARK   11  A    between atoms: N_24  and  C_25
REMARK   12  A    between atoms: C_25  and  C_26
REMARK                            x       y       z     vdW  Elec       q    Type
REMARK                         _______ _______ _______ _____ _____    ______ ____
ROOT
ATOM      1  C   UNL     1       1.052   3.160   0.443  0.00  0.00    +0.003 A 
ATOM      2  C   UNL     1       1.315   1.844   0.649  0.00  0.00    +0.020 A 
ATOM      3  C   UNL     1       0.279   0.964   0.963  0.00  0.00    +0.020 A 
ATOM      4  C   UNL     1      -1.020   1.458   1.056  0.00  0.00    +0.101 A 
ATOM      5  C   UNL     1      -1.244   2.842   0.838  0.00  0.00    +0.261 A 
ATOM      6  O   UNL     1      -2.371   3.299   0.918  0.00  0.00    -0.267 OA
ATOM      7  N   UNL     1      -0.207   3.648   0.537  0.00  0.00    -0.327 N 
ATOM      8  H   UNL     1      -0.366   4.592   0.386  0.00  0.00    +0.169 HD
ENDROOT
BRANCH   4   9
ATOM      9  C   UNL     1      -2.140   0.561   1.379  0.00  0.00    +0.249 C 
ATOM     10  O   UNL     1      -1.957  -0.639   1.453  0.00  0.00    -0.270 OA
ATOM     11  N   UNL     1      -3.370   1.069   1.594  0.00  0.00    -0.311 N 
ATOM     12  H   UNL     1      -3.529   2.019   1.482  0.00  0.00    +0.149 HD
BRANCH  11  13
ATOM     13  C   UNL     1      -4.468   0.185   1.996  0.00  0.00    +0.108 C 
BRANCH  13  14
ATOM     14  C   UNL     1      -5.746   1.008   2.172  0.00  0.00    +0.012 C 
ATOM     15  C   UNL     1      -5.567   1.986   3.335  0.00  0.00    -0.006 C 
ATOM     16  C   UNL     1      -6.845   2.808   3.511  0.00  0.00    +0.007 C 
ATOM     17  C   UNL     1      -8.017   1.871   3.809  0.00  0.00    -0.010 C 
ATOM     18  C   UNL     1      -7.732   1.089   5.093  0.00  0.00    +0.007 C 
ATOM     19  C   UNL     1      -6.454   0.267   4.917  0.00  0.00    -0.010 C 
ATOM     20  C   UNL     1      -5.282   1.204   4.619  0.00  0.00    +0.007 C 
ATOM     21  C   UNL     1      -6.633  -0.711   3.754  0.00  0.00    +0.007 C 
ATOM     22  C   UNL     1      -6.918   0.071   2.470  0.00  0.00    -0.006 C 
ATOM     23  C   UNL     1      -8.196   0.893   2.646  0.00  0.00    +0.007 C 
ENDBRANCH  13  14
ENDBRANCH  11  13
ENDBRANCH   4   9
BRANCH   1  24
ATOM     24  C   UNL     1       2.184   4.095   0.103  0.00  0.00    -0.024 C 
BRANCH  24  26
ATOM     25  C   UNL     1       0.981   5.604  -1.359  0.00  0.00    -0.095 C 
ATOM     26  N   UNL     1       2.017   4.552  -1.292  0.00  0.00    +0.386 N 
ATOM     27  H   UNL     1       1.723   3.757  -1.871  0.00  0.00    -0.081 HD
BRANCH  26  28
ATOM     28  C   UNL     1       3.300   5.074  -1.810  0.00  0.00    -0.037 C 
ATOM     29  C   UNL     1       4.335   3.946  -1.798  0.00  0.00    -0.008 C 
BRANCH  28  32
ATOM     30  C   UNL     1       1.698   3.557  -4.084  0.00  0.00    +0.068 C 
ATOM     31  C   UNL     1       2.392   4.887  -4.228  0.00  0.00    +0.062 A 
ATOM     32  C   UNL     1       3.099   5.556  -3.223  0.00  0.00    -0.018 A 
ATOM     33  C   UNL     1       3.575   6.710  -3.746  0.00  0.00    +0.038 A 
ATOM     34  N   UNL     1       3.178   6.771  -5.035  0.00  0.00    -0.271 N 
ATOM     35  N   UNL     1       2.434   5.618  -5.312  0.00  0.00    -0.176 NA
ATOM     36  C   UNL     1       3.474   7.854  -5.976  0.00  0.00    +0.172 C 
ATOM     37  C   UNL     1       4.400   7.740  -3.020  0.00  0.00    +0.065 C 
ENDBRANCH  28  32
ENDBRANCH  26  28
ENDBRANCH  24  26
ENDBRANCH   1  24
TORSDOF 7
