REMARK  Name = ZINC01068626
REMARK  3 active torsions:
REMARK  status: ('A' for Active; 'I' for Inactive)
REMARK    1  A    between atoms: C_1  and  C_2
REMARK    2  A    between atoms: C_5  and  N_8
REMARK    3  A    between atoms: C_12  and  C_13
REMARK                            x       y       z     vdW  Elec       q    Type
REMARK                         _______ _______ _______ _____ _____    ______ ____
ROOT
ATOM      1  N   UNL     1       1.070   2.764  -0.238  0.00  0.00    -0.224 N 
ATOM      2  C   UNL     1       0.797   4.056  -0.164  0.00  0.00    +0.263 C 
ATOM      3  O   UNL     1       1.661   4.901  -0.310  0.00  0.00    -0.269 OA
ATOM      4  C   UNL     1      -0.608   4.422   0.105  0.00  0.00    +0.078 C 
ATOM      5  C   UNL     1      -1.173   5.649   0.232  0.00  0.00    +0.028 C 
ATOM      6  S   UNL     1      -1.360   2.804   0.209  0.00  0.00    -0.061 S 
ATOM      7  C   UNL     1       0.110   1.831  -0.076  0.00  0.00    +0.125 C 
ATOM      8  S   UNL     1       0.262   0.127  -0.136  0.00  0.00    -0.027 S 
ENDROOT
BRANCH   5   9
ATOM      9  C   UNL     1      -2.632   5.779   0.333  0.00  0.00    -0.020 A 
ATOM     10  C   UNL     1      -3.198   6.904   0.945  0.00  0.00    +0.012 A 
ATOM     11  C   UNL     1      -4.567   7.022   1.038  0.00  0.00    +0.050 A 
ATOM     12  C   UNL     1      -5.391   6.028   0.526  0.00  0.00    +0.166 A 
ATOM     13  C   UNL     1      -4.835   4.903  -0.086  0.00  0.00    +0.167 A 
ATOM     14  C   UNL     1      -3.464   4.780  -0.188  0.00  0.00    +0.057 A 
ATOM     15  O   UNL     1      -5.849   4.087  -0.499  0.00  0.00    -0.453 OA
ATOM     16  C   UNL     1      -7.013   4.523   0.227  0.00  0.00    +0.466 C 
ATOM     17  O   UNL     1      -6.750   5.913   0.494  0.00  0.00    -0.453 OA
ENDBRANCH   5   9
BRANCH   1  22
ATOM     18  C   UNL     1       6.400   1.109  -1.264  0.00  0.00    +0.044 C 
ATOM     19  C   UNL     1       4.985   1.548  -0.991  0.00  0.00    -0.050 A 
ATOM     20  C   UNL     1       4.252   2.170  -1.985  0.00  0.00    +0.005 A 
ATOM     21  C   UNL     1       2.955   2.574  -1.739  0.00  0.00    +0.024 A 
ATOM     22  C   UNL     1       2.386   2.356  -0.491  0.00  0.00    +0.043 A 
ATOM     23  C   UNL     1       3.126   1.736   0.507  0.00  0.00    +0.024 A 
ATOM     24  C   UNL     1       4.421   1.329   0.253  0.00  0.00    +0.005 A 
ENDBRANCH   1  22
TORSDOF 2
