REMARK  Name = ZINC00644104
REMARK  6 active torsions:
REMARK  status: ('A' for Active; 'I' for Inactive)
REMARK    1  A    between atoms: C_5  and  C_7
REMARK    2  A    between atoms: C_7  and  O_8
REMARK    3  A    between atoms: O_8  and  C_9
REMARK    4  A    between atoms: C_14  and  C_15
REMARK    5  A    between atoms: C_17  and  C_28
REMARK    6  A    between atoms: C_18  and  N_27
REMARK                            x       y       z     vdW  Elec       q    Type
REMARK                         _______ _______ _______ _____ _____    ______ ____
ROOT
ATOM      1  C   UNL     1      -2.744   2.354   2.497  0.00  0.00    +0.104 C 
ATOM      2  C   UNL     1      -4.234   2.167   2.438  0.00  0.00    +0.098 C 
ATOM      3  C   UNL     1      -4.854   1.961   1.251  0.00  0.00    +0.198 C 
ATOM      4  O   UNL     1      -4.164   1.923   0.100  0.00  0.00    -0.445 OA
ATOM      5  C   UNL     1      -2.845   1.650   0.119  0.00  0.00    +0.115 C 
ATOM      6  C   UNL     1      -2.107   1.840   1.228  0.00  0.00    +0.046 C 
ATOM      7  C   UNL     1      -0.722   1.573   1.242  0.00  0.00    +0.163 C 
ATOM      8  O   UNL     1      -0.090   1.740   2.266  0.00  0.00    -0.292 OA
ATOM      9  C   UNL     1      -0.013   1.086   0.008  0.00  0.00    +0.080 C 
ATOM     10  C   UNL     1      -0.759   1.596  -1.230  0.00  0.00    +0.016 C 
ATOM     11  C   UNL     1      -2.212   1.125  -1.148  0.00  0.00    +0.075 C 
ENDROOT
BRANCH   1  17
ATOM     12  C   UNL     1      -1.726   4.262   3.766  0.00  0.00    +0.125 A 
ATOM     13  C   UNL     1      -1.438   5.611   3.909  0.00  0.00    +0.046 A 
ATOM     14  C   UNL     1      -1.854   6.511   2.947  0.00  0.00    +0.004 A 
ATOM     15  C   UNL     1      -2.556   6.067   1.841  0.00  0.00    +0.001 A 
ATOM     16  C   UNL     1      -2.840   4.722   1.694  0.00  0.00    +0.008 A 
ATOM     17  C   UNL     1      -2.430   3.819   2.656  0.00  0.00    +0.007 A 
BRANCH  12  18
ATOM     18  O   UNL     1      -1.318   3.375   4.711  0.00  0.00    -0.487 OA
BRANCH  18  19
ATOM     19  C   UNL     1      -0.598   3.901   5.827  0.00  0.00    +0.266 C 
BRANCH  19  24
ATOM     20  C   UNL     1      -0.265   0.451   7.324  0.00  0.00    +0.000 A 
ATOM     21  C   UNL     1       0.441   0.719   8.482  0.00  0.00    +0.001 A 
ATOM     22  C   UNL     1       0.811   2.016   8.781  0.00  0.00    +0.020 A 
ATOM     23  C   UNL     1       0.480   3.046   7.920  0.00  0.00    +0.047 A 
ATOM     24  C   UNL     1      -0.231   2.779   6.763  0.00  0.00    +0.008 A 
ATOM     25  C   UNL     1      -0.601   1.481   6.465  0.00  0.00    +0.008 A 
ATOM     26 CL   UNL     1       0.951   4.675   8.292  0.00  0.00    -0.083 Cl
ENDBRANCH  19  24
ENDBRANCH  18  19
ENDBRANCH  12  18
ENDBRANCH   1  17
BRANCH   3  27
ATOM     27  N   UNL     1      -6.215   1.789   1.224  0.00  0.00    -0.328 N 
ATOM     28  H   UNL     1      -6.669   1.642   0.379  0.00  0.00    +0.145 HD
ATOM     29  H   UNL     1      -6.724   1.815   2.049  0.00  0.00    +0.145 HD
ENDBRANCH   3  27
BRANCH   2  30
ATOM     30  C   UNL     1      -5.004   2.206   3.645  0.00  0.00    +0.101 C 
ATOM     31  N   UNL     1      -5.615   2.237   4.602  0.00  0.00    -0.191 NA
ENDBRANCH   2  30
TORSDOF 6
