REMARK  Name = ZINC39242916
REMARK  8 active torsions:
REMARK  status: ('A' for Active; 'I' for Inactive)
REMARK    1  A    between atoms: C_1  and  C_2
REMARK    2  A    between atoms: C_2  and  C_3
REMARK    3  A    between atoms: C_3  and  C_5
REMARK    4  A    between atoms: C_3  and  S_18
REMARK    5  A    between atoms: N_7  and  C_8
REMARK    6  A    between atoms: C_11  and  N_14
REMARK    7  A    between atoms: C_15  and  C_17
REMARK    8  A    between atoms: S_18  and  C_19
REMARK                            x       y       z     vdW  Elec       q    Type
REMARK                         _______ _______ _______ _____ _____    ______ ____
ROOT
ATOM      1  C   UNL     1      -1.614  -0.765   0.216  0.00  0.00    +0.140 C 
ENDROOT
BRANCH   1   2
ATOM      2  C   UNL     1      -1.367  -2.241   0.032  0.00  0.00    +0.231 C 
ATOM      3  O   UNL     1      -1.419  -2.988   0.987  0.00  0.00    -0.274 OA
ATOM      4  N   UNL     1      -1.090  -2.731  -1.192  0.00  0.00    -0.285 N 
ATOM      5  H   UNL     1      -1.116  -2.146  -1.966  0.00  0.00    +0.155 HD
BRANCH   4   6
ATOM      6  C   UNL     1      -0.763  -4.084  -1.348  0.00  0.00    +0.034 A 
ATOM      7  C   UNL     1      -1.074  -4.741  -2.531  0.00  0.00    +0.025 A 
ATOM      8  C   UNL     1      -0.752  -6.075  -2.684  0.00  0.00    +0.025 A 
ATOM      9  C   UNL     1      -0.118  -6.759  -1.655  0.00  0.00    +0.033 A 
ATOM     10  C   UNL     1       0.192  -6.102  -0.472  0.00  0.00    +0.025 A 
ATOM     11  C   UNL     1      -0.124  -4.767  -0.321  0.00  0.00    +0.025 A 
BRANCH   9  12
ATOM     12  N   UNL     1       0.207  -8.113  -1.811  0.00  0.00    -0.286 N 
ATOM     13  C   UNL     1       0.168  -8.942  -0.749  0.00  0.00    +0.214 C 
ATOM     14  O   UNL     1      -0.226  -8.535   0.324  0.00  0.00    -0.276 OA
ATOM     15  C   UNL     1       0.612 -10.374  -0.894  0.00  0.00    +0.109 C 
ATOM     16  H   UNL     1       0.462  -8.453  -2.683  0.00  0.00    +0.155 HD
ENDBRANCH   9  12
ENDBRANCH   4   6
ENDBRANCH   1   2
BRANCH   1  18
ATOM     17  C   UNL     1      -0.525   1.481   0.320  0.00  0.00    +0.005 C 
ATOM     18  C   UNL     1      -0.275  -0.027   0.266  0.00  0.00    +0.020 C 
ENDBRANCH   1  18
BRANCH   1  19
ATOM     19  S   UNL     1      -2.514  -0.491   1.766  0.00  0.00    -0.072 S 
BRANCH  19  20
ATOM     20  C   UNL     1      -4.088  -1.230   1.481  0.00  0.00    +0.208 C 
ATOM     21  N   UNL     1      -4.275  -1.870   0.352  0.00  0.00    -0.227 NA
ATOM     22  C   UNL     1      -5.555  -2.547   0.159  0.00  0.00    +0.252 C 
ATOM     23  C   UNL     1      -6.578  -1.772   0.977  0.00  0.00    +0.117 C 
ATOM     24  C   UNL     1      -7.628  -1.553   0.138  0.00  0.00    +0.025 A 
ATOM     25  C   UNL     1      -8.909  -0.986   0.346  0.00  0.00    +0.012 A 
ATOM     26  C   UNL     1      -9.736  -0.896  -0.730  0.00  0.00    +0.001 A 
ATOM     27  C   UNL     1      -9.399  -1.326  -2.018  0.00  0.00    +0.002 A 
ATOM     28  C   UNL     1      -8.202  -1.890  -2.331  0.00  0.00    +0.026 A 
ATOM     29  C   UNL     1      -7.243  -2.035  -1.224  0.00  0.00    +0.046 A 
ATOM     30  N   UNL     1      -6.049  -2.545  -1.211  0.00  0.00    -0.358 N 
ATOM     31  N   UNL     1      -6.293  -1.336   2.208  0.00  0.00    -0.147 NA
ATOM     32  N   UNL     1      -5.035  -1.108   2.444  0.00  0.00    -0.122 NA
ATOM     33  H   UNL     1      -5.566  -2.870  -1.986  0.00  0.00    +0.162 HD
ENDBRANCH  19  20
ENDBRANCH   1  19
TORSDOF 6
