REMARK  Name = ZINC53548061
REMARK  8 active torsions:
REMARK  status: ('A' for Active; 'I' for Inactive)
REMARK    1  A    between atoms: C_1  and  O_2
REMARK    2  A    between atoms: O_2  and  C_3
REMARK    3  A    between atoms: C_8  and  O_9
REMARK    4  A    between atoms: O_9  and  C_10
REMARK    5  A    between atoms: N_17  and  C_18
REMARK    6  A    between atoms: C_18  and  C_19
REMARK    7  A    between atoms: C_19  and  C_21
REMARK    8  A    between atoms: C_19  and  N_26
REMARK                            x       y       z     vdW  Elec       q    Type
REMARK                         _______ _______ _______ _____ _____    ______ ____
ROOT
ATOM      1  C   UNL     1       0.206  -0.860   1.446  0.00  0.00    +0.162 A 
ATOM      2  C   UNL     1       0.820  -0.083   2.410  0.00  0.00    +0.053 A 
ATOM      3  C   UNL     1       1.548  -0.672   3.437  0.00  0.00    -0.038 A 
ATOM      4  C   UNL     1       1.652  -2.044   3.497  0.00  0.00    -0.023 A 
ATOM      5  C   UNL     1       1.043  -2.829   2.527  0.00  0.00    +0.054 A 
ATOM      6  C   UNL     1       0.315  -2.246   1.506  0.00  0.00    +0.162 A 
ATOM      7  C   UNL     1       2.402  -2.748   4.600  0.00  0.00    +0.144 C 
ATOM      8  N   UNL     1       3.188  -1.774   5.364  0.00  0.00    -0.281 N 
ATOM      9  C   UNL     1       2.526  -0.510   5.730  0.00  0.00    +0.114 C 
ATOM     10  C   UNL     1       2.201   0.241   4.441  0.00  0.00    +0.054 C 
ATOM     11  C   UNL     1       4.464  -2.024   5.717  0.00  0.00    +0.302 C 
ATOM     12  O   UNL     1       5.122  -1.164   6.269  0.00  0.00    -0.253 OA
ATOM     13  N   UNL     1       5.011  -3.228   5.457  0.00  0.00    -0.300 N 
ATOM     14  H   UNL     1       4.512  -3.889   4.953  0.00  0.00    +0.150 HD
ENDROOT
BRANCH   1  16
ATOM     15  C   UNL     1      -0.575   1.154   0.451  0.00  0.00    +0.277 C 
ATOM     16  O   UNL     1      -0.507  -0.274   0.447  0.00  0.00    -0.491 OA
ENDBRANCH   1  16
BRANCH   6  17
ATOM     17  O   UNL     1      -0.285  -3.022   0.564  0.00  0.00    -0.491 OA
ATOM     18  C   UNL     1      -0.128  -4.436   0.692  0.00  0.00    +0.277 C 
ENDBRANCH   6  17
BRANCH  13  19
ATOM     19  C   UNL     1       6.361  -3.538   5.936  0.00  0.00    +0.095 C 
BRANCH  19  20
ATOM     20  C   UNL     1       6.789  -4.907   5.402  0.00  0.00    -0.013 C 
BRANCH  20  21
ATOM     21  N   UNL     1       8.095  -5.267   5.970  0.00  0.00    +0.386 N 
ATOM     22  C   UNL     1       7.971  -5.503   7.431  0.00  0.00    -0.078 C 
ATOM     23  C   UNL     1       9.205  -6.383   7.755  0.00  0.00    -0.020 C 
ATOM     24  C   UNL     1       9.313  -7.296   6.512  0.00  0.00    -0.020 C 
ATOM     25  C   UNL     1       8.568  -6.544   5.394  0.00  0.00    -0.078 C 
ATOM     26  H   UNL     1       8.767  -4.535   5.791  0.00  0.00    -0.081 HD
ENDBRANCH  20  21
BRANCH  20  27
ATOM     27  C   UNL     1       6.893  -4.851   3.900  0.00  0.00    -0.022 A 
ATOM     28  C   UNL     1       6.004  -5.270   2.967  0.00  0.00    +0.009 A 
ATOM     29  C   UNL     1       6.314  -5.115   1.629  0.00  0.00    +0.008 A 
ATOM     30  C   UNL     1       7.498  -4.549   1.289  0.00  0.00    +0.045 A 
ATOM     31  S   UNL     1       8.215  -4.207   2.888  0.00  0.00    -0.103 S 
ENDBRANCH  20  27
ENDBRANCH  19  20
ENDBRANCH  13  19
TORSDOF 6
