REMARK  Name = ZINC16378491
REMARK  9 active torsions:
REMARK  status: ('A' for Active; 'I' for Inactive)
REMARK    1  A    between atoms: C_1  and  C_2
REMARK    2  A    between atoms: C_8  and  N_10
REMARK    3  A    between atoms: C_14  and  C_16
REMARK    4  A    between atoms: C_16  and  N_54
REMARK    5  A    between atoms: C_17  and  N_54
REMARK    6  A    between atoms: C_18  and  C_19
REMARK    7  A    between atoms: C_18  and  N_54
REMARK    8  A    between atoms: C_22  and  S_25
REMARK    9  A    between atoms: S_25  and  C_26
REMARK                            x       y       z     vdW  Elec       q    Type
REMARK                         _______ _______ _______ _____ _____    ______ ____
ROOT
ATOM      1  N   UNL     1      -3.079  -3.651   0.565  0.00  0.00    -0.296 N 
ATOM      2  C   UNL     1      -2.855  -2.323   0.527  0.00  0.00    +0.306 C 
ATOM      3  O   UNL     1      -3.774  -1.546   0.700  0.00  0.00    -0.252 OA
ATOM      4  N   UNL     1      -1.612  -1.855   0.297  0.00  0.00    -0.242 N 
ATOM      5  C   UNL     1      -1.388  -0.527   0.259  0.00  0.00    +0.204 C 
ATOM      6  O   UNL     1      -2.304   0.248   0.432  0.00  0.00    -0.277 OA
ATOM      7  H   UNL     1      -2.346  -4.271   0.426  0.00  0.00    +0.151 HD
ATOM      8  H   UNL     1      -0.879  -2.475   0.159  0.00  0.00    +0.159 HD
ENDROOT
BRANCH   1  15
ATOM      9  C   UNL     1      -4.317  -5.497  -1.292  0.00  0.00    +0.009 C 
ATOM     10  C   UNL     1      -4.567  -5.560   0.216  0.00  0.00    +0.006 C 
ATOM     11  C   UNL     1      -3.543  -6.494   0.864  0.00  0.00    +0.005 C 
ATOM     12  C   UNL     1      -3.793  -6.557   2.372  0.00  0.00    +0.000 C 
ATOM     13  C   UNL     1      -3.656  -5.156   2.971  0.00  0.00    +0.002 C 
ATOM     14  C   UNL     1      -4.680  -4.222   2.323  0.00  0.00    +0.022 C 
ATOM     15  C   UNL     1      -4.430  -4.159   0.815  0.00  0.00    +0.077 C 
ENDBRANCH   1  15
BRANCH   5  16
ATOM     16  C   UNL     1       0.002  -0.004   0.002  0.00  0.00    +0.019 C 
BRANCH  16  18
ATOM     17  C   UNL     1      -0.802   1.987  -1.117  0.00  0.00    -0.095 C 
ATOM     18  N   UNL     1      -0.030   1.473   0.034  0.00  0.00    +0.386 N 
ATOM     19  H   UNL     1      -0.486   1.778   0.903  0.00  0.00    -0.081 HD
BRANCH  18  20
ATOM     20  C   UNL     1       1.346   2.010   0.000  0.00  0.00    -0.043 C 
BRANCH  20  21
ATOM     21  C   UNL     1       1.296   3.494   0.255  0.00  0.00    -0.064 A 
ATOM     22  C   UNL     1       1.190   4.374  -0.807  0.00  0.00    +0.003 A 
ATOM     23  C   UNL     1       1.139   5.734  -0.577  0.00  0.00    +0.015 A 
ATOM     24  C   UNL     1       1.205   6.220   0.724  0.00  0.00    +0.008 A 
ATOM     25  C   UNL     1       1.316   5.333   1.788  0.00  0.00    +0.015 A 
ATOM     26  C   UNL     1       1.361   3.974   1.551  0.00  0.00    +0.003 A 
BRANCH  24  27
ATOM     27  S   UNL     1       1.147   7.955   1.022  0.00  0.00    -0.129 S 
ATOM     28  C   UNL     1       1.003   8.681  -0.634  0.00  0.00    +0.090 C 
ENDBRANCH  24  27
ENDBRANCH  20  21
ENDBRANCH  18  20
ENDBRANCH  16  18
ENDBRANCH   5  16
TORSDOF 6
