REMARK  Name = ZINC12411364
REMARK  8 active torsions:
REMARK  status: ('A' for Active; 'I' for Inactive)
REMARK    1  A    between atoms: C_1  and  C_2
REMARK    2  A    between atoms: C_2  and  O_3
REMARK    3  A    between atoms: O_3  and  C_4
REMARK    4  A    between atoms: C_6  and  C_14
REMARK    5  A    between atoms: C_8  and  N_11
REMARK    6  A    between atoms: C_9  and  O_10
REMARK    7  A    between atoms: C_19  and  C_24
REMARK    8  A    between atoms: C_27  and  C_30
REMARK                            x       y       z     vdW  Elec       q    Type
REMARK                         _______ _______ _______ _____ _____    ______ ____
ROOT
ATOM      1  C   UNL     1       0.623   3.267   1.845  0.00  0.00    +0.136 C 
ATOM      2  C   UNL     1       1.677   2.714   0.914  0.00  0.00    +0.036 C 
ATOM      3  C   UNL     1       1.505   1.712   0.037  0.00  0.00    +0.017 C 
ATOM      4  C   UNL     1       2.655   1.258  -0.847  0.00  0.00    +0.059 C 
ATOM      5  C   UNL     1       3.559   2.445  -1.177  0.00  0.00    +0.032 C 
ATOM      6  C   UNL     1       4.094   3.005   0.147  0.00  0.00    +0.088 C 
ATOM      7  C   UNL     1       2.928   3.367   1.017  0.00  0.00    +0.163 C 
ATOM      8  O   UNL     1       3.062   4.252   1.839  0.00  0.00    -0.292 OA
ATOM      9  N   UNL     1       0.351   1.016  -0.138  0.00  0.00    -0.316 N 
ATOM     10  C   UNL     1      -0.910   1.587  -0.275  0.00  0.00    +0.052 A 
ATOM     11  C   UNL     1      -1.659   1.464  -1.431  0.00  0.00    +0.025 A 
ATOM     12  C   UNL     1      -2.934   2.005  -1.474  0.00  0.00    +0.002 A 
ATOM     13  C   UNL     1      -3.450   2.659  -0.370  0.00  0.00    +0.002 A 
ATOM     14  C   UNL     1      -2.687   2.803   0.791  0.00  0.00    +0.025 A 
ATOM     15  C   UNL     1      -1.401   2.285   0.824  0.00  0.00    +0.049 A 
ATOM     16  N   UNL     1      -0.577   2.463   1.932  0.00  0.00    -0.331 N 
ATOM     17  H   UNL     1       0.373  -0.083  -0.181  0.00  0.00    +0.152 HD
ATOM     18  H   UNL     1      -0.850   1.983   2.883  0.00  0.00    +0.147 HD
ENDROOT
BRANCH   5  19
ATOM     19  C   UNL     1       4.707   1.988  -2.039  0.00  0.00    -0.043 A 
ATOM     20  C   UNL     1       5.566   1.005  -1.584  0.00  0.00    +0.004 A 
ATOM     21  C   UNL     1       6.616   0.583  -2.377  0.00  0.00    +0.003 A 
ATOM     22  C   UNL     1       6.814   1.150  -3.622  0.00  0.00    -0.050 A 
ATOM     23  C   UNL     1       5.959   2.137  -4.075  0.00  0.00    +0.003 A 
ATOM     24  C   UNL     1       4.906   2.556  -3.284  0.00  0.00    +0.004 A 
ATOM     25  C   UNL     1       7.962   0.693  -4.485  0.00  0.00    +0.044 C 
ENDBRANCH   5  19
BRANCH   1  28
ATOM     26  C   UNL     1       0.137   7.012   1.744  0.00  0.00    +0.164 A 
ATOM     27  C   UNL     1       0.487   5.743   2.177  0.00  0.00    +0.055 A 
ATOM     28  C   UNL     1       0.243   4.646   1.372  0.00  0.00    -0.017 A 
ATOM     29  C   UNL     1      -0.345   4.812   0.132  0.00  0.00    +0.042 A 
ATOM     30  C   UNL     1      -0.701   6.075  -0.304  0.00  0.00    +0.171 A 
ATOM     31  C   UNL     1      -0.459   7.178   0.498  0.00  0.00    +0.189 A 
BRANCH  30  32
ATOM     32  N   UNL     1      -1.336   6.248  -1.630  0.00  0.00    +0.060 N 
ATOM     33  O   UNL     1      -1.549   5.278  -2.335  0.00  0.00    -0.126 OA
ATOM     34  O   UNL     1      -1.645   7.361  -2.016  0.00  0.00    -0.126 OA
ENDBRANCH  30  32
BRANCH  31  35
ATOM     35  O   UNL     1      -0.804   8.422   0.068  0.00  0.00    -0.502 OA
ATOM     36  H   UNL     1      -1.276   8.552  -0.917  0.00  0.00    +0.292 HD
ENDBRANCH  31  35
BRANCH  26  37
ATOM     37  O   UNL     1       0.377   8.092   2.534  0.00  0.00    -0.488 OA
BRANCH  37  39
ATOM     38  C   UNL     1       1.182   9.171   4.542  0.00  0.00    +0.048 C 
ATOM     39  C   UNL     1       0.993   7.846   3.800  0.00  0.00    +0.226 C 
ENDBRANCH  37  39
ENDBRANCH  26  37
ENDBRANCH   1  28
TORSDOF 6
