REMARK  Name = ZINC18551853
REMARK  14 active torsions:
REMARK  status: ('A' for Active; 'I' for Inactive)
REMARK    1  A    between atoms: C_1  and  C_2
REMARK    2  A    between atoms: C_5  and  S_9
REMARK    3  A    between atoms: C_6  and  C_8
REMARK    4  A    between atoms: S_9  and  C_10
REMARK    5  A    between atoms: C_10  and  C_11
REMARK    6  A    between atoms: N_13  and  C_14
REMARK    7  A    between atoms: N_13  and  C_19
REMARK    8  A    between atoms: C_14  and  C_15
REMARK    9  A    between atoms: C_15  and  C_16
REMARK   10  A    between atoms: C_16  and  O_17
REMARK   11  A    between atoms: O_17  and  C_18
REMARK   12  A    between atoms: C_20  and  N_35
REMARK   13  A    between atoms: N_21  and  C_28
REMARK   14  A    between atoms: C_28  and  C_29
REMARK                            x       y       z     vdW  Elec       q    Type
REMARK                         _______ _______ _______ _____ _____    ______ ____
ROOT
ATOM      1  C   UNL     1      -2.157  -0.670  -1.140  0.00  0.00    +0.140 A 
ATOM      2  C   UNL     1      -1.811  -1.586  -2.112  0.00  0.00    +0.128 A 
ATOM      3  N   UNL     1      -2.609  -1.718  -3.225  0.00  0.00    -0.276 N 
ATOM      4  C   UNL     1      -3.709  -0.956  -3.368  0.00  0.00    +0.331 A 
ATOM      5  O   UNL     1      -4.399  -1.085  -4.361  0.00  0.00    -0.246 OA
ATOM      6  N   UNL     1      -4.059  -0.054  -2.434  0.00  0.00    -0.273 N 
ATOM      7  H   UNL     1      -4.881   0.500  -2.564  0.00  0.00    +0.173 HD
ATOM      8  C   UNL     1      -3.314   0.111  -1.323  0.00  0.00    +0.277 A 
ATOM      9  O   UNL     1      -3.640   0.931  -0.482  0.00  0.00    -0.266 OA
ENDROOT
BRANCH   1  12
ATOM     10  C   UNL     1      -1.857  -0.846   1.225  0.00  0.00    +0.230 C 
ATOM     11  O   UNL     1      -2.949  -1.367   1.312  0.00  0.00    -0.274 OA
ATOM     12  N   UNL     1      -1.361  -0.514   0.015  0.00  0.00    -0.263 N 
BRANCH  10  13
ATOM     13  C   UNL     1      -1.054  -0.568   2.470  0.00  0.00    +0.170 C 
BRANCH  13  14
ATOM     14  S   UNL     1      -1.983  -1.124   3.925  0.00  0.00    -0.116 S 
BRANCH  14  19
ATOM     15  C   UNL     1       1.639   0.207   8.566  0.00  0.00    +0.044 C 
ATOM     16  C   UNL     1       0.735  -0.125   7.408  0.00  0.00    -0.050 A 
ATOM     17  C   UNL     1       1.133   0.167   6.116  0.00  0.00    +0.004 A 
ATOM     18  C   UNL     1       0.307  -0.136   5.052  0.00  0.00    +0.015 A 
ATOM     19  C   UNL     1      -0.925  -0.736   5.280  0.00  0.00    +0.011 A 
ATOM     20  C   UNL     1      -1.325  -1.023   6.580  0.00  0.00    -0.037 A 
ATOM     21  C   UNL     1      -0.491  -0.722   7.639  0.00  0.00    +0.007 A 
ATOM     22  C   UNL     1      -2.663  -1.668   6.833  0.00  0.00    +0.045 C 
ENDBRANCH  14  19
ENDBRANCH  13  14
ENDBRANCH  10  13
BRANCH  12  23
ATOM     23  C   UNL     1       0.002   0.008  -0.100  0.00  0.00    +0.116 C 
BRANCH  23  24
ATOM     24  C   UNL     1      -0.035   1.538  -0.095  0.00  0.00    +0.047 C 
BRANCH  24  25
ATOM     25  C   UNL     1       1.390   2.083  -0.215  0.00  0.00    +0.161 C 
BRANCH  25  26
ATOM     26  O   UNL     1       1.355   3.511  -0.210  0.00  0.00    -0.383 OA
ATOM     27  C   UNL     1       2.641   4.125  -0.319  0.00  0.00    +0.193 C 
ENDBRANCH  25  26
ENDBRANCH  24  25
ENDBRANCH  23  24
ENDBRANCH  12  23
ENDBRANCH   1  12
BRANCH   2  28
ATOM     28  N   UNL     1      -0.685  -2.361  -1.968  0.00  0.00    -0.343 N 
ATOM     29  H   UNL     1      -0.090  -2.216  -1.216  0.00  0.00    +0.144 HD
ATOM     30  H   UNL     1      -0.486  -3.052  -2.619  0.00  0.00    +0.144 HD
ENDBRANCH   2  28
BRANCH   3  31
ATOM     31  C   UNL     1      -2.257  -2.690  -4.262  0.00  0.00    +0.163 C 
BRANCH  31  32
ATOM     32  C   UNL     1      -1.363  -2.034  -5.283  0.00  0.00    -0.028 A 
ATOM     33  C   UNL     1      -1.916  -1.411  -6.387  0.00  0.00    +0.005 A 
ATOM     34  C   UNL     1      -1.097  -0.805  -7.321  0.00  0.00    +0.000 A 
ATOM     35  C   UNL     1       0.275  -0.830  -7.157  0.00  0.00    +0.000 A 
ATOM     36  C   UNL     1       0.828  -1.457  -6.056  0.00  0.00    +0.000 A 
ATOM     37  C   UNL     1       0.009  -2.059  -5.119  0.00  0.00    +0.005 A 
ENDBRANCH  31  32
ENDBRANCH   3  31
TORSDOF 11
