REMARK  Name = ZINC63817963
REMARK  5 active torsions:
REMARK  status: ('A' for Active; 'I' for Inactive)
REMARK    1  A    between atoms: C_1  and  C_2
REMARK    2  A    between atoms: C_2  and  C_4
REMARK    3  A    between atoms: N_7  and  C_14
REMARK    4  A    between atoms: C_14  and  C_15
REMARK    5  A    between atoms: C_15  and  N_17
REMARK                            x       y       z     vdW  Elec       q    Type
REMARK                         _______ _______ _______ _____ _____    ______ ____
ROOT
ATOM      1  C   UNL     1      -1.368  -4.583  -0.168  0.00  0.00    +0.203 C 
ENDROOT
BRANCH   1   4
ATOM      2  C   UNL     1      -1.293  -0.775   0.010  0.00  0.00    +0.104 C 
ATOM      3  C   UNL     1      -1.098  -2.143   0.685  0.00  0.00    +0.121 C 
ATOM      4  N   UNL     1      -1.415  -3.130  -0.351  0.00  0.00    -0.320 N 
ATOM      5  C   UNL     1      -1.767  -2.485  -1.537  0.00  0.00    +0.034 A 
ATOM      6  C   UNL     1      -1.720  -1.103  -1.403  0.00  0.00    -0.015 A 
ATOM      7  C   UNL     1      -2.037  -0.282  -2.467  0.00  0.00    +0.006 A 
ATOM      8  C   UNL     1      -2.407  -0.830  -3.682  0.00  0.00    +0.000 A 
ATOM      9  C   UNL     1      -2.458  -2.204  -3.829  0.00  0.00    +0.002 A 
ATOM     10  C   UNL     1      -2.140  -3.033  -2.766  0.00  0.00    +0.023 A 
BRANCH   2  12
ATOM     11  C   UNL     1      -0.018   1.503   0.010  0.00  0.00    +0.086 C 
ATOM     12  C   UNL     1       0.002  -0.004   0.002  0.00  0.00    +0.139 C 
ATOM     13  O   UNL     1       1.056  -0.594  -0.011  0.00  0.00    -0.297 OA
ENDBRANCH   2  12
ENDBRANCH   1   4
BRANCH   1  14
ATOM     14  C   UNL     1      -2.713  -5.073   0.304  0.00  0.00    +0.256 C 
ATOM     15  O   UNL     1      -3.623  -4.285   0.471  0.00  0.00    -0.272 OA
BRANCH  14  16
ATOM     16  N   UNL     1      -2.904  -6.367   0.537  0.00  0.00    -0.155 NA
ATOM     17  C   UNL     1      -4.092  -6.801   0.954  0.00  0.00    +0.164 A 
ATOM     18  N   UNL     1      -4.459  -8.075   1.243  0.00  0.00    -0.335 N 
ATOM     19  H   UNL     1      -3.818  -8.797   1.153  0.00  0.00    +0.168 HD
ATOM     20  C   UNL     1      -5.747  -8.340   1.666  0.00  0.00    +0.055 A 
ATOM     21  C   UNL     1      -6.330  -9.566   2.014  0.00  0.00    +0.027 A 
ATOM     22  C   UNL     1      -7.644  -9.628   2.416  0.00  0.00    +0.002 A 
ATOM     23  C   UNL     1      -8.426  -8.488   2.489  0.00  0.00    +0.001 A 
ATOM     24  C   UNL     1      -7.875  -7.264   2.152  0.00  0.00    +0.017 A 
ATOM     25  C   UNL     1      -6.561  -7.201   1.750  0.00  0.00    +0.039 A 
ATOM     26  S   UNL     1      -5.475  -5.892   1.247  0.00  0.00    -0.052 S 
ENDBRANCH  14  16
ENDBRANCH   1  14
TORSDOF 4
