REMARK  Name = ZINC36146191
REMARK  2 active torsions:
REMARK  status: ('A' for Active; 'I' for Inactive)
REMARK    1  A    between atoms: C_8  and  C_17
REMARK    2  A    between atoms: N_19  and  C_20
REMARK                            x       y       z     vdW  Elec       q    Type
REMARK                         _______ _______ _______ _____ _____    ______ ____
ROOT
ATOM      1  C   UNL     1      -0.204   1.844   1.560  0.00  0.00    +0.000 A 
ATOM      2  C   UNL     1       0.455   2.436   2.622  0.00  0.00    +0.002 A 
ATOM      3  C   UNL     1       1.703   1.990   3.003  0.00  0.00    +0.023 A 
ATOM      4  C   UNL     1       2.309   0.938   2.321  0.00  0.00    +0.036 A 
ATOM      5  C   UNL     1       1.637   0.350   1.255  0.00  0.00    -0.027 A 
ATOM      6  C   UNL     1       0.391   0.798   0.877  0.00  0.00    +0.004 A 
ATOM      7  C   UNL     1       2.543  -0.737   0.741  0.00  0.00    +0.052 C 
ATOM      8  C   UNL     1       1.861  -2.110   0.847  0.00  0.00    +0.076 C 
ATOM      9  C   UNL     1       1.363  -2.361  -0.602  0.00  0.00    -0.003 C 
ATOM     10  C   UNL     1       2.490  -1.712  -1.441  0.00  0.00    -0.066 C 
ATOM     11  N   UNL     1       2.901  -0.513  -0.664  0.00  0.00    +0.394 N 
ATOM     12  C   UNL     1       2.096   0.613  -1.198  0.00  0.00    -0.077 C 
ATOM     13  C   UNL     1       2.026   0.326  -2.718  0.00  0.00    -0.020 C 
ATOM     14  C   UNL     1       1.909  -1.231  -2.780  0.00  0.00    -0.017 C 
ATOM     15  C   UNL     1       3.758  -0.676   1.630  0.00  0.00    +0.212 C 
ATOM     16  O   UNL     1       4.740  -1.384   1.562  0.00  0.00    -0.277 OA
ATOM     17  N   UNL     1       3.545   0.317   2.514  0.00  0.00    -0.286 N 
ATOM     18  H   UNL     1       4.176   0.571   3.205  0.00  0.00    +0.155 HD
ATOM     19  H   UNL     1       3.891  -0.343  -0.761  0.00  0.00    -0.079 HD
ENDROOT
BRANCH   8  20
ATOM     20  C   UNL     1       2.852  -3.167   1.264  0.00  0.00    +0.220 C 
ATOM     21  O   UNL     1       3.502  -3.754   0.425  0.00  0.00    -0.275 OA
ATOM     22  N   UNL     1       3.016  -3.459   2.570  0.00  0.00    -0.281 N 
ATOM     23  H   UNL     1       2.451  -3.036   3.236  0.00  0.00    +0.155 HD
BRANCH  22  24
ATOM     24  C   UNL     1       4.002  -4.374   2.965  0.00  0.00    +0.111 A 
ATOM     25  C   UNL     1       5.130  -3.930   3.646  0.00  0.00    +0.185 A 
ATOM     26  C   UNL     1       6.103  -4.835   4.036  0.00  0.00    +0.198 A 
ATOM     27  C   UNL     1       5.953  -6.183   3.748  0.00  0.00    +0.199 A 
ATOM     28  C   UNL     1       4.829  -6.627   3.069  0.00  0.00    +0.198 A 
ATOM     29  C   UNL     1       3.851  -5.726   2.682  0.00  0.00    +0.185 A 
ATOM     30  F   UNL     1       2.753  -6.160   2.026  0.00  0.00    -0.200 F 
ATOM     31  F   UNL     1       4.685  -7.941   2.788  0.00  0.00    -0.199 F 
ATOM     32  F   UNL     1       6.903  -7.064   4.129  0.00  0.00    -0.199 F 
ATOM     33  F   UNL     1       7.199  -4.405   4.697  0.00  0.00    -0.199 F 
ATOM     34  F   UNL     1       5.277  -2.617   3.926  0.00  0.00    -0.200 F 
ENDBRANCH  22  24
ENDBRANCH   8  20
TORSDOF 2
