REMARK  Name = ZINC43560965
REMARK  5 active torsions:
REMARK  status: ('A' for Active; 'I' for Inactive)
REMARK    1  A    between atoms: C_1  and  C_2
REMARK    2  A    between atoms: C_6  and  C_8
REMARK    3  A    between atoms: C_8  and  C_9
REMARK    4  A    between atoms: C_11  and  C_14
REMARK    5  A    between atoms: C_19  and  N_20
REMARK                            x       y       z     vdW  Elec       q    Type
REMARK                         _______ _______ _______ _____ _____    ______ ____
ROOT
ATOM      1  C   UNL     1       1.512  -3.035   2.955  0.00  0.00    +0.176 A 
ATOM      2  N   UNL     1       2.224  -4.125   2.661  0.00  0.00    -0.191 NA
ATOM      3  C   UNL     1       3.455  -3.990   3.103  0.00  0.00    +0.260 A 
ATOM      4  O   UNL     1       3.553  -2.788   3.698  0.00  0.00    -0.333 OA
ATOM      5  N   UNL     1       2.274  -2.184   3.583  0.00  0.00    -0.061 NA
ENDROOT
BRANCH   3   6
ATOM      6  C   UNL     1       4.539  -4.983   2.970  0.00  0.00    +0.061 A 
ATOM      7  C   UNL     1       4.779  -5.599   1.740  0.00  0.00    +0.035 A 
ATOM      8  C   UNL     1       5.793  -6.526   1.622  0.00  0.00    +0.042 A 
ATOM      9  C   UNL     1       6.576  -6.850   2.719  0.00  0.00    +0.022 A 
ATOM     10  C   UNL     1       6.349  -6.249   3.941  0.00  0.00    +0.025 A 
ATOM     11  C   UNL     1       5.337  -5.309   4.077  0.00  0.00    +0.037 A 
ATOM     12 CL   UNL     1       6.091  -7.292   0.092  0.00  0.00    -0.084 Cl
BRANCH  11  13
ATOM     13  N   UNL     1       5.110  -4.698   5.306  0.00  0.00    -0.357 N 
ATOM     14  H   UNL     1       4.344  -4.115   5.424  0.00  0.00    +0.142 HD
ATOM     15  H   UNL     1       5.718  -4.855   6.045  0.00  0.00    +0.142 HD
ENDBRANCH  11  13
ENDBRANCH   3   6
BRANCH   1  16
ATOM     16  C   UNL     1       0.061  -2.820   2.610  0.00  0.00    +0.114 C 
BRANCH  16  22
ATOM     17  C   UNL     1      -0.158   1.303  -0.218  0.00  0.00    +0.044 C 
ATOM     18  C   UNL     1      -0.147  -0.199  -0.100  0.00  0.00    -0.050 A 
ATOM     19  C   UNL     1      -0.232  -0.983  -1.236  0.00  0.00    +0.003 A 
ATOM     20  C   UNL     1      -0.222  -2.361  -1.127  0.00  0.00    +0.001 A 
ATOM     21  C   UNL     1      -0.127  -2.955   0.118  0.00  0.00    +0.004 A 
ATOM     22  C   UNL     1      -0.042  -2.172   1.253  0.00  0.00    -0.040 A 
ATOM     23  C   UNL     1      -0.047  -0.794   1.144  0.00  0.00    +0.007 A 
ENDBRANCH  16  22
ENDBRANCH   1  16
TORSDOF 4
