REMARK  Name = ZINC36206715
REMARK  14 active torsions:
REMARK  status: ('A' for Active; 'I' for Inactive)
REMARK    1  A    between atoms: C_1  and  C_2
REMARK    2  A    between atoms: C_2  and  C_3
REMARK    3  A    between atoms: C_9  and  C_18
REMARK    4  A    between atoms: C_13  and  C_14
REMARK    5  A    between atoms: C_14  and  O_16
REMARK    6  A    between atoms: O_16  and  C_17
REMARK    7  A    between atoms: C_18  and  N_19
REMARK    8  A    between atoms: N_19  and  C_20
REMARK    9  A    between atoms: N_19  and  C_26
REMARK   10  A    between atoms: C_20  and  C_21
REMARK   11  A    between atoms: C_26  and  C_27
REMARK   12  A    between atoms: C_27  and  C_29
REMARK   13  A    between atoms: C_27  and  O_36
REMARK   14  A    between atoms: C_29  and  C_30
REMARK                            x       y       z     vdW  Elec       q    Type
REMARK                         _______ _______ _______ _____ _____    ______ ____
ROOT
ATOM      1  N   UNL     1      -0.264  -2.006  -7.269  0.00  0.00    +0.391 N 
ATOM      2  H   UNL     1       0.494  -1.365  -7.449  0.00  0.00    -0.080 HD
ENDROOT
BRANCH   1   3
ATOM      3  C   UNL     1      -1.155  -1.437  -6.249  0.00  0.00    -0.003 C 
BRANCH   3  10
ATOM      4  C   UNL     1       2.074  -0.021  -1.834  0.00  0.00    -0.012 A 
ATOM      5  C   UNL     1       1.160  -0.320  -2.846  0.00  0.00    +0.076 A 
ATOM      6  C   UNL     1      -0.306  -0.115  -2.873  0.00  0.00    +0.260 A 
ATOM      7  O   UNL     1      -0.886   0.379  -1.923  0.00  0.00    -0.267 OA
ATOM      8  N   UNL     1      -0.982  -0.488  -3.977  0.00  0.00    -0.312 N 
ATOM      9  H   UNL     1      -1.943  -0.360  -4.012  0.00  0.00    +0.170 HD
ATOM     10  C   UNL     1      -0.347  -1.038  -5.042  0.00  0.00    +0.094 A 
ATOM     11  N   UNL     1       0.943  -1.233  -5.050  0.00  0.00    -0.229 NA
ATOM     12  C   UNL     1       1.704  -0.902  -4.015  0.00  0.00    +0.116 A 
ATOM     13  S   UNL     1       3.438  -1.003  -3.651  0.00  0.00    -0.062 S 
ATOM     14  C   UNL     1       3.401  -0.289  -2.016  0.00  0.00    +0.102 A 
BRANCH   4  16
ATOM     15  C   UNL     1       1.626   2.125  -0.676  0.00  0.00    +0.009 C 
ATOM     16  C   UNL     1       1.599   0.601  -0.546  0.00  0.00    +0.034 C 
ENDBRANCH   4  16
BRANCH  14  17
ATOM     17  C   UNL     1       4.515  -0.052  -1.096  0.00  0.00    +0.346 C 
ATOM     18  O   UNL     1       4.309   0.447  -0.006  0.00  0.00    -0.244 OA
BRANCH  17  19
ATOM     19  O   UNL     1       5.771  -0.387  -1.458  0.00  0.00    -0.464 OA
ATOM     20  C   UNL     1       6.810  -0.127  -0.511  0.00  0.00    +0.280 C 
ENDBRANCH  17  19
ENDBRANCH  14  17
ENDBRANCH   3  10
ENDBRANCH   1   3
BRANCH   1  21
ATOM     21  C   UNL     1       0.279  -3.283  -6.787  0.00  0.00    -0.002 C 
BRANCH  21  22
ATOM     22  C   UNL     1       1.271  -3.817  -7.788  0.00  0.00    +0.089 A 
ATOM     23  C   UNL     1       2.573  -3.486  -7.859  0.00  0.00    +0.042 A 
ATOM     24  C   UNL     1       3.123  -4.216  -8.938  0.00  0.00    +0.041 A 
ATOM     25  C   UNL     1       2.125  -4.951  -9.460  0.00  0.00    +0.195 A 
ATOM     26  O   UNL     1       1.007  -4.710  -8.756  0.00  0.00    -0.470 OA
ENDBRANCH  21  22
ENDBRANCH   1  21
BRANCH   1  27
ATOM     27  C   UNL     1      -1.019  -2.232  -8.508  0.00  0.00    -0.046 C 
BRANCH  27  28
ATOM     28  C   UNL     1      -1.409  -0.886  -9.121  0.00  0.00    +0.102 C 
BRANCH  28  29
ATOM     29  O   UNL     1      -2.409  -0.266  -8.311  0.00  0.00    -0.393 OA
ATOM     30  H   UNL     1      -3.221  -0.784  -8.222  0.00  0.00    +0.210 HD
ENDBRANCH  28  29
BRANCH  28  31
ATOM     31  C   UNL     1      -1.960  -1.107 -10.531  0.00  0.00    +0.064 C 
BRANCH  31  32
ATOM     32  C   UNL     1      -2.229   0.226 -11.180  0.00  0.00    -0.045 A 
ATOM     33  C   UNL     1      -3.465   0.828 -11.036  0.00  0.00    +0.004 A 
ATOM     34  C   UNL     1      -3.712   2.051 -11.631  0.00  0.00    +0.000 A 
ATOM     35  C   UNL     1      -2.722   2.672 -12.370  0.00  0.00    +0.000 A 
ATOM     36  C   UNL     1      -1.486   2.071 -12.514  0.00  0.00    +0.000 A 
ATOM     37  C   UNL     1      -1.238   0.850 -11.915  0.00  0.00    +0.004 A 
ENDBRANCH  31  32
ENDBRANCH  28  31
ENDBRANCH  27  28
ENDBRANCH   1  27
TORSDOF 12
