REMARK  Name = ZINC04543257
REMARK  4 active torsions:
REMARK  status: ('A' for Active; 'I' for Inactive)
REMARK    1  A    between atoms: C_1  and  C_2
REMARK    2  A    between atoms: C_2  and  O_3
REMARK    3  A    between atoms: O_3  and  C_4
REMARK    4  A    between atoms: C_17  and  C_20
REMARK                            x       y       z     vdW  Elec       q    Type
REMARK                         _______ _______ _______ _____ _____    ______ ____
ROOT
ATOM      1  C   UNL     1      -0.665   1.367  -0.180  0.00  0.00    +0.403 C 
ATOM      2  O   UNL     1      -1.760   1.890  -0.237  0.00  0.00    -0.226 OA
ATOM      3  N   UNL     1      -0.561   0.023  -0.156  0.00  0.00    -0.262 N 
ATOM      4  C   UNL     1      -1.754  -0.836  -0.193  0.00  0.00    +0.116 C 
ATOM      5  C   UNL     1      -1.753  -1.659  -1.482  0.00  0.00    +0.056 C 
ATOM      6  C   UNL     1      -0.380  -2.292  -1.674  0.00  0.00    -0.020 A 
ATOM      7  C   UNL     1       0.709  -1.805  -1.039  0.00  0.00    +0.013 A 
ATOM      8  S   UNL     1       2.051  -2.838  -1.563  0.00  0.00    -0.076 S 
ATOM      9  C   UNL     1       1.187  -3.892  -2.599  0.00  0.00    +0.080 A 
ATOM     10  C   UNL     1      -0.141  -3.442  -2.533  0.00  0.00    +0.068 A 
ATOM     11  C   UNL     1      -1.151  -4.176  -3.329  0.00  0.00    +0.248 C 
ATOM     12  O   UNL     1      -2.342  -3.962  -3.195  0.00  0.00    -0.270 OA
ATOM     13  N   UNL     1      -0.696  -5.093  -4.209  0.00  0.00    -0.289 N 
ATOM     14  C   UNL     1       0.716  -5.278  -4.527  0.00  0.00    +0.191 C 
ATOM     15  N   UNL     1       1.573  -4.956  -3.372  0.00  0.00    -0.316 N 
ATOM     16  C   UNL     1       0.755  -0.642  -0.099  0.00  0.00    +0.153 C 
ATOM     17  H   UNL     1      -1.344  -5.660  -4.655  0.00  0.00    +0.151 HD
ATOM     18  H   UNL     1       2.369  -5.472  -3.168  0.00  0.00    +0.149 HD
ENDROOT
BRANCH  14  19
ATOM     19  C   UNL     1       1.083  -4.378  -5.679  0.00  0.00    -0.002 A 
ATOM     20  C   UNL     1       0.365  -3.247  -5.920  0.00  0.00    +0.008 A 
ATOM     21  C   UNL     1       0.693  -2.401  -6.978  0.00  0.00    +0.001 A 
ATOM     22  C   UNL     1       1.735  -2.686  -7.806  0.00  0.00    +0.008 A 
ATOM     23  C   UNL     1       2.496  -3.847  -7.592  0.00  0.00    -0.018 A 
ATOM     24  C   UNL     1       2.166  -4.705  -6.513  0.00  0.00    -0.011 A 
ATOM     25  C   UNL     1       2.927  -5.867  -6.299  0.00  0.00    +0.009 A 
ATOM     26  C   UNL     1       3.970  -6.151  -7.127  0.00  0.00    +0.001 A 
ATOM     27  C   UNL     1       4.294  -5.307  -8.187  0.00  0.00    +0.001 A 
ATOM     28  C   UNL     1       3.579  -4.174  -8.426  0.00  0.00    +0.008 A 
ENDBRANCH  14  19
BRANCH   1  29
ATOM     29  O   UNL     1       0.444   2.129  -0.145  0.00  0.00    -0.451 OA
BRANCH  29  31
ATOM     30  C   UNL     1       1.619   4.262  -0.127  0.00  0.00    +0.048 C 
ATOM     31  C   UNL     1       0.256   3.568  -0.173  0.00  0.00    +0.230 C 
ENDBRANCH  29  31
ENDBRANCH   1  29
TORSDOF 3
