REMARK  Name = ZINC43367278
REMARK  8 active torsions:
REMARK  status: ('A' for Active; 'I' for Inactive)
REMARK    1  A    between atoms: C_1  and  C_2
REMARK    2  A    between atoms: C_2  and  C_3
REMARK    3  A    between atoms: C_3  and  C_5
REMARK    4  A    between atoms: C_3  and  N_24
REMARK    5  A    between atoms: C_5  and  C_7
REMARK    6  A    between atoms: C_5  and  S_13
REMARK    7  A    between atoms: C_10  and  C_12
REMARK    8  A    between atoms: S_13  and  C_14
REMARK                            x       y       z     vdW  Elec       q    Type
REMARK                         _______ _______ _______ _____ _____    ______ ____
ROOT
ATOM      1  C   UNL     1       0.513  -2.014  -1.263  0.00  0.00    +0.106 C 
ENDROOT
BRANCH   1   2
ATOM      2  C   UNL     1       1.454  -2.474  -2.347  0.00  0.00    +0.117 A 
ATOM      3  C   UNL     1       1.112  -3.191  -3.432  0.00  0.00    +0.046 A 
ATOM      4  C   UNL     1       2.296  -3.399  -4.176  0.00  0.00    +0.044 A 
ATOM      5  C   UNL     1       3.291  -2.796  -3.500  0.00  0.00    +0.102 A 
ATOM      6  O   UNL     1       2.774  -2.233  -2.396  0.00  0.00    -0.464 OA
ATOM      7  C   UNL     1       4.740  -2.756  -3.914  0.00  0.00    +0.086 C 
ENDBRANCH   1   2
BRANCH   1   8
ATOM      8  C   UNL     1       0.529  -0.486  -1.189  0.00  0.00    -0.054 C 
BRANCH   8   9
ATOM      9  N   UNL     1      -0.340  -0.039  -0.092  0.00  0.00    +0.381 N 
ATOM     10  H   UNL     1      -0.006  -0.422   0.779  0.00  0.00    -0.090 HD
ATOM     11  H   UNL     1      -0.330   0.968  -0.043  0.00  0.00    -0.090 HD
ATOM     12  H   UNL     1      -1.283  -0.358  -0.260  0.00  0.00    -0.090 HD
ENDBRANCH   8   9
BRANCH   8  14
ATOM     13  C   UNL     1       0.165   1.617  -2.488  0.00  0.00    +0.002 C 
ATOM     14  C   UNL     1       0.022   0.094  -2.511  0.00  0.00    -0.018 C 
ENDBRANCH   8  14
ENDBRANCH   1   8
BRANCH   1  15
ATOM     15  S   UNL     1       1.044  -2.702   0.330  0.00  0.00    -0.078 S 
BRANCH  15  16
ATOM     16  C   UNL     1       0.759  -4.433   0.162  0.00  0.00    +0.168 A 
ATOM     17  N   UNL     1       1.093  -5.377   1.091  0.00  0.00    -0.333 N 
ATOM     18  H   UNL     1       1.522  -5.216   1.947  0.00  0.00    +0.168 HD
ATOM     19  C   UNL     1       0.706  -6.607   0.585  0.00  0.00    +0.067 A 
ATOM     20  C   UNL     1       0.780  -7.908   1.058  0.00  0.00    +0.028 A 
ATOM     21  C   UNL     1       0.291  -8.946   0.293  0.00  0.00    +0.002 A 
ATOM     22  C   UNL     1      -0.275  -8.697  -0.949  0.00  0.00    +0.002 A 
ATOM     23  C   UNL     1      -0.357  -7.412  -1.435  0.00  0.00    +0.030 A 
ATOM     24  C   UNL     1       0.134  -6.349  -0.672  0.00  0.00    +0.090 A 
ATOM     25  N   UNL     1       0.191  -5.006  -0.870  0.00  0.00    -0.222 NA
ENDBRANCH  15  16
ENDBRANCH   1  15
TORSDOF 6
