REMARK  Name = ZINC11094687
REMARK  16 active torsions:
REMARK  status: ('A' for Active; 'I' for Inactive)
REMARK    1  A    between atoms: C_1  and  C_2
REMARK    2  A    between atoms: C_2  and  C_3
REMARK    3  A    between atoms: C_3  and  C_5
REMARK    4  A    between atoms: C_3  and  C_6
REMARK    5  A    between atoms: C_9  and  C_12
REMARK    6  A    between atoms: C_12  and  C_14
REMARK    7  A    between atoms: C_12  and  N_71
REMARK    8  A    between atoms: C_14  and  C_15
REMARK    9  A    between atoms: C_14  and  C_16
REMARK   10  A    between atoms: C_17  and  C_19
REMARK   11  A    between atoms: C_17  and  C_20
REMARK   12  A    between atoms: C_17  and  N_71
REMARK   13  A    between atoms: N_22  and  C_23
REMARK   14  A    between atoms: C_24  and  C_36
REMARK   15  A    between atoms: N_25  and  C_35
REMARK   16  A    between atoms: N_26  and  C_29
REMARK                            x       y       z     vdW  Elec       q    Type
REMARK                         _______ _______ _______ _____ _____    ______ ____
ROOT
ATOM      1  C   UNL     1      -3.139   6.314  -0.122  0.00  0.00    +0.014 C 
ATOM      2  C   UNL     1      -2.700   7.102   1.113  0.00  0.00    -0.004 C 
ENDROOT
BRANCH   1   3
ATOM      3  C   UNL     1      -2.627   4.899  -0.024  0.00  0.00    +0.203 C 
ATOM      4  O   UNL     1      -3.408   3.971  -0.017  0.00  0.00    -0.277 OA
ATOM      5  N   UNL     1      -1.302   4.666   0.057  0.00  0.00    -0.281 N 
ATOM      6  H   UNL     1      -0.675   5.401  -0.025  0.00  0.00    +0.155 HD
BRANCH   5   7
ATOM      7  C   UNL     1      -0.829   3.355   0.259  0.00  0.00    +0.121 A 
ATOM      8  C   UNL     1      -0.028   2.938   1.266  0.00  0.00    +0.059 A 
ATOM      9  N   UNL     1       0.206   1.597   1.111  0.00  0.00    -0.282 N 
ATOM     10  N   UNL     1      -0.465   1.142  -0.029  0.00  0.00    -0.216 N 
ATOM     11  C   UNL     1      -1.108   2.191  -0.583  0.00  0.00    +0.293 A 
ATOM     12  O   UNL     1      -1.792   2.173  -1.591  0.00  0.00    -0.264 OA
ATOM     13  C   UNL     1       1.030   0.771   1.998  0.00  0.00    +0.171 C 
ATOM     14  C   UNL     1       0.516   3.804   2.372  0.00  0.00    +0.067 C 
BRANCH  10  15
ATOM     15  C   UNL     1      -0.465  -0.170  -0.513  0.00  0.00    +0.067 A 
ATOM     16  C   UNL     1      -1.663  -0.787  -0.850  0.00  0.00    +0.028 A 
ATOM     17  C   UNL     1      -1.659  -2.081  -1.334  0.00  0.00    +0.002 A 
ATOM     18  C   UNL     1      -0.466  -2.765  -1.472  0.00  0.00    +0.000 A 
ATOM     19  C   UNL     1       0.728  -2.156  -1.131  0.00  0.00    +0.002 A 
ATOM     20  C   UNL     1       0.732  -0.860  -0.653  0.00  0.00    +0.028 A 
ENDBRANCH  10  15
ENDBRANCH   5   7
ENDBRANCH   1   3
BRANCH   1  21
ATOM     21  N   UNL     1      -4.612   6.292  -0.193  0.00  0.00    +0.391 N 
ATOM     22  H   UNL     1      -4.916   5.434  -0.669  0.00  0.00    -0.084 HD
ATOM     23  H   UNL     1      -4.998   6.309   0.758  0.00  0.00    -0.084 HD
BRANCH  21  24
ATOM     24  C   UNL     1      -5.107   7.464  -0.940  0.00  0.00    -0.037 C 
BRANCH  24  28
ATOM     25  C   UNL     1      -5.728  10.715   1.761  0.00  0.00    -0.045 A 
ATOM     26  C   UNL     1      -5.189  10.949   0.510  0.00  0.00    +0.004 A 
ATOM     27  C   UNL     1      -4.987   9.897  -0.364  0.00  0.00    +0.002 A 
ATOM     28  C   UNL     1      -5.326   8.611   0.013  0.00  0.00    -0.061 A 
ATOM     29  C   UNL     1      -5.870   8.377   1.262  0.00  0.00    +0.002 A 
ATOM     30  C   UNL     1      -6.066   9.428   2.138  0.00  0.00    +0.004 A 
BRANCH  25  31
ATOM     31  C   UNL     1      -5.948  11.862   2.713  0.00  0.00    +0.016 C 
ATOM     32  C   UNL     1      -7.434  11.958   3.062  0.00  0.00    +0.012 C 
BRANCH  31  34
ATOM     33  C   UNL     1      -5.262  12.846   4.905  0.00  0.00    +0.004 C 
ATOM     34  C   UNL     1      -5.139  11.626   3.990  0.00  0.00    +0.004 C 
ENDBRANCH  31  34
ENDBRANCH  25  31
ENDBRANCH  24  28
BRANCH  24  35
ATOM     35  C   UNL     1      -6.430   7.106  -1.619  0.00  0.00    -0.027 C 
ATOM     36  C   UNL     1      -6.183   6.034  -2.683  0.00  0.00    +0.006 C 
ATOM     37  C   UNL     1      -7.411   6.570  -0.575  0.00  0.00    +0.006 C 
ENDBRANCH  24  35
ENDBRANCH  21  24
ENDBRANCH   1  21
TORSDOF 9
