REMARK  Name = ZINC43747008
REMARK  8 active torsions:
REMARK  status: ('A' for Active; 'I' for Inactive)
REMARK    1  A    between atoms: C_1  and  C_2
REMARK    2  A    between atoms: C_14  and  O_33
REMARK    3  A    between atoms: C_18  and  C_32
REMARK    4  A    between atoms: C_21  and  O_31
REMARK    5  A    between atoms: C_24  and  C_30
REMARK    6  A    between atoms: C_25  and  C_26
REMARK    7  A    between atoms: C_25  and  O_29
REMARK    8  A    between atoms: C_26  and  C_28
REMARK                            x       y       z     vdW  Elec       q    Type
REMARK                         _______ _______ _______ _____ _____    ______ ____
ROOT
ATOM      1  C   UNL     1       0.215   1.545  -0.080  0.00  0.00    +0.011 C 
ATOM      2  C   UNL     1       0.136   0.016  -0.062  0.00  0.00    +0.026 C 
ATOM      3  C   UNL     1      -1.330  -0.446  -0.104  0.00  0.00    +0.011 C 
ATOM      4  C   UNL     1      -1.629  -1.112   1.263  0.00  0.00    +0.002 C 
ATOM      5  C   UNL     1      -2.305  -0.064   2.148  0.00  0.00    -0.001 C 
ATOM      6  C   UNL     1      -3.740   0.104   1.615  0.00  0.00    +0.004 C 
ATOM      7  C   UNL     1      -4.497   1.125   2.460  0.00  0.00    +0.004 C 
ATOM      8  C   UNL     1      -4.536   0.668   3.920  0.00  0.00    -0.002 C 
ATOM      9  C   UNL     1      -5.319   1.673   4.755  0.00  0.00    +0.035 C 
ATOM     10  C   UNL     1      -4.637   3.032   4.815  0.00  0.00    +0.115 C 
ATOM     11  C   UNL     1      -3.166   2.927   5.187  0.00  0.00    +0.032 C 
ATOM     12  C   UNL     1      -2.429   1.894   4.335  0.00  0.00    +0.010 C 
ATOM     13  C   UNL     1      -3.099   0.529   4.443  0.00  0.00    -0.024 C 
ATOM     14  C   UNL     1      -2.383  -0.529   3.595  0.00  0.00    +0.027 C 
ATOM     15  C   UNL     1      -1.048  -0.931   4.175  0.00  0.00    +0.119 C 
ATOM     16  C   UNL     1      -0.196  -1.792   3.265  0.00  0.00    +0.041 C 
ATOM     17  C   UNL     1      -0.258  -1.536   1.790  0.00  0.00    +0.009 C 
ATOM     18  C   UNL     1       0.754  -0.528   1.243  0.00  0.00    +0.131 C 
ATOM     19  C   UNL     1       0.074  -2.889   1.104  0.00  0.00    +0.015 C 
ATOM     20  C   UNL     1      -3.139   0.065   5.900  0.00  0.00    +0.012 C 
ENDROOT
BRANCH  18  21
ATOM     21  C   UNL     1       1.030   0.608   2.186  0.00  0.00    +0.162 C 
ATOM     22  O   UNL     1       0.121   1.300   2.580  0.00  0.00    -0.295 OA
ATOM     23  C   UNL     1       2.439   0.884   2.641  0.00  0.00    +0.089 C 
ENDBRANCH  18  21
BRANCH  18  24
ATOM     24  O   UNL     1       1.985  -1.201   0.938  0.00  0.00    -0.380 OA
ATOM     25  H   UNL     1       2.657  -0.631   0.539  0.00  0.00    +0.211 HD
ENDBRANCH  18  24
BRANCH  15  26
ATOM     26  O   UNL     1      -0.287   0.165   4.675  0.00  0.00    -0.391 OA
ATOM     27  H   UNL     1       0.569  -0.088   5.047  0.00  0.00    +0.210 HD
ENDBRANCH  15  26
BRANCH  10  28
ATOM     28  O   UNL     1      -4.791   3.731   3.579  0.00  0.00    -0.392 OA
ATOM     29  H   UNL     1      -4.374   4.603   3.566  0.00  0.00    +0.210 HD
ENDBRANCH  10  28
TORSDOF 4
