REMARK  Name = ZINC01247351
REMARK  4 active torsions:
REMARK  status: ('A' for Active; 'I' for Inactive)
REMARK    1  A    between atoms: C_1  and  N_59
REMARK    2  A    between atoms: N_4  and  C_7
REMARK    3  A    between atoms: C_8  and  C_18
REMARK    4  A    between atoms: N_22  and  C_26
REMARK                            x       y       z     vdW  Elec       q    Type
REMARK                         _______ _______ _______ _____ _____    ______ ____
ROOT
ATOM      1  C   UNL     1      -4.968   1.749  -0.024  0.00  0.00    +0.136 A 
ATOM      2  C   UNL     1      -3.678   2.306   0.138  0.00  0.00    +0.081 A 
ATOM      3  C   UNL     1      -3.537   3.712   0.047  0.00  0.00    +0.267 A 
ATOM      4  O   UNL     1      -2.443   4.234   0.176  0.00  0.00    -0.267 OA
ATOM      5  N   UNL     1      -4.634   4.464  -0.183  0.00  0.00    -0.268 N 
ATOM      6  C   UNL     1      -4.508   5.818  -0.272  0.00  0.00    +0.096 A 
ATOM      7  C   UNL     1      -5.586   6.600  -0.501  0.00  0.00    +0.018 A 
ATOM      8  C   UNL     1      -6.854   6.023  -0.653  0.00  0.00    +0.005 A 
ATOM      9  C   UNL     1      -6.991   4.669  -0.566  0.00  0.00    +0.047 A 
ATOM     10  C   UNL     1      -5.858   3.871  -0.326  0.00  0.00    +0.142 A 
ATOM     11  N   UNL     1      -6.002   2.548  -0.244  0.00  0.00    -0.214 NA
ENDROOT
BRANCH   1  15
ATOM     12  C   UNL     1      -6.230  -3.609  -0.798  0.00  0.00    -0.096 C 
ATOM     13  C   UNL     1      -6.737  -1.470   0.217  0.00  0.00    -0.060 C 
ATOM     14  C   UNL     1      -6.578   0.043   0.054  0.00  0.00    +0.088 C 
ATOM     15  N   UNL     1      -5.149   0.385   0.051  0.00  0.00    -0.318 N 
ATOM     16  C   UNL     1      -4.449  -0.300  -1.044  0.00  0.00    +0.088 C 
ATOM     17  C   UNL     1      -4.608  -1.813  -0.880  0.00  0.00    -0.060 C 
ATOM     18  N   UNL     1      -6.048  -2.146  -0.902  0.00  0.00    +0.380 N 
ATOM     19  H   UNL     1      -6.452  -1.821  -1.788  0.00  0.00    -0.082 HD
ENDBRANCH   1  15
BRANCH   2  20
ATOM     20  C   UNL     1      -2.556   1.479   0.379  0.00  0.00    +0.037 C 
ATOM     21  C   UNL     1      -2.554   0.624   1.443  0.00  0.00    +0.077 C 
ATOM     22  C   UNL     1      -1.595  -0.362   1.810  0.00  0.00    +0.259 C 
ATOM     23  O   UNL     1      -0.595  -0.546   1.138  0.00  0.00    -0.269 OA
ATOM     24  N   UNL     1      -1.817  -1.070   2.904  0.00  0.00    -0.252 N 
ATOM     25  C   UNL     1      -2.926  -0.867   3.649  0.00  0.00    +0.121 C 
ATOM     26  S   UNL     1      -3.413  -1.659   5.087  0.00  0.00    -0.027 S 
ATOM     27  S   UNL     1      -3.755   0.437   2.753  0.00  0.00    -0.061 S 
BRANCH  24  28
ATOM     28  C   UNL     1      -0.848  -2.090   3.314  0.00  0.00    +0.083 C 
ATOM     29  C   UNL     1      -1.532  -3.458   3.351  0.00  0.00    +0.023 C 
ATOM     30  C   UNL     1      -0.520  -4.522   3.780  0.00  0.00    +0.002 C 
ATOM     31  C   UNL     1       0.019  -4.183   5.171  0.00  0.00    +0.000 C 
ATOM     32  C   UNL     1       0.703  -2.815   5.133  0.00  0.00    +0.002 C 
ATOM     33  C   UNL     1      -0.309  -1.751   4.705  0.00  0.00    +0.023 C 
ENDBRANCH  24  28
ENDBRANCH   2  20
TORSDOF 3
