REMARK  Name = ZINC08831586
REMARK  12 active torsions:
REMARK  status: ('A' for Active; 'I' for Inactive)
REMARK    1  A    between atoms: C_1  and  C_2
REMARK    2  A    between atoms: C_6  and  C_10
REMARK    3  A    between atoms: C_7  and  O_8
REMARK    4  A    between atoms: O_8  and  C_9
REMARK    5  A    between atoms: N_12  and  C_13
REMARK    6  A    between atoms: C_13  and  N_15
REMARK    7  A    between atoms: N_15  and  C_16
REMARK    8  A    between atoms: C_17  and  C_30
REMARK    9  A    between atoms: C_22  and  C_26
REMARK   10  A    between atoms: C_26  and  C_27
REMARK   11  A    between atoms: C_26  and  C_28
REMARK   12  A    between atoms: C_26  and  C_29
REMARK                            x       y       z     vdW  Elec       q    Type
REMARK                         _______ _______ _______ _____ _____    ______ ____
ROOT
ATOM      1  N   UNL     1      -1.428   3.422   7.467  0.00  0.00    -0.290 N 
ATOM      2  H   UNL     1      -1.951   4.196   7.728  0.00  0.00    +0.154 HD
ENDROOT
BRANCH   1   3
ATOM      3  C   UNL     1      -1.205   3.156   6.125  0.00  0.00    +0.089 A 
ATOM      4  C   UNL     1      -1.642   3.872   5.020  0.00  0.00    +0.084 A 
ATOM      5  C   UNL     1      -1.267   3.377   3.707  0.00  0.00    -0.018 A 
ATOM      6  C   UNL     1      -0.519   2.252   3.708  0.00  0.00    -0.004 A 
ATOM      7  S   UNL     1      -0.311   1.850   5.420  0.00  0.00    -0.077 S 
ATOM      8  C   UNL     1       0.010   1.518   2.515  0.00  0.00    +0.047 C 
ATOM      9  C   UNL     1      -0.735   2.019   1.269  0.00  0.00    -0.000 C 
ATOM     10  C   UNL     1      -0.751   3.550   1.284  0.00  0.00    +0.009 C 
ATOM     11  C   UNL     1      -1.668   4.051   2.400  0.00  0.00    +0.037 C 
BRANCH   9  12
ATOM     12  C   UNL     1      -0.019   1.526   0.010  0.00  0.00    -0.035 C 
ATOM     13  C   UNL     1       0.002  -0.004   0.002  0.00  0.00    +0.011 C 
ATOM     14  C   UNL     1       1.417   2.055  -0.000  0.00  0.00    +0.011 C 
ATOM     15  C   UNL     1      -0.759   2.033  -1.229  0.00  0.00    +0.011 C 
ENDBRANCH   9  12
BRANCH   4  16
ATOM     16  C   UNL     1      -2.435   5.055   5.169  0.00  0.00    +0.102 C 
ATOM     17  N   UNL     1      -3.064   5.994   5.287  0.00  0.00    -0.191 NA
ENDBRANCH   4  16
ENDBRANCH   1   3
BRANCH   1  18
ATOM     18  C   UNL     1      -0.917   2.605   8.410  0.00  0.00    +0.141 C 
ATOM     19  S   UNL     1       0.007   1.240   7.950  0.00  0.00    -0.018 S 
BRANCH  18  22
ATOM     20  C   UNL     1      -0.624   2.046  10.657  0.00  0.00    +0.253 C 
ATOM     21  O   UNL     1       0.032   1.077  10.331  0.00  0.00    -0.270 OA
ATOM     22  N   UNL     1      -1.134   2.864   9.715  0.00  0.00    -0.263 N 
ATOM     23  H   UNL     1      -1.658   3.637   9.976  0.00  0.00    +0.157 HD
BRANCH  20  29
ATOM     24  C   UNL     1       0.005   0.851  15.471  0.00  0.00    +0.047 C 
ATOM     25  C   UNL     1      -0.561   1.757  14.409  0.00  0.00    -0.008 A 
ATOM     26  C   UNL     1      -1.308   2.861  14.770  0.00  0.00    +0.007 A 
ATOM     27  C   UNL     1      -1.833   3.700  13.801  0.00  0.00    +0.001 A 
ATOM     28  C   UNL     1      -1.610   3.446  12.465  0.00  0.00    +0.017 A 
ATOM     29  C   UNL     1      -0.861   2.329  12.085  0.00  0.00    +0.079 A 
ATOM     30  C   UNL     1      -0.332   1.482  13.069  0.00  0.00    +0.135 A 
BRANCH  30  31
ATOM     31  O   UNL     1       0.402   0.398  12.712  0.00  0.00    -0.494 OA
ATOM     32  C   UNL     1       1.812   0.585  12.579  0.00  0.00    +0.277 C 
ENDBRANCH  30  31
ENDBRANCH  20  29
ENDBRANCH  18  22
ENDBRANCH   1  18
TORSDOF 7
