REMARK  Name = ZINC05432454
REMARK  9 active torsions:
REMARK  status: ('A' for Active; 'I' for Inactive)
REMARK    1  A    between atoms: C_1  and  C_2
REMARK    2  A    between atoms: C_5  and  S_8
REMARK    3  A    between atoms: S_8  and  C_11
REMARK    4  A    between atoms: C_11  and  S_18
REMARK    5  A    between atoms: N_13  and  C_14
REMARK    6  A    between atoms: C_14  and  C_15
REMARK    7  A    between atoms: C_14  and  C_16
REMARK    8  A    between atoms: C_14  and  C_17
REMARK    9  A    between atoms: S_18  and  C_19
REMARK                            x       y       z     vdW  Elec       q    Type
REMARK                         _______ _______ _______ _____ _____    ______ ____
ROOT
ATOM      1  C   UNL     1      -0.806   6.031   2.093  0.00  0.00    +0.186 C 
ATOM      2  S   UNL     1      -0.088   7.247   3.060  0.00  0.00    +0.033 S 
ATOM      3  N   UNL     1       0.587   6.293   4.279  0.00  0.00    -0.240 NA
ENDROOT
BRANCH   3   4
ATOM      4  C   UNL     1       1.236   6.926   5.430  0.00  0.00    +0.062 C 
ATOM      5  C   UNL     1       1.049   8.442   5.351  0.00  0.00    +0.036 C 
ATOM      6  C   UNL     1       0.607   6.401   6.722  0.00  0.00    +0.036 C 
ATOM      7  C   UNL     1       2.730   6.595   5.419  0.00  0.00    +0.036 C 
ENDBRANCH   3   4
BRANCH   1   8
ATOM      8  S   UNL     1      -1.795   6.478   0.705  0.00  0.00    +0.039 S 
ATOM      9  O   UNL     1      -3.128   6.606   1.180  0.00  0.00    -0.163 OA
ATOM     10  O   UNL     1      -1.443   5.589  -0.347  0.00  0.00    -0.163 OA
BRANCH   8  15
ATOM     11  C   UNL     1      -0.046  11.985  -1.034  0.00  0.00    +0.044 C 
ATOM     12  C   UNL     1      -0.483  10.609  -0.599  0.00  0.00    -0.050 A 
ATOM     13  C   UNL     1       0.191   9.493  -1.058  0.00  0.00    +0.005 A 
ATOM     14  C   UNL     1      -0.210   8.231  -0.660  0.00  0.00    +0.027 A 
ATOM     15  C   UNL     1      -1.284   8.086   0.198  0.00  0.00    +0.095 A 
ATOM     16  C   UNL     1      -1.958   9.202   0.657  0.00  0.00    +0.027 A 
ATOM     17  C   UNL     1      -1.558  10.464   0.258  0.00  0.00    +0.005 A 
ENDBRANCH   8  15
ENDBRANCH   1   8
BRANCH   1  18
ATOM     18  S   UNL     1      -0.557   4.331   2.486  0.00  0.00    -0.062 S 
BRANCH  18  19
ATOM     19  C   UNL     1      -1.529   3.579   1.224  0.00  0.00    +0.014 A 
ATOM     20  C   UNL     1      -0.924   3.113   0.064  0.00  0.00    +0.015 A 
ATOM     21  C   UNL     1      -1.688   2.519  -0.921  0.00  0.00    +0.001 A 
ATOM     22  C   UNL     1      -3.057   2.398  -0.758  0.00  0.00    +0.000 A 
ATOM     23  C   UNL     1      -3.663   2.866   0.394  0.00  0.00    +0.001 A 
ATOM     24  C   UNL     1      -2.904   3.456   1.385  0.00  0.00    +0.015 A 
ENDBRANCH  18  19
ENDBRANCH   1  18
TORSDOF 5
