REMARK  Name = ZINC17368536
REMARK  6 active torsions:
REMARK  status: ('A' for Active; 'I' for Inactive)
REMARK    1  A    between atoms: C_1  and  C_2
REMARK    2  A    between atoms: N_4  and  C_5
REMARK    3  A    between atoms: C_5  and  C_6
REMARK    4  A    between atoms: C_9  and  C_11
REMARK    5  A    between atoms: C_17  and  C_19
REMARK    6  A    between atoms: C_20  and  C_21
REMARK                            x       y       z     vdW  Elec       q    Type
REMARK                         _______ _______ _______ _____ _____    ______ ____
ROOT
ATOM      1  C   UNL     1       3.560  11.353  -7.399  0.00  0.00    +0.087 A 
ATOM      2  C   UNL     1       3.127  12.298  -6.509  0.00  0.00    +0.077 A 
ATOM      3  S   UNL     1       2.345  11.263  -5.278  0.00  0.00    -0.060 S 
ATOM      4  C   UNL     1       2.679   9.691  -6.059  0.00  0.00    +0.165 A 
ATOM      5  N   UNL     1       3.323  10.067  -7.148  0.00  0.00    -0.224 NA
ATOM      6  N   UNL     1       2.345   8.412  -5.635  0.00  0.00    -0.261 N 
ATOM      7  C   UNL     1       1.678   8.239  -4.477  0.00  0.00    +0.243 C 
ATOM      8  O   UNL     1       1.368   9.204  -3.803  0.00  0.00    -0.270 OA
ATOM      9  H   UNL     1       2.592   7.643  -6.173  0.00  0.00    +0.157 HD
ENDROOT
BRANCH   1  13
ATOM     10  C   UNL     1       5.543  12.928 -10.701  0.00  0.00    +0.007 A 
ATOM     11  C   UNL     1       5.432  11.576 -10.683  0.00  0.00    +0.013 A 
ATOM     12  C   UNL     1       4.794  10.969  -9.622  0.00  0.00    +0.018 A 
ATOM     13  C   UNL     1       4.282  11.755  -8.625  0.00  0.00    +0.038 A 
ATOM     14  S   UNL     1       4.720  13.392  -9.186  0.00  0.00    -0.090 S 
BRANCH  10  15
ATOM     15  C   UNL     1       6.193  13.811 -11.735  0.00  0.00    +0.146 C 
BRANCH  15  19
ATOM     16  C   UNL     1       4.544  15.364 -14.822  0.00  0.00    +0.109 C 
ATOM     17  C   UNL     1       5.561  14.979 -13.779  0.00  0.00    +0.210 C 
ATOM     18  O   UNL     1       6.702  15.381 -13.866  0.00  0.00    -0.276 OA
ATOM     19  N   UNL     1       5.204  14.186 -12.749  0.00  0.00    -0.311 N 
ATOM     20  H   UNL     1       4.291  13.864 -12.679  0.00  0.00    +0.149 HD
ENDBRANCH  15  19
ENDBRANCH  10  15
ENDBRANCH   1  13
BRANCH   7  21
ATOM     21  C   UNL     1       1.326   6.892  -4.031  0.00  0.00    +0.068 C 
ATOM     22  C   UNL     1       0.657   6.718  -2.871  0.00  0.00    +0.013 C 
BRANCH  22  23
ATOM     23  C   UNL     1       0.304   5.364  -2.422  0.00  0.00    -0.020 A 
ATOM     24  C   UNL     1      -0.390   5.182  -1.219  0.00  0.00    +0.057 A 
ATOM     25  C   UNL     1      -0.717   3.907  -0.806  0.00  0.00    +0.164 A 
ATOM     26  C   UNL     1      -0.361   2.807  -1.580  0.00  0.00    +0.180 A 
ATOM     27  C   UNL     1       0.327   2.983  -2.773  0.00  0.00    +0.087 A 
ATOM     28  C   UNL     1       0.659   4.254  -3.196  0.00  0.00    +0.031 A 
ATOM     29 CL   UNL     1       0.769   1.605  -3.733  0.00  0.00    -0.080 Cl
ATOM     30  O   UNL     1      -0.692   1.553  -1.159  0.00  0.00    -0.487 OA
ATOM     31  C   UNL     1      -0.013   1.086   0.008  0.00  0.00    +0.232 C 
ATOM     32  C   UNL     1      -0.712   1.570   1.269  0.00  0.00    +0.082 C 
ATOM     33  C   UNL     1      -0.661   3.083   1.414  0.00  0.00    +0.232 C 
ATOM     34  O   UNL     1      -1.394   3.716   0.364  0.00  0.00    -0.488 OA
ENDBRANCH  22  23
ENDBRANCH   7  21
TORSDOF 5
