REMARK  Name = ZINC04733614
REMARK  4 active torsions:
REMARK  status: ('A' for Active; 'I' for Inactive)
REMARK    1  A    between atoms: C_1  and  C_2
REMARK    2  A    between atoms: C_9  and  C_22
REMARK    3  A    between atoms: C_10  and  N_11
REMARK    4  A    between atoms: N_11  and  C_12
REMARK                            x       y       z     vdW  Elec       q    Type
REMARK                         _______ _______ _______ _____ _____    ______ ____
ROOT
ATOM      1  C   UNL     1      -0.423  -5.973   0.152  0.00  0.00    +0.044 C 
ATOM      2  C   UNL     1       0.611  -4.877   0.118  0.00  0.00    -0.046 A 
ATOM      3  C   UNL     1       0.210  -3.532   0.024  0.00  0.00    +0.021 A 
ATOM      4  C   UNL     1       1.131  -2.548  -0.008  0.00  0.00    +0.095 A 
ATOM      5  N   UNL     1       2.467  -2.841   0.058  0.00  0.00    -0.287 N 
ATOM      6  C   UNL     1       2.889  -4.148   0.145  0.00  0.00    +0.140 A 
ATOM      7  C   UNL     1       1.933  -5.186   0.178  0.00  0.00    +0.050 A 
ATOM      8  N   UNL     1       4.211  -4.162   0.187  0.00  0.00    -0.226 NA
ATOM      9  C   UNL     1       4.671  -2.900   0.125  0.00  0.00    +0.112 A 
ATOM     10  C   UNL     1       3.585  -2.053   0.039  0.00  0.00    +0.135 A 
ENDROOT
BRANCH   9  11
ATOM     11  C   UNL     1       6.095  -2.490   0.144  0.00  0.00    +0.004 A 
ATOM     12  C   UNL     1       6.518  -1.394  -0.608  0.00  0.00    +0.011 A 
ATOM     13  C   UNL     1       7.843  -1.013  -0.581  0.00  0.00    +0.020 A 
ATOM     14  C   UNL     1       8.755  -1.723   0.181  0.00  0.00    +0.041 A 
ATOM     15  C   UNL     1       8.342  -2.815   0.925  0.00  0.00    +0.020 A 
ATOM     16  C   UNL     1       7.017  -3.201   0.910  0.00  0.00    +0.011 A 
ATOM     17 CL   UNL     1      10.424  -1.243   0.203  0.00  0.00    -0.084 Cl
ENDBRANCH   9  11
BRANCH  10  18
ATOM     18  N   UNL     1       3.620  -0.662  -0.045  0.00  0.00    -0.299 N 
ATOM     19  H   UNL     1       3.813  -0.133   0.745  0.00  0.00    +0.154 HD
BRANCH  18  20
ATOM     20  C   UNL     1       3.376  -0.028  -1.268  0.00  0.00    +0.036 A 
ATOM     21  C   UNL     1       3.227  -0.783  -2.424  0.00  0.00    +0.027 A 
ATOM     22  C   UNL     1       2.989  -0.158  -3.632  0.00  0.00    +0.051 A 
ATOM     23  C   UNL     1       2.897   1.225  -3.695  0.00  0.00    +0.162 A 
ATOM     24  C   UNL     1       3.043   1.983  -2.539  0.00  0.00    +0.164 A 
ATOM     25  C   UNL     1       3.284   1.356  -1.327  0.00  0.00    +0.072 A 
ATOM     26  O   UNL     1       2.948   3.340  -2.580  0.00  0.00    -0.485 OA
ATOM     27  C   UNL     1       3.078   3.957  -3.866  0.00  0.00    +0.270 C 
ATOM     28  C   UNL     1       2.207   3.179  -4.862  0.00  0.00    +0.270 C 
ATOM     29  O   UNL     1       2.669   1.824  -4.897  0.00  0.00    -0.485 OA
ENDBRANCH  18  20
ENDBRANCH  10  18
TORSDOF 3
