REMARK  Name = ZINC19564990
REMARK  6 active torsions:
REMARK  status: ('A' for Active; 'I' for Inactive)
REMARK    1  A    between atoms: C_1  and  O_2
REMARK    2  A    between atoms: O_2  and  C_3
REMARK    3  A    between atoms: C_7  and  C_9
REMARK    4  A    between atoms: C_9  and  O_34
REMARK    5  A    between atoms: N_17  and  S_19
REMARK    6  A    between atoms: S_19  and  C_22
REMARK                            x       y       z     vdW  Elec       q    Type
REMARK                         _______ _______ _______ _____ _____    ______ ____
ROOT
ATOM      1  C   UNL     1      -3.074   1.691   1.852  0.00  0.00    +0.095 C 
ATOM      2  C   UNL     1      -2.507   1.302   3.253  0.00  0.00    +0.040 C 
ATOM      3  C   UNL     1      -1.027   0.867   3.006  0.00  0.00    +0.008 C 
ATOM      4  C   UNL     1      -0.698   1.649   1.750  0.00  0.00    +0.012 C 
ATOM      5  C   UNL     1      -1.987   1.299   0.900  0.00  0.00    +0.045 C 
ATOM      6  C   UNL     1      -1.641   1.926  -0.414  0.00  0.00    +0.116 C 
ATOM      7  N   UNL     1      -0.163   1.753  -0.538  0.00  0.00    -0.176 NA
ATOM      8  C   UNL     1       0.342   1.184   0.750  0.00  0.00    +0.113 C 
ENDROOT
BRANCH   1  13
ATOM      9  C   UNL     1      -2.750   5.416   2.398  0.00  0.00    +0.120 A 
ATOM     10  C   UNL     1      -3.807   5.898   1.639  0.00  0.00    +0.045 A 
ATOM     11  C   UNL     1      -4.622   5.017   0.955  0.00  0.00    +0.004 A 
ATOM     12  C   UNL     1      -4.381   3.657   1.020  0.00  0.00    +0.007 A 
ATOM     13  C   UNL     1      -3.331   3.174   1.779  0.00  0.00    -0.012 A 
ATOM     14  C   UNL     1      -2.513   4.051   2.466  0.00  0.00    +0.052 A 
BRANCH   9  16
ATOM     15  C   UNL     1      -2.249   7.672   2.956  0.00  0.00    +0.277 C 
ATOM     16  O   UNL     1      -1.947   6.280   3.072  0.00  0.00    -0.495 OA
ENDBRANCH   9  16
ENDBRANCH   1  13
BRANCH   7  17
ATOM     17  S   UNL     1       0.754   2.127  -1.865  0.00  0.00    +0.061 S 
ATOM     18  O   UNL     1       0.033   3.110  -2.594  0.00  0.00    -0.153 OA
ATOM     19  O   UNL     1       2.078   2.345  -1.395  0.00  0.00    -0.153 OA
BRANCH  17  20
ATOM     20  C   UNL     1       0.811   0.688  -2.880  0.00  0.00    +0.108 A 
ATOM     21  C   UNL     1       1.823  -0.241  -2.704  0.00  0.00    +0.030 A 
ATOM     22  C   UNL     1       1.873  -1.374  -3.492  0.00  0.00    +0.030 A 
ATOM     23  C   UNL     1       0.912  -1.577  -4.471  0.00  0.00    +0.067 A 
ATOM     24  C   UNL     1      -0.105  -0.638  -4.652  0.00  0.00    +0.069 A 
ATOM     25  C   UNL     1      -0.150   0.494  -3.853  0.00  0.00    +0.056 A 
ATOM     26  N   UNL     1      -0.906  -1.108  -5.691  0.00  0.00    -0.306 N 
ATOM     27  H   UNL     1      -1.781  -0.526  -6.016  0.00  0.00    +0.170 HD
ATOM     28  C   UNL     1      -0.400  -2.279  -6.120  0.00  0.00    +0.325 A 
ATOM     29  O   UNL     1      -0.863  -2.954  -7.020  0.00  0.00    -0.247 OA
ATOM     30  N   UNL     1       0.697  -2.589  -5.404  0.00  0.00    -0.306 N 
ATOM     31  H   UNL     1       1.381  -3.449  -5.450  0.00  0.00    +0.170 HD
ENDBRANCH  17  20
ENDBRANCH   7  17
BRANCH   1  32
ATOM     32  O   UNL     1      -4.271   0.963   1.573  0.00  0.00    -0.384 OA
ATOM     33  H   UNL     1      -4.261  -0.137   1.585  0.00  0.00    +0.211 HD
ENDBRANCH   1  32
TORSDOF 5
