REMARK  Name = ZINC02664066
REMARK  11 active torsions:
REMARK  status: ('A' for Active; 'I' for Inactive)
REMARK    1  A    between atoms: C_7  and  C_11
REMARK    2  A    between atoms: C_11  and  C_13
REMARK    3  A    between atoms: C_11  and  C_31
REMARK    4  A    between atoms: C_13  and  N_14
REMARK    5  A    between atoms: N_14  and  C_15
REMARK    6  A    between atoms: C_15  and  C_16
REMARK    7  A    between atoms: C_16  and  C_18
REMARK    8  A    between atoms: C_16  and  O_30
REMARK    9  A    between atoms: C_18  and  O_19
REMARK   10  A    between atoms: O_19  and  C_20
REMARK   11  A    between atoms: C_20  and  C_21
REMARK                            x       y       z     vdW  Elec       q    Type
REMARK                         _______ _______ _______ _____ _____    ______ ____
ROOT
ATOM      1  C   UNL     1       0.901  -4.117  -1.277  0.00  0.00    -0.070 C 
ENDROOT
BRANCH   1   2
ATOM      2  N   UNL     1      -0.091  -5.199  -1.335  0.00  0.00    +0.381 N 
ATOM      3  H   UNL     1       0.000  -5.782  -0.517  0.00  0.00    -0.086 HD
ATOM      4  H   UNL     1      -1.019  -4.803  -1.363  0.00  0.00    -0.086 HD
BRANCH   2   5
ATOM      5  C   UNL     1       0.134  -6.006  -2.541  0.00  0.00    -0.049 C 
BRANCH   5   6
ATOM      6  C   UNL     1      -0.899  -7.133  -2.600  0.00  0.00    +0.123 C 
BRANCH   6   7
ATOM      7  O   UNL     1      -0.770  -7.960  -1.442  0.00  0.00    -0.391 OA
ATOM      8  H   UNL     1       0.099  -8.374  -1.350  0.00  0.00    +0.210 HD
ENDBRANCH   6   7
BRANCH   6   9
ATOM      9  C   UNL     1      -0.664  -7.974  -3.857  0.00  0.00    +0.189 C 
BRANCH   9  10
ATOM     10  O   UNL     1      -1.698  -8.954  -3.974  0.00  0.00    -0.373 OA
BRANCH  10  11
ATOM     11  C   UNL     1      -1.572  -9.797  -5.120  0.00  0.00    +0.195 C 
BRANCH  11  12
ATOM     12  C   UNL     1      -2.709 -10.786  -5.144  0.00  0.00    -0.018 A 
ATOM     13  C   UNL     1      -2.574 -12.008  -4.510  0.00  0.00    +0.010 A 
ATOM     14  C   UNL     1      -3.614 -12.918  -4.528  0.00  0.00    +0.050 A 
ATOM     15  C   UNL     1      -4.795 -12.608  -5.183  0.00  0.00    +0.166 A 
ATOM     16  C   UNL     1      -4.931 -11.378  -5.821  0.00  0.00    +0.167 A 
ATOM     17  C   UNL     1      -3.887 -10.468  -5.794  0.00  0.00    +0.055 A 
ATOM     18  O   UNL     1      -6.173 -11.314  -6.385  0.00  0.00    -0.453 OA
ATOM     19  C   UNL     1      -6.642 -12.675  -6.435  0.00  0.00    +0.466 C 
ATOM     20  O   UNL     1      -5.951 -13.316  -5.347  0.00  0.00    -0.453 OA
ENDBRANCH  11  12
ENDBRANCH  10  11
ENDBRANCH   9  10
ENDBRANCH   6   9
ENDBRANCH   5   6
ENDBRANCH   2   5
ENDBRANCH   1   2
BRANCH   1  21
ATOM     21  C   UNL     1       0.666  -3.275  -0.021  0.00  0.00    +0.035 C 
BRANCH  21  28
ATOM     22  C   UNL     1      -0.017   1.362   0.009  0.00  0.00    +0.001 A 
ATOM     23  C   UNL     1       1.170   2.083   0.002  0.00  0.00    +0.002 A 
ATOM     24  C   UNL     1       2.386   1.436  -0.013  0.00  0.00    +0.026 A 
ATOM     25  C   UNL     1       2.428   0.046  -0.021  0.00  0.00    +0.047 A 
ATOM     26  C   UNL     1       1.223  -0.681  -0.013  0.00  0.00    +0.003 A 
ATOM     27  C   UNL     1       0.002  -0.004   0.002  0.00  0.00    +0.010 A 
ATOM     28  C   UNL     1       1.604  -2.095  -0.025  0.00  0.00    -0.017 A 
ATOM     29  C   UNL     1       2.945  -2.141  -0.038  0.00  0.00    +0.087 A 
ATOM     30  N   UNL     1       3.455  -0.871  -0.036  0.00  0.00    -0.360 N 
ATOM     31  H   UNL     1       4.399  -0.650  -0.044  0.00  0.00    +0.165 HD
ENDBRANCH  21  28
BRANCH  21  32
ATOM     32  C   UNL     1       0.923  -4.117   1.202  0.00  0.00    -0.023 A 
ATOM     33  C   UNL     1       2.171  -4.675   1.409  0.00  0.00    +0.005 A 
ATOM     34  C   UNL     1       2.406  -5.447   2.531  0.00  0.00    +0.000 A 
ATOM     35  C   UNL     1       1.394  -5.662   3.448  0.00  0.00    +0.001 A 
ATOM     36  C   UNL     1       0.146  -5.104   3.243  0.00  0.00    +0.020 A 
ATOM     37  C   UNL     1      -0.089  -4.327   2.123  0.00  0.00    +0.045 A 
ATOM     38 CL   UNL     1      -1.654  -3.621   1.868  0.00  0.00    -0.083 Cl
ENDBRANCH  21  32
ENDBRANCH   1  21
TORSDOF 11
