REMARK  Name = ZINC03999473
REMARK  5 active torsions:
REMARK  status: ('A' for Active; 'I' for Inactive)
REMARK    1  A    between atoms: C_1  and  C_2
REMARK    2  A    between atoms: C_19  and  C_21
REMARK    3  A    between atoms: C_21  and  N_52
REMARK    4  A    between atoms: C_22  and  C_23
REMARK    5  A    between atoms: C_22  and  N_52
REMARK                            x       y       z     vdW  Elec       q    Type
REMARK                         _______ _______ _______ _____ _____    ______ ____
ROOT
ATOM      1  C   UNL     1       0.771   3.590   1.266  0.00  0.00    +0.012 C 
ATOM      2  C   UNL     1      -0.679   3.105   1.323  0.00  0.00    -0.022 C 
ATOM      3  C   UNL     1      -0.728   1.579   1.268  0.00  0.00    +0.007 C 
ATOM      4  C   UNL     1      -0.013   1.086   0.008  0.00  0.00    +0.005 C 
ATOM      5  C   UNL     1      -0.752   1.593  -1.234  0.00  0.00    +0.030 C 
ATOM      6  C   UNL     1      -0.889   3.097  -1.137  0.00  0.00    -0.073 C 
ATOM      7  C   UNL     1      -0.521   3.872  -2.127  0.00  0.00    +0.008 C 
ATOM      8  C   UNL     1      -1.463   3.678   0.134  0.00  0.00    +0.021 C 
ATOM      9  C   UNL     1      -1.305   5.196   0.134  0.00  0.00    +0.016 C 
ATOM     10  C   UNL     1      -1.908   5.799   1.405  0.00  0.00    +0.042 C 
ATOM     11  C   UNL     1      -1.344   5.114   2.665  0.00  0.00    +0.181 C 
ATOM     12  C   UNL     1      -1.342   3.606   2.587  0.00  0.00    +0.052 C 
ATOM     13  O   UNL     1      -0.002   5.668   2.782  0.00  0.00    -0.461 OA
ATOM     14  C   UNL     1      -0.087   6.984   2.486  0.00  0.00    +0.309 C 
ATOM     15  O   UNL     1       0.662   7.842   2.890  0.00  0.00    -0.251 OA
ATOM     16  C   UNL     1      -1.288   7.221   1.555  0.00  0.00    +0.087 C 
ENDROOT
BRANCH  16  17
ATOM     17  C   UNL     1      -2.294   8.178   2.197  0.00  0.00    -0.067 C 
BRANCH  17  18
ATOM     18  N   UNL     1      -1.723   9.538   2.215  0.00  0.00    +0.383 N 
ATOM     19  H   UNL     1      -1.525   9.835   1.252  0.00  0.00    -0.085 HD
ATOM     20  H   UNL     1      -0.852   9.533   2.757  0.00  0.00    -0.085 HD
BRANCH  18  21
ATOM     21  C   UNL     1      -2.673  10.485   2.829  0.00  0.00    -0.026 C 
BRANCH  21  22
ATOM     22  C   UNL     1      -2.064  11.863   2.834  0.00  0.00    +0.024 A 
ATOM     23  C   UNL     1      -2.355  12.742   1.807  0.00  0.00    +0.021 A 
ATOM     24  C   UNL     1      -1.790  14.008   1.821  0.00  0.00    +0.003 A 
ATOM     25  C   UNL     1      -0.950  14.344   2.872  0.00  0.00    +0.020 A 
ATOM     26  C   UNL     1      -0.705  13.413   3.863  0.00  0.00    +0.111 A 
ATOM     27  N   UNL     1      -1.264  12.219   3.820  0.00  0.00    -0.262 NA
ENDBRANCH  21  22
ENDBRANCH  18  21
ENDBRANCH  17  18
ENDBRANCH  16  17
TORSDOF 4
