REMARK  Name = ZINC13249631
REMARK  6 active torsions:
REMARK  status: ('A' for Active; 'I' for Inactive)
REMARK    1  A    between atoms: C_1  and  C_2
REMARK    2  A    between atoms: N_7  and  C_9
REMARK    3  A    between atoms: C_9  and  C_10
REMARK    4  A    between atoms: N_15  and  S_16
REMARK    5  A    between atoms: S_16  and  C_19
REMARK    6  A    between atoms: C_22  and  C_25
REMARK                            x       y       z     vdW  Elec       q    Type
REMARK                         _______ _______ _______ _____ _____    ______ ____
ROOT
ATOM      1  C   UNL     1       1.562  -3.968   2.382  0.00  0.00    +0.008 A 
ATOM      2  C   UNL     1       2.728  -4.610   2.312  0.00  0.00    +0.068 A 
ATOM      3  S   UNL     1       2.216  -6.321   2.334  0.00  0.00    -0.057 S 
ATOM      4  C   UNL     1       0.454  -6.047   2.438  0.00  0.00    +0.191 A 
ATOM      5  N   UNL     1       0.395  -4.670   2.452  0.00  0.00    -0.338 N 
ATOM      6  N   UNL     1      -0.521  -6.921   2.490  0.00  0.00    -0.103 NA
ATOM      7  H   UNL     1      -0.458  -4.211   2.507  0.00  0.00    +0.167 HD
ENDROOT
BRANCH   6   8
ATOM      8  S   UNL     1      -0.181  -8.542   2.465  0.00  0.00    +0.101 S 
ATOM      9  O   UNL     1       0.368  -8.822   1.185  0.00  0.00    -0.146 OA
ATOM     10  O   UNL     1       0.511  -8.831   3.671  0.00  0.00    -0.146 OA
BRANCH   8  11
ATOM     11  C   UNL     1      -1.720  -9.397   2.550  0.00  0.00    +0.113 A 
ATOM     12  C   UNL     1      -2.254  -9.731   3.782  0.00  0.00    +0.030 A 
ATOM     13  C   UNL     1      -3.458 -10.401   3.857  0.00  0.00    +0.017 A 
ATOM     14  C   UNL     1      -4.137 -10.742   2.684  0.00  0.00    +0.063 A 
ATOM     15  C   UNL     1      -3.591 -10.402   1.444  0.00  0.00    +0.017 A 
ATOM     16  C   UNL     1      -2.390  -9.727   1.385  0.00  0.00    +0.030 A 
BRANCH  14  17
ATOM     17  C   UNL     1      -5.424 -11.459   2.756  0.00  0.00    +0.387 C 
ATOM     18  O   UNL     1      -5.899 -11.757   3.843  0.00  0.00    -0.241 OA
ATOM     19  O   UNL     1      -6.017 -11.757   1.728  0.00  0.00    -0.241 OA
ENDBRANCH  14  17
ENDBRANCH   8  11
ENDBRANCH   6   8
BRANCH   1  20
ATOM     20  C   UNL     1       1.534  -2.461   2.390  0.00  0.00    -0.024 C 
BRANCH  20  26
ATOM     21  C   UNL     1       1.826  -2.276  -2.493  0.00  0.00    +0.005 C 
ATOM     22  C   UNL     1       0.973  -1.905  -1.279  0.00  0.00    -0.031 C 
ATOM     23  C   UNL     1       0.756  -0.389  -1.251  0.00  0.00    -0.001 C 
ATOM     24  C   UNL     1      -0.032  -0.019   0.009  0.00  0.00    -0.018 C 
ATOM     25  C   UNL     1       0.724  -0.519   1.242  0.00  0.00    -0.078 C 
ATOM     26  N   UNL     1       0.876  -1.977   1.169  0.00  0.00    +0.384 N 
ATOM     27  C   UNL     1       1.691  -2.336   0.002  0.00  0.00    -0.075 C 
ATOM     28  H   UNL     1      -0.033  -2.405   1.086  0.00  0.00    -0.081 HD
ENDBRANCH  20  26
ENDBRANCH   1  20
TORSDOF 5
