REMARK  Name = ZINC38604660
REMARK  8 active torsions:
REMARK  status: ('A' for Active; 'I' for Inactive)
REMARK    1  A    between atoms: C_1  and  C_2
REMARK    2  A    between atoms: C_2  and  O_3
REMARK    3  A    between atoms: O_3  and  C_4
REMARK    4  A    between atoms: C_4  and  C_6
REMARK    5  A    between atoms: C_8  and  N_17
REMARK    6  A    between atoms: C_18  and  C_20
REMARK    7  A    between atoms: C_20  and  N_21
REMARK    8  A    between atoms: N_24  and  C_27
REMARK                            x       y       z     vdW  Elec       q    Type
REMARK                         _______ _______ _______ _____ _____    ______ ____
ROOT
ATOM      1  N   UNL     1       3.914  -1.279  -2.003  0.00  0.00    -0.288 N 
ATOM      2  C   UNL     1       5.242  -1.502  -1.941  0.00  0.00    +0.200 C 
ATOM      3  O   UNL     1       5.687  -2.596  -2.217  0.00  0.00    -0.278 OA
ATOM      4  H   UNL     1       3.566  -0.385  -1.864  0.00  0.00    +0.155 HD
ENDROOT
BRANCH   1   6
ATOM      5  C   UNL     1       3.431  -3.727  -2.640  0.00  0.00    +0.234 C 
ATOM      6  C   UNL     1       3.061  -2.310  -2.261  0.00  0.00    +0.053 C 
ATOM      7  C   UNL     1       1.678  -2.278  -2.230  0.00  0.00    +0.020 A 
ATOM      8  C   UNL     1       0.753  -1.245  -1.942  0.00  0.00    +0.050 A 
ATOM      9  C   UNL     1      -0.578  -1.503  -1.988  0.00  0.00    +0.124 A 
ATOM     10  C   UNL     1      -1.068  -2.773  -2.313  0.00  0.00    +0.040 A 
ATOM     11  C   UNL     1      -0.241  -3.807  -2.599  0.00  0.00    +0.029 A 
ATOM     12  C   UNL     1       1.165  -3.615  -2.573  0.00  0.00    +0.045 A 
ATOM     13  N   UNL     1       2.163  -4.446  -2.807  0.00  0.00    -0.367 N 
ATOM     14  F   UNL     1      -1.452  -0.510  -1.712  0.00  0.00    -0.205 F 
ATOM     15  H   UNL     1       2.074  -5.380  -3.052  0.00  0.00    +0.161 HD
BRANCH   5  16
ATOM     16  C   UNL     1       4.205  -3.734  -3.933  0.00  0.00    +0.336 C 
ATOM     17  O   UNL     1       3.632  -3.557  -4.981  0.00  0.00    -0.248 OA
BRANCH  16  18
ATOM     18  O   UNL     1       5.532  -3.936  -3.919  0.00  0.00    -0.463 OA
BRANCH  18  20
ATOM     19  C   UNL     1       7.698  -4.175  -4.965  0.00  0.00    +0.048 C 
ATOM     20  C   UNL     1       6.203  -3.930  -5.181  0.00  0.00    +0.229 C 
ENDBRANCH  18  20
ENDBRANCH  16  18
ENDBRANCH   5  16
ENDBRANCH   1   6
BRANCH   2  21
ATOM     21  C   UNL     1       6.174  -0.392  -1.528  0.00  0.00    +0.019 C 
BRANCH  21  22
ATOM     22  N   UNL     1       7.558  -0.885  -1.540  0.00  0.00    +0.387 N 
ATOM     23  C   UNL     1       7.711  -1.933  -0.522  0.00  0.00    -0.059 C 
ATOM     24  C   UNL     1       9.120  -2.527  -0.610  0.00  0.00    +0.086 C 
ATOM     25  N   UNL     1      10.096  -1.431  -0.505  0.00  0.00    -0.331 N 
ATOM     26  C   UNL     1       9.921  -0.261  -1.379  0.00  0.00    +0.086 C 
ATOM     27  C   UNL     1       8.474   0.227  -1.254  0.00  0.00    -0.059 C 
ATOM     28  H   UNL     1       7.769  -1.269  -2.449  0.00  0.00    -0.081 HD
BRANCH  25  29
ATOM     29  C   UNL     1      11.159  -1.500   0.401  0.00  0.00    +0.065 A 
ATOM     30  C   UNL     1      12.371  -2.054   0.012  0.00  0.00    +0.026 A 
ATOM     31  C   UNL     1      13.419  -2.120   0.909  0.00  0.00    +0.002 A 
ATOM     32  C   UNL     1      13.264  -1.635   2.194  0.00  0.00    +0.003 A 
ATOM     33  C   UNL     1      12.059  -1.082   2.588  0.00  0.00    +0.040 A 
ATOM     34  C   UNL     1      11.007  -1.007   1.693  0.00  0.00    +0.144 A 
ATOM     35  F   UNL     1       9.831  -0.462   2.075  0.00  0.00    -0.204 F 
ENDBRANCH  25  29
ENDBRANCH  21  22
ENDBRANCH   2  21
TORSDOF 7
