REMARK  Name = ZINC40002621
REMARK  9 active torsions:
REMARK  status: ('A' for Active; 'I' for Inactive)
REMARK    1  A    between atoms: C_1  and  C_2
REMARK    2  A    between atoms: C_2  and  C_4
REMARK    3  A    between atoms: C_2  and  N_15
REMARK    4  A    between atoms: N_6  and  C_7
REMARK    5  A    between atoms: N_15  and  C_16
REMARK    6  A    between atoms: C_16  and  C_18
REMARK    7  A    between atoms: C_16  and  C_28
REMARK    8  A    between atoms: C_28  and  C_29
REMARK    9  A    between atoms: C_28  and  C_30
REMARK                            x       y       z     vdW  Elec       q    Type
REMARK                         _______ _______ _______ _____ _____    ______ ____
ROOT
ATOM      1  N   UNL     1       0.572   0.604  -0.659  0.00  0.00    +0.391 N 
ATOM      2  H   UNL     1      -0.001   0.944   0.099  0.00  0.00    -0.084 HD
ATOM      3  H   UNL     1       0.591  -0.404  -0.641  0.00  0.00    -0.084 HD
ENDROOT
BRANCH   1   5
ATOM      4  C   UNL     1       0.760   0.388  -3.091  0.00  0.00    -0.004 C 
ATOM      5  C   UNL     1       0.012   1.060  -1.938  0.00  0.00    +0.014 C 
BRANCH   5   6
ATOM      6  C   UNL     1      -1.449   0.694  -2.006  0.00  0.00    +0.203 C 
ATOM      7  O   UNL     1      -1.971   0.111  -1.080  0.00  0.00    -0.277 OA
ATOM      8  N   UNL     1      -2.174   1.015  -3.096  0.00  0.00    -0.282 N 
ATOM      9  H   UNL     1      -1.738   1.402  -3.872  0.00  0.00    +0.155 HD
BRANCH   8  10
ATOM     10  C   UNL     1      -3.557   0.788  -3.109  0.00  0.00    +0.105 A 
ATOM     11  C   UNL     1      -4.424   1.794  -3.520  0.00  0.00    +0.147 A 
ATOM     12  C   UNL     1      -5.788   1.567  -3.531  0.00  0.00    +0.040 A 
ATOM     13  C   UNL     1      -6.290   0.341  -3.135  0.00  0.00    +0.006 A 
ATOM     14  C   UNL     1      -5.431  -0.662  -2.725  0.00  0.00    +0.040 A 
ATOM     15  C   UNL     1      -4.065  -0.444  -2.717  0.00  0.00    +0.147 A 
ATOM     16  F   UNL     1      -3.226  -1.427  -2.322  0.00  0.00    -0.203 F 
ATOM     17  F   UNL     1      -3.934   2.992  -3.907  0.00  0.00    -0.203 F 
ENDBRANCH   8  10
ENDBRANCH   5   6
ENDBRANCH   1   5
BRANCH   1  18
ATOM     18  C   UNL     1       1.938   1.123  -0.510  0.00  0.00    -0.037 C 
BRANCH  18  19
ATOM     19  C   UNL     1       2.847   0.433  -1.494  0.00  0.00    -0.057 A 
ATOM     20  C   UNL     1       2.701  -0.920  -1.738  0.00  0.00    +0.006 A 
ATOM     21  C   UNL     1       3.534  -1.556  -2.638  0.00  0.00    +0.049 A 
ATOM     22  C   UNL     1       4.519  -0.838  -3.300  0.00  0.00    +0.162 A 
ATOM     23  C   UNL     1       4.665   0.522  -3.058  0.00  0.00    +0.162 A 
ATOM     24  C   UNL     1       3.822   1.155  -2.155  0.00  0.00    +0.051 A 
ATOM     25  O   UNL     1       5.619   1.247  -3.702  0.00  0.00    -0.485 OA
ATOM     26  C   UNL     1       6.679   0.509  -4.321  0.00  0.00    +0.270 C 
ATOM     27  C   UNL     1       6.059  -0.658  -5.103  0.00  0.00    +0.270 C 
ATOM     28  O   UNL     1       5.334  -1.480  -4.182  0.00  0.00    -0.485 OA
ENDBRANCH  18  19
BRANCH  18  29
ATOM     29  C   UNL     1       2.432   0.858   0.914  0.00  0.00    -0.027 C 
ATOM     30  C   UNL     1       3.816   1.483   1.098  0.00  0.00    +0.006 C 
ATOM     31  C   UNL     1       1.455   1.476   1.916  0.00  0.00    +0.006 C 
ENDBRANCH  18  29
ENDBRANCH   1  18
TORSDOF 6
