REMARK  Name = ZINC15015379
REMARK  3 active torsions:
REMARK  status: ('A' for Active; 'I' for Inactive)
REMARK    1  A    between atoms: C_1  and  C_2
REMARK    2  A    between atoms: N_16  and  N_17
REMARK    3  A    between atoms: C_18  and  C_19
REMARK                            x       y       z     vdW  Elec       q    Type
REMARK                         _______ _______ _______ _____ _____    ______ ____
ROOT
ATOM      1  C   UNL     1       3.588  11.045   1.191  0.00  0.00    +0.046 C 
ATOM      2  C   UNL     1       2.088  10.908   1.177  0.00  0.00    -0.026 A 
ATOM      3  C   UNL     1       1.293  12.020   1.357  0.00  0.00    +0.005 A 
ATOM      4  C   UNL     1      -0.089  11.908   1.347  0.00  0.00    +0.001 A 
ATOM      5  C   UNL     1      -0.684  10.679   1.156  0.00  0.00    +0.012 A 
ATOM      6  C   UNL     1       0.107   9.548   0.974  0.00  0.00    +0.029 A 
ATOM      7  C   UNL     1       1.506   9.660   0.983  0.00  0.00    +0.053 A 
ATOM      8  N   UNL     1       2.047   8.400   0.782  0.00  0.00    -0.337 N 
ATOM      9  H   UNL     1       2.997   8.205   0.747  0.00  0.00    +0.167 HD
ATOM     10  C   UNL     1       1.050   7.468   0.641  0.00  0.00    +0.163 A 
ATOM     11  C   UNL     1      -0.194   8.123   0.751  0.00  0.00    +0.138 A 
ATOM     12  N   UNL     1      -1.312   7.420   0.646  0.00  0.00    -0.142 NA
ATOM     13  N   UNL     1      -1.259   6.149   0.441  0.00  0.00    -0.111 NA
ATOM     14  C   UNL     1      -0.099   5.508   0.339  0.00  0.00    +0.256 A 
ATOM     15  N   UNL     1       1.055   6.155   0.434  0.00  0.00    -0.192 NA
ATOM     16  N   UNL     1      -0.095   4.141   0.123  0.00  0.00    -0.204 N 
ATOM     17  H   UNL     1       0.742   3.676  -0.029  0.00  0.00    +0.177 HD
ENDROOT
BRANCH  16  18
ATOM     18  N   UNL     1      -1.302   3.428   0.125  0.00  0.00    -0.187 NA
ATOM     19  C   UNL     1      -1.291   2.129   0.028  0.00  0.00    +0.139 C 
BRANCH  19  20
ATOM     20  C   UNL     1      -0.020   1.401   0.081  0.00  0.00    +0.010 A 
ATOM     21  C   UNL     1       0.846   1.556   1.183  0.00  0.00    -0.009 A 
ATOM     22  C   UNL     1       0.511   2.404   2.254  0.00  0.00    +0.009 A 
ATOM     23  C   UNL     1       1.369   2.532   3.302  0.00  0.00    +0.001 A 
ATOM     24  C   UNL     1       2.579   1.841   3.346  0.00  0.00    +0.001 A 
ATOM     25  C   UNL     1       2.960   1.007   2.344  0.00  0.00    +0.008 A 
ATOM     26  C   UNL     1       2.116   0.830   1.226  0.00  0.00    -0.017 A 
ATOM     27  C   UNL     1       2.479  -0.019   0.180  0.00  0.00    +0.017 A 
ATOM     28  C   UNL     1       1.628  -0.178  -0.915  0.00  0.00    -0.017 A 
ATOM     29  C   UNL     1       0.354   0.541  -0.973  0.00  0.00    -0.009 A 
ATOM     30  C   UNL     1      -0.479   0.358  -2.090  0.00  0.00    +0.009 A 
ATOM     31  C   UNL     1      -0.089  -0.478  -3.089  0.00  0.00    +0.001 A 
ATOM     32  C   UNL     1       1.123  -1.164  -3.037  0.00  0.00    +0.001 A 
ATOM     33  C   UNL     1       1.973  -1.031  -1.986  0.00  0.00    +0.008 A 
ENDBRANCH  19  20
ENDBRANCH  16  18
TORSDOF 2
