REMARK  Name = ZINC55911850
REMARK  10 active torsions:
REMARK  status: ('A' for Active; 'I' for Inactive)
REMARK    1  A    between atoms: C_1  and  C_2
REMARK    2  A    between atoms: C_2  and  C_3
REMARK    3  A    between atoms: C_2  and  C_4
REMARK    4  A    between atoms: C_2  and  C_5
REMARK    5  A    between atoms: C_5  and  C_7
REMARK    6  A    between atoms: C_5  and  N_12
REMARK    7  A    between atoms: C_13  and  C_15
REMARK    8  A    between atoms: C_15  and  N_16
REMARK    9  A    between atoms: C_19  and  C_22
REMARK   10  A    between atoms: N_24  and  C_25
REMARK                            x       y       z     vdW  Elec       q    Type
REMARK                         _______ _______ _______ _____ _____    ______ ____
ROOT
ATOM      1  C   UNL     1      -1.771  -0.201  -4.150  0.00  0.00    +0.019 C 
ENDROOT
BRANCH   1   2
ATOM      2  N   UNL     1      -2.870  -1.121  -4.474  0.00  0.00    +0.385 N 
ATOM      3  C   UNL     1      -3.857  -1.104  -3.388  0.00  0.00    -0.077 C 
ATOM      4  C   UNL     1      -4.963  -2.120  -3.683  0.00  0.00    -0.006 C 
ATOM      5  C   UNL     1      -5.647  -1.753  -5.003  0.00  0.00    +0.071 C 
ATOM      6  C   UNL     1      -4.595  -1.701  -6.115  0.00  0.00    -0.006 C 
ATOM      7  C   UNL     1      -3.503  -0.701  -5.730  0.00  0.00    -0.077 C 
ATOM      8  H   UNL     1      -2.505  -2.056  -4.580  0.00  0.00    -0.081 HD
BRANCH   5   9
ATOM      9  C   UNL     1      -6.685  -2.793  -5.339  0.00  0.00    +0.216 C 
ATOM     10  O   UNL     1      -6.861  -3.736  -4.597  0.00  0.00    -0.276 OA
ATOM     11  N   UNL     1      -7.417  -2.675  -6.465  0.00  0.00    -0.312 N 
ATOM     12  H   UNL     1      -7.276  -1.921  -7.058  0.00  0.00    +0.149 HD
BRANCH  11  13
ATOM     13  C   UNL     1      -8.425  -3.686  -6.791  0.00  0.00    +0.073 C 
ATOM     14  C   UNL     1      -8.494  -4.174  -8.240  0.00  0.00    +0.024 C 
ATOM     15  C   UNL     1      -9.589  -3.260  -7.688  0.00  0.00    +0.024 C 
ENDBRANCH  11  13
ENDBRANCH   5   9
ENDBRANCH   1   2
BRANCH   1  17
ATOM     16  N   UNL     1       0.010  -0.012  -2.444  0.00  0.00    -0.309 N 
ATOM     17  C   UNL     1      -1.042  -0.701  -2.929  0.00  0.00    +0.197 C 
ATOM     18  O   UNL     1      -1.403  -1.722  -2.383  0.00  0.00    -0.278 OA
ATOM     19  H   UNL     1       0.298   0.805  -2.880  0.00  0.00    +0.149 HD
BRANCH  16  20
ATOM     20  C   UNL     1       0.718  -0.497  -1.257  0.00  0.00    +0.115 C 
BRANCH  20  21
ATOM     21  C   UNL     1       2.132   0.024  -1.268  0.00  0.00    +0.010 A 
ATOM     22  C   UNL     1       3.279  -0.612  -0.927  0.00  0.00    +0.013 A 
ATOM     23  C   UNL     1       4.477   0.071  -1.016  0.00  0.00    +0.008 A 
ATOM     24  C   UNL     1       4.469   1.358  -1.442  0.00  0.00    +0.045 A 
ATOM     25  S   UNL     1       2.731   1.638  -1.739  0.00  0.00    -0.100 S 
ENDBRANCH  20  21
BRANCH  20  27
ATOM     26  C   UNL     1      -0.019   1.526   0.010  0.00  0.00    +0.013 C 
ATOM     27  C   UNL     1       0.002  -0.004   0.002  0.00  0.00    -0.015 C 
ATOM     28  C   UNL     1       0.742  -0.511   1.242  0.00  0.00    +0.013 C 
ATOM     29  C   UNL     1      -1.433  -0.534   0.013  0.00  0.00    +0.013 C 
ENDBRANCH  20  27
ENDBRANCH  16  20
ENDBRANCH   1  17
TORSDOF 7
