REMARK  Name = ZINC49541479
REMARK  9 active torsions:
REMARK  status: ('A' for Active; 'I' for Inactive)
REMARK    1  A    between atoms: C_1  and  C_2
REMARK    2  A    between atoms: C_2  and  C_3
REMARK    3  A    between atoms: C_3  and  C_4
REMARK    4  A    between atoms: C_4  and  C_6
REMARK    5  A    between atoms: C_4  and  N_11
REMARK    6  A    between atoms: N_11  and  S_12
REMARK    7  A    between atoms: S_12  and  C_15
REMARK    8  A    between atoms: C_18  and  C_22
REMARK    9  A    between atoms: C_20  and  N_21
REMARK                            x       y       z     vdW  Elec       q    Type
REMARK                         _______ _______ _______ _____ _____    ______ ____
ROOT
ATOM      1  S   UNL     1      -1.573  -2.978  -0.024  0.00  0.00    +0.061 S 
ATOM      2  O   UNL     1      -2.887  -3.426   0.277  0.00  0.00    -0.153 OA
ATOM      3  O   UNL     1      -1.318  -1.929  -0.948  0.00  0.00    -0.153 OA
ENDROOT
BRANCH   1   4
ATOM      4  C   UNL     1      -0.681  -4.384  -0.600  0.00  0.00    +0.126 A 
ATOM      5  C   UNL     1       0.051  -4.308  -1.769  0.00  0.00    +0.030 A 
ATOM      6  C   UNL     1       0.750  -5.411  -2.222  0.00  0.00    +0.005 A 
ATOM      7  C   UNL     1       0.721  -6.594  -1.506  0.00  0.00    -0.049 A 
ATOM      8  C   UNL     1      -0.008  -6.677  -0.336  0.00  0.00    +0.028 A 
ATOM      9  C   UNL     1      -0.708  -5.569   0.124  0.00  0.00    +0.051 A 
ATOM     10  C   UNL     1       1.485  -7.794  -2.004  0.00  0.00    +0.044 C 
BRANCH   9  11
ATOM     11  N   UNL     1      -1.442  -5.648   1.310  0.00  0.00    -0.356 N 
ATOM     12  H   UNL     1      -1.979  -4.894   1.599  0.00  0.00    +0.142 HD
ATOM     13  H   UNL     1      -1.415  -6.458   1.844  0.00  0.00    +0.142 HD
ENDBRANCH   9  11
ENDBRANCH   1   4
BRANCH   1  14
ATOM     14  N   UNL     1      -0.888  -2.519   1.413  0.00  0.00    -0.182 NA
ATOM     15  H   UNL     1      -1.406  -2.564   2.232  0.00  0.00    +0.149 HD
BRANCH  14  16
ATOM     16  C   UNL     1       0.497  -2.046   1.446  0.00  0.00    +0.113 C 
BRANCH  16  17
ATOM     17  C   UNL     1       1.309  -2.932   2.356  0.00  0.00    +0.008 A 
ATOM     18  C   UNL     1       2.576  -3.386   2.196  0.00  0.00    +0.013 A 
ATOM     19  C   UNL     1       3.125  -4.197   3.172  0.00  0.00    +0.008 A 
ATOM     20  C   UNL     1       2.381  -4.513   4.259  0.00  0.00    +0.045 A 
ATOM     21  S   UNL     1       0.854  -3.649   3.926  0.00  0.00    -0.100 S 
ENDBRANCH  16  17
BRANCH  16  22
ATOM     22  C   UNL     1       0.533  -0.609   1.970  0.00  0.00    +0.025 C 
BRANCH  22  24
ATOM     23  C   UNL     1      -0.139   1.751   1.499  0.00  0.00    +0.004 C 
ATOM     24  C   UNL     1      -0.173   0.314   0.974  0.00  0.00    -0.001 C 
ENDBRANCH  22  24
ENDBRANCH  16  22
ENDBRANCH  14  16
ENDBRANCH   1  14
TORSDOF 7
