REMARK  Name = ZINC06134796
REMARK  12 active torsions:
REMARK  status: ('A' for Active; 'I' for Inactive)
REMARK    1  A    between atoms: C_1  and  C_2
REMARK    2  A    between atoms: C_2  and  C_3
REMARK    3  A    between atoms: C_2  and  C_4
REMARK    4  A    between atoms: C_4  and  O_5
REMARK    5  A    between atoms: O_5  and  C_6
REMARK    6  A    between atoms: N_8  and  C_9
REMARK    7  A    between atoms: C_9  and  C_11
REMARK    8  A    between atoms: C_9  and  C_22
REMARK    9  A    between atoms: C_11  and  C_12
REMARK   10  A    between atoms: N_24  and  N_25
REMARK   11  A    between atoms: C_26  and  C_27
REMARK   12  A    between atoms: C_36  and  O_37
REMARK                            x       y       z     vdW  Elec       q    Type
REMARK                         _______ _______ _______ _____ _____    ______ ____
ROOT
ATOM      1  C   UNL     1      -3.960  -4.608  -0.243  0.00  0.00    +0.168 C 
ENDROOT
BRANCH   1   4
ATOM      2  C   UNL     1      -2.608  -2.584  -0.120  0.00  0.00    +0.401 C 
ATOM      3  O   UNL     1      -3.634  -1.940  -0.022  0.00  0.00    -0.226 OA
ATOM      4  N   UNL     1      -2.663  -3.926  -0.235  0.00  0.00    -0.269 N 
ATOM      5  H   UNL     1      -1.844  -4.440  -0.313  0.00  0.00    +0.153 HD
BRANCH   2   6
ATOM      6  O   UNL     1      -1.417  -1.957  -0.112  0.00  0.00    -0.450 OA
BRANCH   6   7
ATOM      7  C   UNL     1      -1.433  -0.534   0.013  0.00  0.00    +0.236 C 
BRANCH   7   9
ATOM      8  C   UNL     1      -0.019   1.526   0.010  0.00  0.00    +0.010 C 
ATOM      9  C   UNL     1       0.002  -0.004   0.002  0.00  0.00    +0.021 C 
ATOM     10  C   UNL     1       0.742  -0.511   1.242  0.00  0.00    +0.010 C 
ENDBRANCH   7   9
ENDBRANCH   6   7
ENDBRANCH   2   6
ENDBRANCH   1   4
BRANCH   1  11
ATOM     11  C   UNL     1      -3.783  -6.028   0.229  0.00  0.00    +0.253 C 
ATOM     12  O   UNL     1      -2.682  -6.431   0.541  0.00  0.00    -0.272 OA
ATOM     13  N   UNL     1      -4.848  -6.850   0.304  0.00  0.00    -0.205 N 
ATOM     14  H   UNL     1      -5.729  -6.528   0.054  0.00  0.00    +0.177 HD
BRANCH  13  15
ATOM     15  N   UNL     1      -4.684  -8.171   0.743  0.00  0.00    -0.188 NA
ATOM     16  C   UNL     1      -5.711  -8.964   0.815  0.00  0.00    +0.142 C 
BRANCH  16  17
ATOM     17  C   UNL     1      -5.539 -10.349   1.275  0.00  0.00    +0.044 A 
ATOM     18  C   UNL     1      -6.682 -11.257   1.357  0.00  0.00    -0.006 A 
ATOM     19  C   UNL     1      -7.971 -10.841   1.002  0.00  0.00    +0.009 A 
ATOM     20  C   UNL     1      -9.011 -11.719   1.092  0.00  0.00    +0.001 A 
ATOM     21  C   UNL     1      -8.808 -13.024   1.533  0.00  0.00    +0.001 A 
ATOM     22  C   UNL     1      -7.567 -13.461   1.886  0.00  0.00    +0.008 A 
ATOM     23  C   UNL     1      -6.472 -12.583   1.805  0.00  0.00    -0.017 A 
ATOM     24  C   UNL     1      -5.177 -12.999   2.160  0.00  0.00    +0.012 A 
ATOM     25  C   UNL     1      -4.125 -12.142   2.077  0.00  0.00    +0.046 A 
ATOM     26  C   UNL     1      -4.280 -10.828   1.638  0.00  0.00    +0.126 A 
BRANCH  26  27
ATOM     27  O   UNL     1      -3.200 -10.008   1.566  0.00  0.00    -0.506 OA
ATOM     28  H   UNL     1      -3.029  -9.512   2.378  0.00  0.00    +0.292 HD
ENDBRANCH  26  27
ENDBRANCH  16  17
ENDBRANCH  13  15
ENDBRANCH   1  11
BRANCH   1  29
ATOM     29  C   UNL     1      -4.527  -4.609  -1.664  0.00  0.00    +0.069 C 
BRANCH  29  30
ATOM     30  C   UNL     1      -4.818  -3.193  -2.090  0.00  0.00    -0.020 A 
ATOM     31  C   UNL     1      -5.997  -2.558  -1.997  0.00  0.00    +0.087 A 
ATOM     32  N   UNL     1      -5.881  -1.284  -2.483  0.00  0.00    -0.360 N 
ATOM     33  H   UNL     1      -6.599  -0.634  -2.520  0.00  0.00    +0.165 HD
ATOM     34  C   UNL     1      -4.591  -1.063  -2.912  0.00  0.00    +0.047 A 
ATOM     35  C   UNL     1      -3.867  -2.247  -2.679  0.00  0.00    +0.003 A 
ATOM     36  C   UNL     1      -2.514  -2.314  -3.014  0.00  0.00    +0.010 A 
ATOM     37  C   UNL     1      -1.897  -1.226  -3.565  0.00  0.00    +0.001 A 
ATOM     38  C   UNL     1      -2.606  -0.054  -3.793  0.00  0.00    +0.002 A 
ATOM     39  C   UNL     1      -3.945   0.030  -3.478  0.00  0.00    +0.026 A 
ENDBRANCH  29  30
ENDBRANCH   1  29
TORSDOF 10
