REMARK  Name = ZINC21507612
REMARK  4 active torsions:
REMARK  status: ('A' for Active; 'I' for Inactive)
REMARK    1  A    between atoms: C_1  and  C_2
REMARK    2  A    between atoms: C_5  and  N_9
REMARK    3  A    between atoms: N_9  and  S_10
REMARK    4  A    between atoms: S_10  and  N_13
REMARK                            x       y       z     vdW  Elec       q    Type
REMARK                         _______ _______ _______ _____ _____    ______ ____
ROOT
ATOM      1  N   UNL     1      -1.848  -1.925  -1.323  0.00  0.00    -0.205 N 
ATOM      2  H   UNL     1      -1.390  -2.124  -2.303  0.00  0.00    +0.175 HD
ENDROOT
BRANCH   1   7
ATOM      3  C   UNL     1       0.631  -3.837   3.407  0.00  0.00    +0.044 C 
ATOM      4  C   UNL     1      -0.027  -3.329   2.150  0.00  0.00    -0.049 A 
ATOM      5  C   UNL     1      -1.407  -3.295   2.059  0.00  0.00    +0.005 A 
ATOM      6  C   UNL     1      -2.014  -2.831   0.909  0.00  0.00    +0.026 A 
ATOM      7  C   UNL     1      -1.237  -2.396  -0.158  0.00  0.00    +0.063 A 
ATOM      8  C   UNL     1       0.149  -2.436  -0.065  0.00  0.00    +0.040 A 
ATOM      9  C   UNL     1       0.750  -2.897   1.091  0.00  0.00    +0.020 A 
ATOM     10 BR   UNL     1       1.212  -1.853  -1.517  0.00  0.00    -0.048 Br
ENDBRANCH   1   7
BRANCH   1  11
ATOM     11  S   UNL     1      -3.262  -1.068  -1.228  0.00  0.00    +0.112 S 
ATOM     12  O   UNL     1      -4.160  -1.851  -0.453  0.00  0.00    -0.138 OA
ATOM     13  O   UNL     1      -3.567  -0.641  -2.548  0.00  0.00    -0.138 OA
BRANCH  11  14
ATOM     14  N   UNL     1      -2.947   0.300  -0.349  0.00  0.00    -0.164 NA
ATOM     15  C   UNL     1      -2.515   1.502  -1.001  0.00  0.00    +0.111 C 
ATOM     16  C   UNL     1      -0.986   1.656  -1.200  0.00  0.00    +0.017 C 
ATOM     17  C   UNL     1      -0.233   1.183   0.068  0.00  0.00    +0.001 C 
ATOM     18  C   UNL     1      -0.968   1.598   1.310  0.00  0.00    +0.001 C 
ATOM     19  C   UNL     1      -1.773   0.374   1.733  0.00  0.00    +0.017 C 
ATOM     20  C   UNL     1      -3.110   0.301   1.144  0.00  0.00    +0.111 C 
ENDBRANCH  11  14
ENDBRANCH   1  11
TORSDOF 3
