REMARK  Name = ZINC12490635
REMARK  6 active torsions:
REMARK  status: ('A' for Active; 'I' for Inactive)
REMARK    1  A    between atoms: C_1  and  C_2
REMARK    2  A    between atoms: C_2  and  C_32
REMARK    3  A    between atoms: N_9  and  C_31
REMARK    4  A    between atoms: N_14  and  C_25
REMARK    5  A    between atoms: P_15  and  N_17
REMARK    6  A    between atoms: N_17  and  C_18
REMARK                            x       y       z     vdW  Elec       q    Type
REMARK                         _______ _______ _______ _____ _____    ______ ____
ROOT
ATOM      1  C   UNL     1      -0.014   4.819  -0.839  0.00  0.00    +0.022 C 
ATOM      2  C   UNL     1       0.844   4.625   0.413  0.00  0.00    +0.031 C 
ATOM      3  C   UNL     1       1.666   5.864   0.687  0.00  0.00    -0.015 A 
ATOM      4  C   UNL     1       1.317   7.168   0.964  0.00  0.00    +0.006 A 
ATOM      5  C   UNL     1       2.301   8.116   1.177  0.00  0.00    +0.000 A 
ATOM      6  C   UNL     1       3.634   7.753   1.110  0.00  0.00    +0.002 A 
ATOM      7  C   UNL     1       3.987   6.449   0.833  0.00  0.00    +0.024 A 
ATOM      8  C   UNL     1       3.001   5.487   0.617  0.00  0.00    +0.038 A 
ATOM      9  N   UNL     1       3.110   4.127   0.331  0.00  0.00    -0.305 N 
ATOM     10  C   UNL     1       1.872   3.537   0.187  0.00  0.00    +0.036 C 
ATOM     11  C   UNL     1       1.625   2.247  -0.092  0.00  0.00    +0.086 C 
ATOM     12  C   UNL     1       2.560   1.111  -0.217  0.00  0.00    +0.147 C 
ATOM     13  N   UNL     1       2.010  -0.008  -0.495  0.00  0.00    -0.180 NA
ATOM     14  N   UNL     1       0.629  -0.136  -0.667  0.00  0.00    -0.153 N 
ATOM     15  P   UNL     1       0.030   1.398  -0.429  0.00  0.00    +0.299 P 
ATOM     16  O   UNL     1      -0.623   1.925  -1.648  0.00  0.00    -0.272 OA
ATOM     17  C   UNL     1       4.383   3.414   0.197  0.00  0.00    +0.135 C 
ATOM     18  C   UNL     1      -0.035   4.290   1.619  0.00  0.00    +0.022 C 
ENDROOT
BRANCH  14  19
ATOM     19  C   UNL     1      -0.088  -1.292  -0.971  0.00  0.00    +0.060 A 
ATOM     20  C   UNL     1      -1.456  -1.221  -1.213  0.00  0.00    +0.025 A 
ATOM     21  C   UNL     1      -2.161  -2.368  -1.520  0.00  0.00    +0.002 A 
ATOM     22  C   UNL     1      -1.511  -3.588  -1.575  0.00  0.00    +0.000 A 
ATOM     23  C   UNL     1      -0.152  -3.663  -1.329  0.00  0.00    +0.002 A 
ATOM     24  C   UNL     1       0.561  -2.520  -1.028  0.00  0.00    +0.025 A 
ENDBRANCH  14  19
BRANCH  15  25
ATOM     25  N   UNL     1      -0.975   1.462   0.866  0.00  0.00    -0.276 N 
ATOM     26  H   UNL     1      -1.874   1.811   0.765  0.00  0.00    +0.155 HD
BRANCH  25  27
ATOM     27  C   UNL     1      -0.535   1.013   2.114  0.00  0.00    +0.034 A 
ATOM     28  C   UNL     1       0.672   0.334   2.224  0.00  0.00    +0.024 A 
ATOM     29  C   UNL     1       1.107  -0.104   3.459  0.00  0.00    +0.017 A 
ATOM     30  C   UNL     1       0.336   0.124   4.586  0.00  0.00    +0.018 A 
ATOM     31  C   UNL     1      -0.869   0.795   4.479  0.00  0.00    +0.017 A 
ATOM     32  C   UNL     1      -1.306   1.240   3.246  0.00  0.00    +0.024 A 
ATOM     33 BR   UNL     1       0.931  -0.483   6.275  0.00  0.00    -0.050 Br
ENDBRANCH  25  27
ENDBRANCH  15  25
TORSDOF 3
