REMARK  Name = ZINC05183588
REMARK  3 active torsions:
REMARK  status: ('A' for Active; 'I' for Inactive)
REMARK    1  A    between atoms: C_1  and  C_2
REMARK    2  A    between atoms: C_2  and  C_3
REMARK    3  A    between atoms: N_14  and  C_17
REMARK                            x       y       z     vdW  Elec       q    Type
REMARK                         _______ _______ _______ _____ _____    ______ ____
ROOT
ATOM      1  C   UNL     1      -8.106  -1.003   0.019  0.00  0.00    +0.050 A 
ATOM      2  C   UNL     1      -8.448  -1.846  -0.999  0.00  0.00    +0.093 A 
ATOM      3  C   UNL     1      -7.564  -2.000  -2.081  0.00  0.00    +0.253 A 
ATOM      4  O   UNL     1      -7.838  -2.745  -3.007  0.00  0.00    -0.268 OA
ATOM      5  N   UNL     1      -6.405  -1.307  -2.075  0.00  0.00    -0.295 N 
ATOM      6  H   UNL     1      -5.761  -1.401  -2.834  0.00  0.00    +0.172 HD
ATOM      7  C   UNL     1      -6.117  -0.481  -1.033  0.00  0.00    +0.199 A 
ATOM      8  N   UNL     1      -6.949  -0.346  -0.020  0.00  0.00    -0.221 NA
ATOM      9  N   UNL     1      -4.939   0.217  -1.034  0.00  0.00    -0.298 N 
ATOM     10  C   UNL     1      -4.871   1.136   0.111  0.00  0.00    +0.127 C 
ATOM     11  C   UNL     1      -3.579   1.953   0.029  0.00  0.00    +0.124 C 
ATOM     12  N   UNL     1      -2.426   1.042   0.019  0.00  0.00    -0.327 N 
ATOM     13  C   UNL     1      -2.495   0.123  -1.126  0.00  0.00    +0.124 C 
ATOM     14  C   UNL     1      -3.786  -0.694  -1.045  0.00  0.00    +0.127 C 
ENDROOT
BRANCH  12  15
ATOM     15  C   UNL     1      -1.225   1.755   0.017  0.00  0.00    +0.031 A 
ATOM     16  C   UNL     1      -0.013   1.076   0.008  0.00  0.00    +0.023 A 
ATOM     17  C   UNL     1       1.173   1.783   0.000  0.00  0.00    +0.003 A 
ATOM     18  C   UNL     1       1.156   3.166   0.008  0.00  0.00    +0.020 A 
ATOM     19  C   UNL     1      -0.049   3.845   0.023  0.00  0.00    +0.043 A 
ATOM     20  C   UNL     1      -1.240   3.143   0.031  0.00  0.00    +0.043 A 
ATOM     21 CL   UNL     1      -0.066   5.581   0.032  0.00  0.00    -0.083 Cl
ENDBRANCH  12  15
BRANCH   1  23
ATOM     22  C   UNL     1      -8.623  -1.765   2.321  0.00  0.00    +0.010 C 
ATOM     23  C   UNL     1      -9.036  -0.821   1.190  0.00  0.00    +0.052 C 
ENDBRANCH   1  23
TORSDOF 2
