REMARK  Name = ZINC09463098
REMARK  7 active torsions:
REMARK  status: ('A' for Active; 'I' for Inactive)
REMARK    1  A    between atoms: C_4  and  C_7
REMARK    2  A    between atoms: C_7  and  C_9
REMARK    3  A    between atoms: C_7  and  S_20
REMARK    4  A    between atoms: N_11  and  C_12
REMARK    5  A    between atoms: S_20  and  C_21
REMARK    6  A    between atoms: C_24  and  C_27
REMARK    7  A    between atoms: N_25  and  N_26
REMARK                            x       y       z     vdW  Elec       q    Type
REMARK                         _______ _______ _______ _____ _____    ______ ____
ROOT
ATOM      1  C   UNL     1       5.733   3.790  -0.261  0.00  0.00    +0.170 C 
ENDROOT
BRANCH   1   5
ATOM      2  C   UNL     1       3.891   7.181  -2.092  0.00  0.00    +0.000 A 
ATOM      3  C   UNL     1       3.706   6.938  -0.744  0.00  0.00    +0.000 A 
ATOM      4  C   UNL     1       4.302   5.841  -0.151  0.00  0.00    +0.005 A 
ATOM      5  C   UNL     1       5.083   4.986  -0.907  0.00  0.00    -0.025 A 
ATOM      6  C   UNL     1       5.273   5.232  -2.254  0.00  0.00    +0.005 A 
ATOM      7  C   UNL     1       4.673   6.328  -2.847  0.00  0.00    +0.000 A 
ENDBRANCH   1   5
BRANCH   1   8
ATOM      8  C   UNL     1       7.229   3.889  -0.411  0.00  0.00    +0.235 C 
ATOM      9  O   UNL     1       7.785   3.329  -1.333  0.00  0.00    -0.274 OA
ATOM     10  N   UNL     1       7.951   4.599   0.479  0.00  0.00    -0.284 N 
ATOM     11  H   UNL     1       7.501   5.109   1.171  0.00  0.00    +0.155 HD
BRANCH  10  12
ATOM     12  C   UNL     1       9.348   4.600   0.405  0.00  0.00    +0.036 A 
ATOM     13  C   UNL     1      10.023   3.466  -0.025  0.00  0.00    +0.043 A 
ATOM     14  C   UNL     1      11.403   3.472  -0.103  0.00  0.00    +0.044 A 
ATOM     15  C   UNL     1      12.113   4.604   0.258  0.00  0.00    +0.040 A 
ATOM     16  C   UNL     1      11.442   5.734   0.692  0.00  0.00    +0.044 A 
ATOM     17  C   UNL     1      10.062   5.735   0.766  0.00  0.00    +0.043 A 
ATOM     18 CL   UNL     1      12.336   7.152   1.143  0.00  0.00    -0.083 Cl
ATOM     19 CL   UNL     1      12.247   2.056  -0.647  0.00  0.00    -0.083 Cl
ENDBRANCH  10  12
ENDBRANCH   1   8
BRANCH   1  20
ATOM     20  S   UNL     1       5.145   2.277  -1.062  0.00  0.00    -0.067 S 
BRANCH  20  21
ATOM     21  C   UNL     1       3.442   2.337  -0.615  0.00  0.00    +0.209 A 
ATOM     22  N   UNL     1       2.856   3.264   0.106  0.00  0.00    -0.121 NA
ATOM     23  N   UNL     1       1.605   2.994   0.232  0.00  0.00    -0.132 NA
ATOM     24  C   UNL     1       1.323   1.883  -0.387  0.00  0.00    +0.154 A 
ATOM     25  N   UNL     1       2.482   1.426  -0.951  0.00  0.00    -0.228 N 
BRANCH  25  26
ATOM     26  N   UNL     1       2.644   0.293  -1.698  0.00  0.00    -0.295 N 
ATOM     27  H   UNL     1       2.499   0.482  -2.678  0.00  0.00    +0.163 HD
ATOM     28  H   UNL     1       3.553  -0.116  -1.540  0.00  0.00    +0.163 HD
ENDBRANCH  25  26
BRANCH  24  29
ATOM     29  C   UNL     1      -0.031   1.226  -0.470  0.00  0.00    +0.059 C 
ATOM     30  C   UNL     1      -1.148   1.798   0.405  0.00  0.00    +0.012 C 
ATOM     31  C   UNL     1      -1.167   2.028  -1.108  0.00  0.00    +0.012 C 
ENDBRANCH  24  29
ENDBRANCH  20  21
ENDBRANCH   1  20
TORSDOF 7
