REMARK  Name = ZINC63686579
REMARK  11 active torsions:
REMARK  status: ('A' for Active; 'I' for Inactive)
REMARK    1  A    between atoms: C_1  and  C_2
REMARK    2  A    between atoms: C_4  and  C_34
REMARK    3  A    between atoms: C_11  and  C_13
REMARK    4  A    between atoms: C_13  and  S_14
REMARK    5  A    between atoms: S_14  and  C_15
REMARK    6  A    between atoms: C_19  and  C_23
REMARK    7  A    between atoms: N_21  and  C_22
REMARK    8  A    between atoms: C_23  and  O_24
REMARK    9  A    between atoms: O_24  and  C_25
REMARK   10  A    between atoms: C_27  and  C_33
REMARK   11  A    between atoms: C_29  and  C_31
REMARK                            x       y       z     vdW  Elec       q    Type
REMARK                         _______ _______ _______ _____ _____    ______ ____
ROOT
ATOM      1  C   UNL     1      -1.357  -8.778   0.538  0.00  0.00    +0.200 C 
ATOM      2  N   UNL     1      -0.293  -9.153  -0.421  0.00  0.00    -0.229 NA
ATOM      3  N   UNL     1       0.913  -9.303   0.408  0.00  0.00    -0.234 NA
ATOM      4  C   UNL     1       0.390  -9.925   1.652  0.00  0.00    +0.178 C 
ATOM      5  N   UNL     1      -0.924  -9.272   1.862  0.00  0.00    -0.261 NA
ATOM      6  C   UNL     1      -1.901 -10.218   2.416  0.00  0.00    +0.109 C 
ATOM      7  H   UNL     1      -0.518 -10.016  -0.891  0.00  0.00    +0.143 HD
ATOM      8  H   UNL     1       1.588  -9.904  -0.041  0.00  0.00    +0.142 HD
ENDROOT
BRANCH   1   9
ATOM      9  S   UNL     1      -1.549  -6.975   0.580  0.00  0.00    -0.119 S 
BRANCH   9  10
ATOM     10  C   UNL     1       0.097  -6.368   1.043  0.00  0.00    +0.125 C 
BRANCH  10  21
ATOM     11  C   UNL     1      -0.018   1.503   0.010  0.00  0.00    +0.044 C 
ATOM     12  C   UNL     1       0.002  -0.004   0.002  0.00  0.00    -0.049 A 
ATOM     13  C   UNL     1       0.006  -0.686  -1.207  0.00  0.00    +0.008 A 
ATOM     14  C   UNL     1       0.025  -2.063  -1.238  0.00  0.00    -0.026 A 
ATOM     15  C   UNL     1       0.041  -2.780  -0.045  0.00  0.00    +0.053 A 
ATOM     16  C   UNL     1       0.037  -2.083   1.176  0.00  0.00    +0.045 A 
ATOM     17  C   UNL     1       0.023  -0.688   1.185  0.00  0.00    +0.017 A 
ATOM     18  C   UNL     1       0.054  -2.860   2.428  0.00  0.00    +0.190 A 
ATOM     19  O   UNL     1       0.051  -2.306   3.514  0.00  0.00    -0.287 OA
ATOM     20  C   UNL     1       0.073  -4.271   2.327  0.00  0.00    +0.073 A 
ATOM     21  C   UNL     1       0.075  -4.863   1.115  0.00  0.00    +0.030 A 
ATOM     22  N   UNL     1       0.059  -4.156  -0.041  0.00  0.00    -0.357 N 
ATOM     23  C   UNL     1       0.028  -2.790  -2.558  0.00  0.00    +0.046 C 
ATOM     24  H   UNL     1       0.061  -4.632  -0.886  0.00  0.00    +0.166 HD
ENDBRANCH  10  21
ENDBRANCH   9  10
ENDBRANCH   1   9
BRANCH   4  25
ATOM     25  C   UNL     1       1.327  -9.641   2.828  0.00  0.00    +0.265 C 
BRANCH  25  26
ATOM     26  O   UNL     1       1.458  -8.229   3.002  0.00  0.00    -0.489 OA
BRANCH  26  27
ATOM     27  C   UNL     1       2.261  -7.803   4.012  0.00  0.00    +0.121 A 
ATOM     28  C   UNL     1       2.915  -8.726   4.816  0.00  0.00    +0.050 A 
ATOM     29  C   UNL     1       3.731  -8.291   5.842  0.00  0.00    -0.028 A 
ATOM     30  C   UNL     1       3.897  -6.936   6.069  0.00  0.00    +0.047 A 
ATOM     31  C   UNL     1       3.245  -6.014   5.269  0.00  0.00    -0.028 A 
ATOM     32  C   UNL     1       2.433  -6.445   4.237  0.00  0.00    +0.050 A 
ATOM     33  C   UNL     1       3.427  -4.539   5.519  0.00  0.00    +0.045 C 
ATOM     34 CL   UNL     1       4.923  -6.393   7.360  0.00  0.00    -0.083 Cl
ATOM     35  C   UNL     1       4.441  -9.293   6.715  0.00  0.00    +0.045 C 
ENDBRANCH  26  27
ENDBRANCH  25  26
ENDBRANCH   4  25
TORSDOF 6
