REMARK  Name = ZINC22920505
REMARK  6 active torsions:
REMARK  status: ('A' for Active; 'I' for Inactive)
REMARK    1  A    between atoms: C_4  and  S_7
REMARK    2  A    between atoms: S_7  and  N_10
REMARK    3  A    between atoms: N_10  and  C_11
REMARK    4  A    between atoms: C_20  and  N_22
REMARK    5  A    between atoms: N_25  and  C_28
REMARK    6  A    between atoms: C_28  and  C_29
REMARK                            x       y       z     vdW  Elec       q    Type
REMARK                         _______ _______ _______ _____ _____    ______ ____
ROOT
ATOM      1  C   UNL     1      -0.033  -0.004   0.022  0.00  0.00    +0.072 C 
ATOM      2  C   UNL     1       1.302  -0.353  -0.670  0.00  0.00    +0.054 C 
ATOM      3  C   UNL     1       2.204   0.835  -0.412  0.00  0.00    -0.044 A 
ATOM      4  C   UNL     1       3.580   0.955  -0.511  0.00  0.00    +0.004 A 
ATOM      5  C   UNL     1       4.196   2.156  -0.218  0.00  0.00    +0.000 A 
ATOM      6  C   UNL     1       3.437   3.243   0.173  0.00  0.00    +0.000 A 
ATOM      7  C   UNL     1       2.065   3.126   0.272  0.00  0.00    +0.002 A 
ATOM      8  C   UNL     1       1.445   1.922  -0.020  0.00  0.00    -0.056 A 
ATOM      9  C   UNL     1      -0.019   1.539   0.011  0.00  0.00    -0.018 C 
ENDROOT
BRANCH   9  10
ATOM     10  N   UNL     1      -0.704   2.046  -1.186  0.00  0.00    +0.387 N 
ATOM     11  C   UNL     1       0.056   1.727  -2.403  0.00  0.00    -0.062 C 
ATOM     12  C   UNL     1      -0.727   2.200  -3.629  0.00  0.00    +0.066 C 
ATOM     13  N   UNL     1      -0.966   3.647  -3.526  0.00  0.00    -0.302 NA
ATOM     14  C   UNL     1      -1.726   3.966  -2.309  0.00  0.00    +0.066 C 
ATOM     15  C   UNL     1      -0.943   3.493  -1.083  0.00  0.00    -0.062 C 
ATOM     16  H   UNL     1      -1.680   1.544  -1.254  0.00  0.00    -0.081 HD
BRANCH  13  17
ATOM     17  C   UNL     1      -1.651   4.154  -4.723  0.00  0.00    +0.119 C 
BRANCH  17  18
ATOM     18  C   UNL     1      -0.982   3.603  -5.956  0.00  0.00    -0.033 A 
ATOM     19  C   UNL     1       0.058   4.296  -6.546  0.00  0.00    +0.006 A 
ATOM     20  C   UNL     1       0.675   3.788  -7.673  0.00  0.00    +0.020 A 
ATOM     21  C   UNL     1       0.245   2.591  -8.218  0.00  0.00    +0.041 A 
ATOM     22  C   UNL     1      -0.800   1.900  -7.630  0.00  0.00    +0.020 A 
ATOM     23  C   UNL     1      -1.413   2.406  -6.499  0.00  0.00    +0.006 A 
ATOM     24 CL   UNL     1       1.015   1.957  -9.638  0.00  0.00    -0.084 Cl
ENDBRANCH  17  18
ENDBRANCH  13  17
ENDBRANCH   9  10
BRANCH   1  25
ATOM     25  N   UNL     1      -1.168  -0.520  -0.746  0.00  0.00    -0.188 NA
ATOM     26  H   UNL     1      -1.614   0.089  -1.546  0.00  0.00    +0.148 HD
BRANCH  25  27
ATOM     27  S   UNL     1      -1.939  -1.902  -0.258  0.00  0.00    +0.059 S 
ATOM     28  O   UNL     1      -2.998  -2.124  -1.179  0.00  0.00    -0.153 OA
ATOM     29  O   UNL     1      -0.926  -2.868  -0.014  0.00  0.00    -0.153 OA
BRANCH  27  33
ATOM     30  C   UNL     1      -3.869  -1.016   3.740  0.00  0.00    +0.000 A 
ATOM     31  C   UNL     1      -4.570  -0.794   2.570  0.00  0.00    +0.002 A 
ATOM     32  C   UNL     1      -3.981  -1.064   1.349  0.00  0.00    +0.028 A 
ATOM     33  C   UNL     1      -2.690  -1.557   1.298  0.00  0.00    +0.105 A 
ATOM     34  C   UNL     1      -1.991  -1.785   2.469  0.00  0.00    +0.028 A 
ATOM     35  C   UNL     1      -2.578  -1.510   3.690  0.00  0.00    +0.002 A 
ENDBRANCH  27  33
ENDBRANCH  25  27
ENDBRANCH   1  25
TORSDOF 6
