REMARK  Name = ZINC53335775
REMARK  1 active torsions:
REMARK  status: ('A' for Active; 'I' for Inactive)
REMARK    1  A    between atoms: C_5  and  C_6
REMARK                            x       y       z     vdW  Elec       q    Type
REMARK                         _______ _______ _______ _____ _____    ______ ____
ROOT
ATOM      1  C   UNL     1      -1.177  -0.883   0.009  0.00  0.00    +0.144 A 
ATOM      2  N   UNL     1      -2.465  -0.566   0.019  0.00  0.00    -0.241 NA
ATOM      3  C   UNL     1      -3.419  -1.483   0.024  0.00  0.00    +0.049 A 
ATOM      4  C   UNL     1      -3.029  -2.792   0.024  0.00  0.00    -0.004 A 
ATOM      5  S   UNL     1      -1.261  -2.672   0.001  0.00  0.00    -0.071 S 
ATOM      6  C   UNL     1      -3.908  -3.994   0.036  0.00  0.00    -0.038 C 
ATOM      7  N   UNL     1      -5.269  -3.568   0.416  0.00  0.00    +0.382 N 
ATOM      8  C   UNL     1      -5.668  -2.419  -0.407  0.00  0.00    -0.076 C 
ATOM      9  C   UNL     1      -4.912  -1.161   0.028  0.00  0.00    +0.037 C 
ATOM     10  H   UNL     1      -5.914  -4.330   0.266  0.00  0.00    -0.085 HD
ATOM     11  H   UNL     1      -5.280  -3.304   1.390  0.00  0.00    -0.085 HD
ENDROOT
BRANCH   1  16
ATOM     12  C   UNL     1      -0.016   1.359   0.009  0.00  0.00    +0.068 A 
ATOM     13  C   UNL     1       1.326   1.782  -0.001  0.00  0.00    +0.071 A 
ATOM     14  C   UNL     1       2.092   0.671  -0.014  0.00  0.00    +0.185 A 
ATOM     15  O   UNL     1       1.289  -0.406  -0.012  0.00  0.00    -0.445 OA
ATOM     16  C   UNL     1       0.002  -0.004   0.002  0.00  0.00    +0.162 A 
ATOM     17 BR   UNL     1       3.983   0.635  -0.033  0.00  0.00    -0.007 Br
ATOM     18 BR   UNL     1       1.940   3.571   0.002  0.00  0.00    -0.046 Br
ENDBRANCH   1  16
TORSDOF 1
