REMARK  Name = ZINC36633226
REMARK  6 active torsions:
REMARK  status: ('A' for Active; 'I' for Inactive)
REMARK    1  A    between atoms: C_1  and  C_2
REMARK    2  A    between atoms: C_2  and  C_3
REMARK    3  A    between atoms: C_2  and  C_4
REMARK    4  A    between atoms: C_7  and  O_10
REMARK    5  A    between atoms: O_10  and  C_11
REMARK    6  A    between atoms: C_11  and  C_12
REMARK                            x       y       z     vdW  Elec       q    Type
REMARK                         _______ _______ _______ _____ _____    ______ ____
ROOT
ATOM      1  C   UNL     1      -7.113  -3.201  -0.875  0.00  0.00    +0.256 C 
ATOM      2  O   UNL     1      -7.734  -2.837   0.101  0.00  0.00    -0.272 OA
ATOM      3  N   UNL     1      -7.705  -3.986  -1.797  0.00  0.00    -0.262 N 
ATOM      4  C   UNL     1      -9.024  -4.377  -1.629  0.00  0.00    +0.166 A 
ATOM      5  N   UNL     1      -9.852  -4.084  -0.654  0.00  0.00    -0.223 NA
ATOM      6  C   UNL     1     -11.123  -4.539  -0.619  0.00  0.00    +0.094 A 
ATOM      7  C   UNL     1     -11.511  -5.356  -1.705  0.00  0.00    +0.042 A 
ATOM      8  S   UNL     1     -10.032  -5.403  -2.690  0.00  0.00    -0.052 S 
ATOM      9  C   UNL     1     -12.768  -5.895  -1.815  0.00  0.00    +0.017 A 
ATOM     10  C   UNL     1     -13.709  -5.640  -0.834  0.00  0.00    +0.002 A 
ATOM     11  C   UNL     1     -13.364  -4.842   0.247  0.00  0.00    +0.017 A 
ATOM     12  C   UNL     1     -12.110  -4.299   0.366  0.00  0.00    +0.044 A 
ATOM     13 BR   UNL     1     -11.696  -3.219   1.861  0.00  0.00    -0.048 Br
ATOM     14  H   UNL     1      -7.209  -4.277  -2.578  0.00  0.00    +0.157 HD
ENDROOT
BRANCH   1  15
ATOM     15  C   UNL     1      -5.679  -2.776  -1.058  0.00  0.00    +0.324 C 
BRANCH  15  16
ATOM     16  O   UNL     1      -5.282  -1.955   0.043  0.00  0.00    -0.483 OA
BRANCH  16  20
ATOM     17  C   UNL     1      -1.412  -0.526   0.013  0.00  0.00    -0.045 A 
ATOM     18  C   UNL     1      -2.258  -0.203   1.057  0.00  0.00    +0.007 A 
ATOM     19  C   UNL     1      -3.555  -0.681   1.070  0.00  0.00    +0.046 A 
ATOM     20  C   UNL     1      -4.007  -1.484   0.033  0.00  0.00    +0.121 A 
ATOM     21  C   UNL     1      -3.156  -1.805  -1.015  0.00  0.00    +0.046 A 
ATOM     22  C   UNL     1      -1.862  -1.321  -1.025  0.00  0.00    +0.007 A 
BRANCH  17  24
ATOM     23  C   UNL     1      -0.019   1.526   0.010  0.00  0.00    +0.012 C 
ATOM     24  C   UNL     1       0.002  -0.004   0.002  0.00  0.00    +0.013 C 
ATOM     25  C   UNL     1       0.742  -0.511   1.242  0.00  0.00    +0.012 C 
ENDBRANCH  17  24
ENDBRANCH  16  20
ENDBRANCH  15  16
ENDBRANCH   1  15
TORSDOF 4
