REMARK  Name = ZINC36284809
REMARK  3 active torsions:
REMARK  status: ('A' for Active; 'I' for Inactive)
REMARK    1  A    between atoms: C_4  and  S_11
REMARK    2  A    between atoms: C_5  and  C_7
REMARK    3  A    between atoms: S_11  and  N_14
REMARK                            x       y       z     vdW  Elec       q    Type
REMARK                         _______ _______ _______ _____ _____    ______ ____
ROOT
ATOM      1  S   UNL     1       3.699  -1.174  -0.282  0.00  0.00    +0.061 S 
ATOM      2  O   UNL     1       3.406  -2.073  -1.343  0.00  0.00    -0.153 OA
ATOM      3  O   UNL     1       4.846  -0.336  -0.290  0.00  0.00    -0.153 OA
ENDROOT
BRANCH   1   4
ATOM      4  N   UNL     1       3.787  -2.084   1.099  0.00  0.00    -0.178 NA
ATOM      5  C   UNL     1       4.416  -1.693   2.372  0.00  0.00    +0.111 C 
ATOM      6  C   UNL     1       3.610  -2.388   3.481  0.00  0.00    -0.010 C 
ATOM      7  C   UNL     1       4.585  -3.055   4.475  0.00  0.00    -0.016 C 
ATOM      8  C   UNL     1       3.954  -4.453   4.697  0.00  0.00    -0.082 C 
ATOM      9  N   UNL     1       3.439  -4.810   3.350  0.00  0.00    +0.382 N 
ATOM     10  C   UNL     1       2.861  -3.547   2.779  0.00  0.00    -0.052 C 
ATOM     11  C   UNL     1       3.245  -3.438   1.296  0.00  0.00    +0.094 C 
ATOM     12  H   UNL     1       4.191  -5.149   2.770  0.00  0.00    -0.085 HD
ATOM     13  H   UNL     1       2.716  -5.509   3.429  0.00  0.00    -0.085 HD
ENDBRANCH   1   4
BRANCH   1  17
ATOM     14  C   UNL     1       0.109   1.552   0.136  0.00  0.00    +0.001 A 
ATOM     15  C   UNL     1       0.264   0.476   0.990  0.00  0.00    +0.002 A 
ATOM     16  C   UNL     1       1.360  -0.356   0.863  0.00  0.00    +0.029 A 
ATOM     17  C   UNL     1       2.301  -0.114  -0.120  0.00  0.00    +0.117 A 
ATOM     18  C   UNL     1       2.146   0.961  -0.976  0.00  0.00    +0.081 A 
ATOM     19  C   UNL     1       1.051   1.794  -0.847  0.00  0.00    +0.014 A 
BRANCH  18  20
ATOM     20  C   UNL     1       3.173   1.226  -2.046  0.00  0.00    +0.419 C 
ATOM     21  F   UNL     1       2.735   2.274  -2.863  0.00  0.00    -0.166 F 
ATOM     22  F   UNL     1       4.389   1.576  -1.450  0.00  0.00    -0.166 F 
ATOM     23  F   UNL     1       3.348   0.074  -2.820  0.00  0.00    -0.166 F 
ENDBRANCH  18  20
ENDBRANCH   1  17
TORSDOF 3
