REMARK  Name = ZINC05660958
REMARK  6 active torsions:
REMARK  status: ('A' for Active; 'I' for Inactive)
REMARK    1  A    between atoms: N_6  and  C_7
REMARK    2  A    between atoms: C_7  and  C_9
REMARK    3  A    between atoms: C_7  and  C_21
REMARK    4  A    between atoms: C_12  and  O_15
REMARK    5  A    between atoms: O_15  and  C_16
REMARK    6  A    between atoms: C_30  and  O_31
REMARK                            x       y       z     vdW  Elec       q    Type
REMARK                         _______ _______ _______ _____ _____    ______ ____
ROOT
ATOM      1  C   UNL     1       5.365  -1.754   2.013  0.00  0.00    +0.136 C 
ENDROOT
BRANCH   1   2
ATOM      2  C   UNL     1       5.767  -2.662   0.880  0.00  0.00    +0.021 A 
ATOM      3  C   UNL     1       5.087  -3.862   0.690  0.00  0.00    +0.010 A 
ATOM      4  C   UNL     1       5.425  -4.705  -0.325  0.00  0.00    +0.010 A 
ATOM      5  C   UNL     1       6.474  -4.363  -1.194  0.00  0.00    +0.004 A 
ATOM      6  C   UNL     1       6.852  -5.208  -2.254  0.00  0.00    +0.011 A 
ATOM      7  C   UNL     1       7.881  -4.811  -3.060  0.00  0.00    +0.020 A 
ATOM      8  C   UNL     1       8.524  -3.599  -2.819  0.00  0.00    +0.111 A 
ATOM      9  N   UNL     1       8.169  -2.814  -1.831  0.00  0.00    -0.251 NA
ATOM     10  C   UNL     1       7.170  -3.144  -1.006  0.00  0.00    +0.113 A 
ATOM     11  C   UNL     1       6.789  -2.294   0.053  0.00  0.00    +0.148 A 
BRANCH  11  12
ATOM     12  O   UNL     1       7.437  -1.117   0.251  0.00  0.00    -0.504 OA
ATOM     13  H   UNL     1       8.202  -1.183   0.839  0.00  0.00    +0.292 HD
ENDBRANCH  11  12
ENDBRANCH   1   2
BRANCH   1  19
ATOM     14  C   UNL     1       7.589  -3.736   4.969  0.00  0.00    +0.005 A 
ATOM     15  C   UNL     1       6.923  -4.548   5.878  0.00  0.00    +0.018 A 
ATOM     16  C   UNL     1       5.549  -4.655   5.808  0.00  0.00    +0.084 A 
ATOM     17  C   UNL     1       5.463  -3.214   4.007  0.00  0.00    +0.097 A 
ATOM     18  C   UNL     1       6.846  -3.064   4.016  0.00  0.00    +0.041 A 
ATOM     19  N   UNL     1       4.704  -2.539   3.058  0.00  0.00    -0.320 N 
ATOM     20  H   UNL     1       3.735  -2.588   3.088  0.00  0.00    +0.148 HD
ATOM     21  N   UNL     1       4.786  -4.005   4.888  0.00  0.00    -0.350 N 
ATOM     22  H   UNL     1       3.764  -4.103   4.860  0.00  0.00    +0.166 HD
ENDBRANCH   1  19
BRANCH   1  23
ATOM     23  C   UNL     1       4.417  -0.700   1.501  0.00  0.00    -0.023 A 
ATOM     24  C   UNL     1       4.846   0.608   1.367  0.00  0.00    +0.009 A 
ATOM     25  C   UNL     1       3.979   1.575   0.897  0.00  0.00    +0.046 A 
ATOM     26  C   UNL     1       2.678   1.234   0.559  0.00  0.00    +0.121 A 
ATOM     27  C   UNL     1       2.248  -0.078   0.699  0.00  0.00    +0.046 A 
ATOM     28  C   UNL     1       3.121  -1.043   1.164  0.00  0.00    +0.009 A 
BRANCH  26  29
ATOM     29  O   UNL     1       1.823   2.184   0.097  0.00  0.00    -0.489 OA
BRANCH  29  30
ATOM     30  C   UNL     1       2.291   3.534   0.099  0.00  0.00    +0.173 C 
ATOM     31  C   UNL     1       2.971   3.874  -1.251  0.00  0.00    +0.044 C 
ATOM     32  C   UNL     1       2.851   5.420  -1.310  0.00  0.00    +0.004 C 
ATOM     33  C   UNL     1       1.461   5.716  -0.710  0.00  0.00    +0.004 C 
ATOM     34  C   UNL     1       1.105   4.516   0.186  0.00  0.00    +0.044 C 
ENDBRANCH  29  30
ENDBRANCH  26  29
ENDBRANCH   1  23
TORSDOF 6
