REMARK  Name = ZINC18196229
REMARK  2 active torsions:
REMARK  status: ('A' for Active; 'I' for Inactive)
REMARK    1  A    between atoms: C_3  and  C_6
REMARK    2  A    between atoms: C_11  and  C_19
REMARK                            x       y       z     vdW  Elec       q    Type
REMARK                         _______ _______ _______ _____ _____    ______ ____
ROOT
ATOM      1  C   UNL     1      -1.477  -4.200  -1.632  0.00  0.00    +0.039 C 
ATOM      2  C   UNL     1      -1.913  -3.137  -0.621  0.00  0.00    +0.060 C 
ATOM      3  C   UNL     1      -0.749  -2.227  -0.308  0.00  0.00    +0.020 C 
ATOM      4  C   UNL     1       0.519  -2.688  -0.334  0.00  0.00    +0.041 C 
ATOM      5  C   UNL     1       1.704  -1.805  -0.008  0.00  0.00    +0.175 C 
ATOM      6  N   UNL     1       1.297  -0.406  -0.008  0.00  0.00    -0.221 N 
ATOM      7  C   UNL     1       0.002  -0.004   0.002  0.00  0.00    +0.218 A 
ATOM      8  N   UNL     1      -0.016   1.300   0.009  0.00  0.00    -0.201 NA
ATOM      9  C   UNL     1       1.238   1.765  -0.000  0.00  0.00    +0.247 A 
ATOM     10  N   UNL     1       2.071   0.754  -0.012  0.00  0.00    -0.156 NA
ATOM     11  N   UNL     1      -1.038  -0.918  -0.001  0.00  0.00    -0.287 N 
ATOM     12  C   UNL     1       0.793  -4.026  -0.673  0.00  0.00    +0.164 C 
ATOM     13  O   UNL     1       1.945  -4.414  -0.675  0.00  0.00    -0.292 OA
ATOM     14  C   UNL     1      -0.306  -4.986  -1.032  0.00  0.00    +0.088 C 
ATOM     15  H   UNL     1      -1.945  -0.643   0.208  0.00  0.00    +0.155 HD
ENDROOT
BRANCH   5  16
ATOM     16  C   UNL     1       2.237  -2.171   1.353  0.00  0.00    -0.018 A 
ATOM     17  C   UNL     1       1.428  -2.052   2.467  0.00  0.00    +0.007 A 
ATOM     18  C   UNL     1       1.915  -2.393   3.715  0.00  0.00    +0.020 A 
ATOM     19  C   UNL     1       3.217  -2.842   3.850  0.00  0.00    +0.041 A 
ATOM     20  C   UNL     1       4.028  -2.956   2.735  0.00  0.00    +0.020 A 
ATOM     21  C   UNL     1       3.538  -2.620   1.487  0.00  0.00    +0.007 A 
ATOM     22 CL   UNL     1       3.832  -3.264   5.418  0.00  0.00    -0.084 Cl
ENDBRANCH   5  16
BRANCH   1  25
ATOM     23  C   UNL     1      -4.278  -6.313  -3.115  0.00  0.00    +0.008 A 
ATOM     24  C   UNL     1      -3.234  -5.407  -3.094  0.00  0.00    +0.011 A 
ATOM     25  C   UNL     1      -2.625  -5.134  -1.914  0.00  0.00    -0.006 A 
ATOM     26  S   UNL     1      -3.541  -6.164  -0.778  0.00  0.00    -0.101 S 
ATOM     27  C   UNL     1      -4.669  -6.894  -1.954  0.00  0.00    +0.045 A 
ENDBRANCH   1  25
TORSDOF 2
