REMARK  Name = ZINC36571454
REMARK  18 active torsions:
REMARK  status: ('A' for Active; 'I' for Inactive)
REMARK    1  A    between atoms: C_1  and  C_2
REMARK    2  A    between atoms: C_2  and  C_3
REMARK    3  A    between atoms: C_3  and  N_4
REMARK    4  A    between atoms: N_4  and  C_5
REMARK    5  A    between atoms: C_5  and  C_7
REMARK    6  A    between atoms: C_5  and  C_14
REMARK    7  A    between atoms: C_10  and  C_13
REMARK    8  A    between atoms: N_16  and  C_17
REMARK    9  A    between atoms: C_17  and  C_18
REMARK   10  A    between atoms: C_17  and  C_19
REMARK   11  A    between atoms: C_17  and  C_20
REMARK   12  A    between atoms: C_20  and  C_21
REMARK   13  A    between atoms: C_21  and  C_22
REMARK   14  A    between atoms: C_21  and  C_23
REMARK   15  A    between atoms: C_21  and  C_24
REMARK   16  A    between atoms: C_25  and  C_27
REMARK   17  A    between atoms: C_31  and  O_34
REMARK   18  A    between atoms: C_32  and  O_33
REMARK                            x       y       z     vdW  Elec       q    Type
REMARK                         _______ _______ _______ _____ _____    ______ ____
ROOT
ATOM      1  C   UNL     1       0.786  -4.336  -1.419  0.00  0.00    +0.192 C 
ENDROOT
BRANCH   1   2
ATOM      2  C   UNL     1      -0.007  -3.358  -0.591  0.00  0.00    -0.018 A 
ATOM      3  C   UNL     1       0.453  -2.066  -0.418  0.00  0.00    +0.006 A 
ATOM      4  C   UNL     1      -0.274  -1.169   0.342  0.00  0.00    +0.004 A 
ATOM      5  C   UNL     1      -1.462  -1.565   0.929  0.00  0.00    -0.050 A 
ATOM      6  C   UNL     1      -1.922  -2.857   0.755  0.00  0.00    +0.004 A 
ATOM      7  C   UNL     1      -1.197  -3.752  -0.008  0.00  0.00    +0.006 A 
ATOM      8  C   UNL     1      -2.254  -0.588   1.758  0.00  0.00    +0.044 C 
ENDBRANCH   1   2
BRANCH   1   9
ATOM      9  C   UNL     1      -0.075  -4.859  -2.540  0.00  0.00    +0.239 C 
ATOM     10  O   UNL     1       0.223  -4.628  -3.692  0.00  0.00    -0.273 OA
ATOM     11  N   UNL     1      -1.176  -5.584  -2.261  0.00  0.00    -0.308 N 
ATOM     12  H   UNL     1      -1.414  -5.769  -1.339  0.00  0.00    +0.149 HD
BRANCH  11  13
ATOM     13  C   UNL     1      -2.013  -6.093  -3.350  0.00  0.00    +0.030 C 
ATOM     14  C   UNL     1      -2.896  -4.964  -3.885  0.00  0.00    +0.031 C 
ATOM     15  C   UNL     1      -1.121  -6.620  -4.476  0.00  0.00    +0.031 C 
BRANCH  13  16
ATOM     16  C   UNL     1      -2.897  -7.227  -2.828  0.00  0.00    +0.031 C 
BRANCH  16  17
ATOM     17  C   UNL     1      -2.085  -8.110  -1.877  0.00  0.00    -0.036 C 
ATOM     18  C   UNL     1      -2.240  -7.594  -0.445  0.00  0.00    +0.010 C 
ATOM     19  C   UNL     1      -2.595  -9.550  -1.958  0.00  0.00    +0.010 C 
ATOM     20  C   UNL     1      -0.609  -8.068  -2.278  0.00  0.00    +0.010 C 
ENDBRANCH  16  17
ENDBRANCH  13  16
ENDBRANCH  11  13
ENDBRANCH   1   9
BRANCH   1  21
ATOM     21  N   UNL     1       1.960  -3.662  -1.980  0.00  0.00    -0.282 N 
ATOM     22  C   UNL     1       3.096  -3.576  -1.259  0.00  0.00    +0.251 C 
ATOM     23  O   UNL     1       4.083  -3.052  -1.739  0.00  0.00    -0.270 OA
BRANCH  22  24
ATOM     24  C   UNL     1       3.142  -4.117   0.113  0.00  0.00    +0.082 A 
ATOM     25  C   UNL     1       1.956  -4.386   0.802  0.00  0.00    +0.017 A 
ATOM     26  C   UNL     1       2.003  -4.892   2.083  0.00  0.00    +0.005 A 
ATOM     27  C   UNL     1       3.221  -5.137   2.694  0.00  0.00    +0.049 A 
ATOM     28  C   UNL     1       4.405  -4.876   2.025  0.00  0.00    +0.159 A 
ATOM     29  C   UNL     1       4.373  -4.370   0.728  0.00  0.00    +0.171 A 
BRANCH  29  30
ATOM     30  O   UNL     1       5.532  -4.118   0.066  0.00  0.00    -0.503 OA
ATOM     31  H   UNL     1       5.874  -3.224   0.199  0.00  0.00    +0.292 HD
ENDBRANCH  29  30
BRANCH  28  32
ATOM     32  O   UNL     1       5.597  -5.119   2.631  0.00  0.00    -0.503 OA
ATOM     33  H   UNL     1       5.940  -6.011   2.482  0.00  0.00    +0.292 HD
ENDBRANCH  28  32
ENDBRANCH  22  24
BRANCH  21  34
ATOM     34  C   UNL     1       1.899  -3.080  -3.323  0.00  0.00    +0.109 C 
BRANCH  34  36
ATOM     35  C   UNL     1       2.724  -3.338  -5.667  0.00  0.00    +0.005 C 
ATOM     36  C   UNL     1       2.966  -3.729  -4.208  0.00  0.00    +0.016 C 
ENDBRANCH  34  36
ENDBRANCH  21  34
ENDBRANCH   1  21
TORSDOF 11
