REMARK  Name = ZINC66593601
REMARK  8 active torsions:
REMARK  status: ('A' for Active; 'I' for Inactive)
REMARK    1  A    between atoms: C_1  and  C_2
REMARK    2  A    between atoms: C_2  and  C_3
REMARK    3  A    between atoms: C_6  and  C_8
REMARK    4  A    between atoms: C_8  and  N_9
REMARK    5  A    between atoms: N_9  and  C_10
REMARK    6  A    between atoms: C_10  and  C_11
REMARK    7  A    between atoms: C_15  and  C_17
REMARK    8  A    between atoms: C_17  and  C_24
REMARK                            x       y       z     vdW  Elec       q    Type
REMARK                         _______ _______ _______ _____ _____    ______ ____
ROOT
ATOM      1  C   UNL     1       4.966  -5.232   4.638  0.00  0.00    -0.064 A 
ATOM      2  C   UNL     1       4.264  -6.075   5.480  0.00  0.00    +0.002 A 
ATOM      3  C   UNL     1       4.411  -7.445   5.366  0.00  0.00    +0.001 A 
ATOM      4  C   UNL     1       5.259  -7.972   4.410  0.00  0.00    +0.006 A 
ATOM      5  C   UNL     1       5.960  -7.130   3.568  0.00  0.00    -0.015 A 
ATOM      6  C   UNL     1       5.810  -5.760   3.679  0.00  0.00    +0.008 A 
ENDROOT
BRANCH   5   7
ATOM      7  C   UNL     1       6.885  -7.704   2.526  0.00  0.00    +0.135 C 
ATOM      8  C   UNL     1       8.324  -7.336   2.829  0.00  0.00    +0.248 C 
ATOM      9  O   UNL     1       8.798  -6.222   2.888  0.00  0.00    -0.273 OA
ATOM     10  N   UNL     1       8.967  -8.505   3.020  0.00  0.00    -0.238 N 
ATOM     11  C   UNL     1       8.143  -9.550   2.882  0.00  0.00    +0.307 C 
ATOM     12  O   UNL     1       8.492 -10.707   3.007  0.00  0.00    -0.252 OA
ATOM     13  N   UNL     1       6.884  -9.176   2.588  0.00  0.00    -0.282 N 
ATOM     14  C   UNL     1       6.486  -7.223   1.130  0.00  0.00    +0.047 C 
ATOM     15  H   UNL     1       9.910  -8.580   3.232  0.00  0.00    +0.159 HD
ATOM     16  H   UNL     1       6.124  -9.762   2.444  0.00  0.00    +0.152 HD
ENDBRANCH   5   7
BRANCH   1  17
ATOM     17  C   UNL     1       4.807  -3.739   4.763  0.00  0.00    -0.046 C 
BRANCH  17  18
ATOM     18  N   UNL     1       3.705  -3.291   3.900  0.00  0.00    +0.385 N 
ATOM     19  H   UNL     1       2.850  -3.745   4.183  0.00  0.00    -0.085 HD
ATOM     20  H   UNL     1       3.911  -3.528   2.941  0.00  0.00    -0.085 HD
BRANCH  18  21
ATOM     21  C   UNL     1       3.550  -1.835   4.021  0.00  0.00    -0.039 C 
BRANCH  21  25
ATOM     22  C   UNL     1       0.731  -0.503   1.223  0.00  0.00    -0.010 A 
ATOM     23  C   UNL     1       0.236  -0.806   2.448  0.00  0.00    +0.011 A 
ATOM     24  C   UNL     1       1.102  -1.254   3.429  0.00  0.00    +0.009 A 
ATOM     25  C   UNL     1       2.420  -1.375   3.136  0.00  0.00    -0.027 A 
ATOM     26  S   UNL     1       2.469  -0.856   1.429  0.00  0.00    -0.100 S 
BRANCH  22  28
ATOM     27  C   UNL     1      -0.019   1.526   0.010  0.00  0.00    +0.009 C 
ATOM     28  C   UNL     1       0.002  -0.004   0.002  0.00  0.00    +0.039 C 
ENDBRANCH  22  28
ENDBRANCH  21  25
ENDBRANCH  18  21
ENDBRANCH  17  18
ENDBRANCH   1  17
TORSDOF 6
