REMARK  Name = ZINC07778050
REMARK  7 active torsions:
REMARK  status: ('A' for Active; 'I' for Inactive)
REMARK    1  A    between atoms: C_1  and  C_2
REMARK    2  A    between atoms: C_2  and  C_4
REMARK    3  A    between atoms: C_2  and  N_7
REMARK    4  A    between atoms: N_7  and  C_8
REMARK    5  A    between atoms: C_8  and  C_9
REMARK    6  A    between atoms: C_13  and  C_15
REMARK    7  A    between atoms: C_15  and  C_16
REMARK                            x       y       z     vdW  Elec       q    Type
REMARK                         _______ _______ _______ _____ _____    ______ ____
ROOT
ATOM      1  N   UNL     1       0.287   0.233  -0.378  0.00  0.00    -0.290 N 
ATOM      2  C   UNL     1      -0.236  -0.477  -1.398  0.00  0.00    +0.220 C 
ATOM      3  O   UNL     1      -1.045   0.035  -2.142  0.00  0.00    -0.275 OA
ENDROOT
BRANCH   1   5
ATOM      4  C   UNL     1       1.115   2.524  -0.165  0.00  0.00    +0.028 C 
ATOM      5  C   UNL     1      -0.122   1.624  -0.169  0.00  0.00    +0.076 C 
BRANCH   5   6
ATOM      6  C   UNL     1      -0.846   1.746   1.173  0.00  0.00    +0.009 C 
ATOM      7  C   UNL     1      -2.354   2.005   1.141  0.00  0.00    +0.005 C 
ATOM      8  C   UNL     1      -1.394   3.122   1.557  0.00  0.00    +0.005 C 
ENDBRANCH   5   6
ENDBRANCH   1   5
BRANCH   1   9
ATOM      9  C   UNL     1       1.264  -0.387   0.520  0.00  0.00    +0.221 C 
BRANCH   9  10
ATOM     10  C   UNL     1       2.665  -0.256  -0.082  0.00  0.00    +0.405 C 
ATOM     11  F   UNL     1       3.041   1.091  -0.099  0.00  0.00    -0.169 F 
ATOM     12  F   UNL     1       3.575  -0.985   0.692  0.00  0.00    -0.169 F 
ATOM     13  F   UNL     1       2.659  -0.756  -1.389  0.00  0.00    -0.169 F 
ENDBRANCH   9  10
ENDBRANCH   1   9
BRANCH   2  14
ATOM     14  C   UNL     1       0.184  -1.909  -1.613  0.00  0.00    +0.131 C 
BRANCH  14  15
ATOM     15  C   UNL     1      -0.541  -2.471  -2.808  0.00  0.00    -0.039 A 
ATOM     16  C   UNL     1      -1.760  -3.102  -2.643  0.00  0.00    +0.005 A 
ATOM     17  C   UNL     1      -2.428  -3.614  -3.739  0.00  0.00    +0.015 A 
ATOM     18  C   UNL     1      -1.872  -3.503  -5.001  0.00  0.00    +0.018 A 
ATOM     19  C   UNL     1      -0.650  -2.876  -5.165  0.00  0.00    +0.015 A 
ATOM     20  C   UNL     1       0.015  -2.360  -4.069  0.00  0.00    +0.005 A 
ATOM     21 BR   UNL     1      -2.782  -4.209  -6.501  0.00  0.00    -0.050 Br
ENDBRANCH  14  15
ENDBRANCH   2  14
TORSDOF 6
