REMARK  Name = ZINC21167142
REMARK  5 active torsions:
REMARK  status: ('A' for Active; 'I' for Inactive)
REMARK    1  A    between atoms: C_1  and  O_2
REMARK    2  A    between atoms: O_2  and  C_3
REMARK    3  A    between atoms: C_6  and  N_9
REMARK    4  A    between atoms: N_9  and  C_10
REMARK    5  A    between atoms: C_10  and  C_11
REMARK                            x       y       z     vdW  Elec       q    Type
REMARK                         _______ _______ _______ _____ _____    ______ ____
ROOT
ATOM      1  N   UNL     1      -1.560  -1.260  -1.366  0.00  0.00    -0.274 N 
ATOM      2  C   UNL     1      -1.189  -2.532  -1.739  0.00  0.00    +0.136 C 
ATOM      3  N   UNL     1      -1.626  -3.206  -2.756  0.00  0.00    -0.362 N 
ATOM      4  C   UNL     1      -1.175  -4.556  -3.035  0.00  0.00    +0.117 C 
ATOM      5  C   UNL     1      -2.403  -5.494  -3.099  0.00  0.00    +0.191 C 
ATOM      6  S   UNL     1      -1.730  -7.054  -2.382  0.00  0.00    -0.028 S 
ATOM      7  O   UNL     1      -2.742  -7.697  -1.620  0.00  0.00    -0.174 OA
ATOM      8  O   UNL     1      -1.039  -7.777  -3.392  0.00  0.00    -0.174 OA
ATOM      9  C   UNL     1      -0.504  -6.278  -1.239  0.00  0.00    +0.182 C 
ATOM     10  C   UNL     1      -0.109  -5.037  -2.039  0.00  0.00    +0.099 C 
ATOM     11  S   UNL     1      -0.003  -3.586  -0.927  0.00  0.00    -0.085 S 
ATOM     12  H   UNL     1      -2.362  -2.756  -3.439  0.00  0.00    +0.162 HD
ENDROOT
BRANCH   1  16
ATOM     13  C   UNL     1      -4.124   0.960  -3.793  0.00  0.00    +0.120 A 
ATOM     14  C   UNL     1      -4.552   0.524  -2.548  0.00  0.00    +0.047 A 
ATOM     15  C   UNL     1      -3.704  -0.211  -1.744  0.00  0.00    +0.027 A 
ATOM     16  C   UNL     1      -2.421  -0.514  -2.182  0.00  0.00    +0.036 A 
ATOM     17  C   UNL     1      -1.991  -0.073  -3.426  0.00  0.00    +0.027 A 
ATOM     18  C   UNL     1      -2.843   0.657  -4.231  0.00  0.00    +0.047 A 
BRANCH  13  20
ATOM     19  C   UNL     1      -4.453   2.100  -5.854  0.00  0.00    +0.277 C 
ATOM     20  O   UNL     1      -4.960   1.684  -4.584  0.00  0.00    -0.495 OA
ENDBRANCH  13  20
ENDBRANCH   1  16
BRANCH   1  21
ATOM     21  C   UNL     1      -1.054  -0.685  -0.117  0.00  0.00    +0.187 C 
BRANCH  21  22
ATOM     22  C   UNL     1       0.238   0.042  -0.386  0.00  0.00    +0.126 A 
ATOM     23  N   UNL     1       0.345   1.376  -0.630  0.00  0.00    -0.341 N 
ATOM     24  H   UNL     1      -0.556   2.007  -0.641  0.00  0.00    +0.167 HD
ATOM     25  C   UNL     1       1.684   1.651  -0.825  0.00  0.00    +0.066 A 
ATOM     26  C   UNL     1       2.402   2.806  -1.106  0.00  0.00    +0.028 A 
ATOM     27  C   UNL     1       3.772   2.740  -1.245  0.00  0.00    +0.002 A 
ATOM     28  C   UNL     1       4.436   1.529  -1.107  0.00  0.00    +0.002 A 
ATOM     29  C   UNL     1       3.745   0.383  -0.831  0.00  0.00    +0.030 A 
ATOM     30  C   UNL     1       2.356   0.426  -0.685  0.00  0.00    +0.089 A 
ATOM     31  N   UNL     1       1.414  -0.514  -0.418  0.00  0.00    -0.231 NA
ENDBRANCH  21  22
ENDBRANCH   1  21
TORSDOF 4
