REMARK  Name = ZINC38507634
REMARK  6 active torsions:
REMARK  status: ('A' for Active; 'I' for Inactive)
REMARK    1  A    between atoms: C_1  and  C_2
REMARK    2  A    between atoms: C_2  and  C_3
REMARK    3  A    between atoms: C_2  and  N_4
REMARK    4  A    between atoms: C_7  and  C_9
REMARK    5  A    between atoms: N_11  and  C_12
REMARK    6  A    between atoms: C_13  and  C_17
REMARK                            x       y       z     vdW  Elec       q    Type
REMARK                         _______ _______ _______ _____ _____    ______ ____
ROOT
ATOM      1  C   UNL     1      -5.080  -2.222  -3.785  0.00  0.00    +0.082 A 
ATOM      2  C   UNL     1      -5.051  -2.341  -5.168  0.00  0.00    +0.036 A 
ATOM      3  C   UNL     1      -6.242  -2.838  -5.807  0.00  0.00    +0.020 A 
ATOM      4  C   UNL     1      -7.300  -3.153  -5.035  0.00  0.00    +0.048 A 
ATOM      5  S   UNL     1      -6.721  -2.795  -3.388  0.00  0.00    -0.081 S 
ENDROOT
BRANCH   2   6
ATOM      6  C   UNL     1      -3.855  -1.976  -5.947  0.00  0.00    +0.112 A 
ATOM      7  N   UNL     1      -2.697  -1.517  -5.517  0.00  0.00    -0.239 NA
ATOM      8  C   UNL     1      -1.681  -1.222  -6.353  0.00  0.00    +0.079 A 
ATOM      9  C   UNL     1      -0.397  -0.726  -6.025  0.00  0.00    +0.029 A 
ATOM     10  C   UNL     1       0.528  -0.476  -7.005  0.00  0.00    +0.002 A 
ATOM     11  C   UNL     1       0.243  -0.698  -8.345  0.00  0.00    +0.001 A 
ATOM     12  C   UNL     1      -1.002  -1.183  -8.702  0.00  0.00    +0.017 A 
ATOM     13  C   UNL     1      -1.935  -1.436  -7.728  0.00  0.00    +0.040 A 
ATOM     14  S   UNL     1      -3.603  -2.049  -7.715  0.00  0.00    -0.067 S 
ENDBRANCH   2   6
BRANCH   1  17
ATOM     15  C   UNL     1      -4.302  -1.739  -1.599  0.00  0.00    +0.269 C 
ATOM     16  O   UNL     1      -5.374  -2.095  -1.150  0.00  0.00    -0.268 OA
ATOM     17  N   UNL     1      -4.082  -1.776  -2.928  0.00  0.00    -0.274 N 
ATOM     18  H   UNL     1      -3.226  -1.492  -3.286  0.00  0.00    +0.156 HD
BRANCH  15  22
ATOM     19  N   UNL     1      -1.372  -0.511   0.012  0.00  0.00    -0.268 N 
ATOM     20  C   UNL     1      -2.122  -0.689   1.122  0.00  0.00    +0.109 A 
ATOM     21  C   UNL     1      -3.322  -1.169   0.722  0.00  0.00    +0.054 A 
ATOM     22  C   UNL     1      -3.241  -1.265  -0.688  0.00  0.00    +0.147 A 
ATOM     23  N   UNL     1      -2.040  -0.846  -1.033  0.00  0.00    -0.166 NA
BRANCH  19  25
ATOM     24  C   UNL     1      -0.019   1.526   0.010  0.00  0.00    +0.032 C 
ATOM     25  C   UNL     1       0.002  -0.004   0.002  0.00  0.00    +0.101 C 
ATOM     26  C   UNL     1       0.742  -0.511   1.242  0.00  0.00    +0.032 C 
ENDBRANCH  19  25
ENDBRANCH  15  22
ENDBRANCH   1  17
TORSDOF 4
