REMARK  Name = ZINC10055401
REMARK  12 active torsions:
REMARK  status: ('A' for Active; 'I' for Inactive)
REMARK    1  A    between atoms: C_1  and  C_2
REMARK    2  A    between atoms: N_10  and  C_14
REMARK    3  A    between atoms: C_14  and  C_15
REMARK    4  A    between atoms: C_15  and  O_17
REMARK    5  A    between atoms: O_17  and  C_18
REMARK    6  A    between atoms: C_18  and  C_20
REMARK    7  A    between atoms: C_18  and  C_21
REMARK    8  A    between atoms: C_21  and  C_23
REMARK    9  A    between atoms: C_26  and  C_29
REMARK   10  A    between atoms: C_29  and  C_30
REMARK   11  A    between atoms: C_29  and  C_31
REMARK   12  A    between atoms: C_29  and  C_32
REMARK                            x       y       z     vdW  Elec       q    Type
REMARK                         _______ _______ _______ _____ _____    ______ ____
ROOT
ATOM      1  C   UNL     1       2.029  -0.670   1.064  0.00  0.00    +0.326 C 
ATOM      2  O   UNL     1       2.583  -0.437   0.016  0.00  0.00    -0.249 OA
ENDROOT
BRANCH   1   3
ATOM      3  C   UNL     1       2.825  -1.167   2.243  0.00  0.00    +0.238 C 
BRANCH   3  13
ATOM      4  C   UNL     1      10.600  -1.260   0.359  0.00  0.00    +0.007 C 
ATOM      5  C   UNL     1       9.292  -0.660   0.880  0.00  0.00    -0.014 C 
ATOM      6  C   UNL     1       8.243  -0.679  -0.234  0.00  0.00    +0.006 C 
ATOM      7  C   UNL     1       6.939  -0.068   0.285  0.00  0.00    +0.035 C 
ATOM      8  C   UNL     1       6.443  -0.864   1.487  0.00  0.00    +0.113 C 
ATOM      9  C   UNL     1       7.489  -0.875   2.596  0.00  0.00    +0.035 C 
ATOM     10  C   UNL     1       8.791  -1.483   2.068  0.00  0.00    +0.006 C 
ATOM     11  C   UNL     1       5.140  -0.292   1.997  0.00  0.00    +0.247 C 
ATOM     12  O   UNL     1       4.949   0.823   2.431  0.00  0.00    -0.273 OA
ATOM     13  N   UNL     1       4.236  -1.284   1.866  0.00  0.00    -0.213 N 
ATOM     14  C   UNL     1       4.788  -2.391   1.354  0.00  0.00    +0.310 C 
ATOM     15  O   UNL     1       4.174  -3.419   1.147  0.00  0.00    -0.252 OA
ATOM     16  N   UNL     1       6.099  -2.236   1.090  0.00  0.00    -0.285 N 
ATOM     17  H   UNL     1       6.699  -2.900   0.716  0.00  0.00    +0.151 HD
ENDBRANCH   3  13
ENDBRANCH   1   3
BRANCH   1  18
ATOM     18  O   UNL     1       0.704  -0.485   1.178  0.00  0.00    -0.452 OA
BRANCH  18  19
ATOM     19  C   UNL     1       0.002  -0.004   0.002  0.00  0.00    +0.244 C 
ATOM     20  C   UNL     1      -0.019   1.526   0.010  0.00  0.00    +0.061 C 
BRANCH  19  21
ATOM     21  C   UNL     1      -1.412  -0.526   0.013  0.00  0.00    +0.203 C 
ATOM     22  O   UNL     1      -1.907  -0.912   1.050  0.00  0.00    -0.288 OA
BRANCH  21  23
ATOM     23  C   UNL     1      -2.191  -0.566  -1.235  0.00  0.00    +0.021 A 
ATOM     24  C   UNL     1      -1.624  -0.116  -2.432  0.00  0.00    +0.012 A 
ATOM     25  C   UNL     1      -2.359  -0.162  -3.598  0.00  0.00    +0.005 A 
ATOM     26  C   UNL     1      -3.657  -0.641  -3.584  0.00  0.00    -0.042 A 
ATOM     27  C   UNL     1      -4.226  -1.083  -2.403  0.00  0.00    +0.005 A 
ATOM     28  C   UNL     1      -3.503  -1.049  -1.230  0.00  0.00    +0.012 A 
BRANCH  26  29
ATOM     29  C   UNL     1      -4.455  -0.683  -4.862  0.00  0.00    -0.013 C 
ATOM     30  C   UNL     1      -5.709   0.179  -4.708  0.00  0.00    +0.015 C 
ATOM     31  C   UNL     1      -3.603  -0.143  -6.013  0.00  0.00    +0.015 C 
ATOM     32  C   UNL     1      -4.862  -2.127  -5.163  0.00  0.00    +0.015 C 
ENDBRANCH  26  29
ENDBRANCH  21  23
ENDBRANCH  19  21
ENDBRANCH  18  19
ENDBRANCH   1  18
TORSDOF 7
