REMARK  Name = ZINC36481531
REMARK  13 active torsions:
REMARK  status: ('A' for Active; 'I' for Inactive)
REMARK    1  A    between atoms: C_1  and  C_2
REMARK    2  A    between atoms: C_5  and  C_8
REMARK    3  A    between atoms: C_8  and  C_10
REMARK    4  A    between atoms: C_8  and  N_17
REMARK    5  A    between atoms: N_12  and  C_13
REMARK    6  A    between atoms: C_13  and  C_14
REMARK    7  A    between atoms: C_13  and  C_15
REMARK    8  A    between atoms: C_13  and  C_16
REMARK    9  A    between atoms: N_17  and  C_18
REMARK   10  A    between atoms: C_25  and  C_27
REMARK   11  A    between atoms: C_35  and  C_37
REMARK   12  A    between atoms: C_38  and  C_39
REMARK   13  A    between atoms: C_38  and  C_40
REMARK                            x       y       z     vdW  Elec       q    Type
REMARK                         _______ _______ _______ _____ _____    ______ ____
ROOT
ATOM      1  N   UNL     1      -0.678  -5.432   1.649  0.00  0.00    -0.255 N 
ATOM      2  C   UNL     1      -0.369  -6.583   1.018  0.00  0.00    +0.224 C 
ATOM      3  O   UNL     1      -0.240  -6.597  -0.188  0.00  0.00    -0.275 OA
ENDROOT
BRANCH   2   4
ATOM      4  C   UNL     1      -0.183  -7.860   1.817  0.00  0.00    +0.079 C 
ATOM      5  C   UNL     1       1.309  -8.126   1.976  0.00  0.00    +0.017 C 
ATOM      6  C   UNL     1       1.654  -9.613   1.906  0.00  0.00    -0.004 C 
ATOM      7  C   UNL     1       1.206 -10.232   0.565  0.00  0.00    +0.008 C 
ATOM      8  C   UNL     1      -0.179 -10.329   1.252  0.00  0.00    -0.001 C 
ATOM      9  C   UNL     1      -0.909  -8.995   1.105  0.00  0.00    +0.001 C 
ATOM     10  C   UNL     1      -2.354  -9.107   1.599  0.00  0.00    +0.008 C 
ATOM     11  C   UNL     1       0.602 -10.527   2.551  0.00  0.00    -0.029 C 
ATOM     12  C   UNL     1       1.101 -11.973   2.746  0.00  0.00    +0.011 C 
ATOM     13  C   UNL     1      -0.032  -9.996   3.833  0.00  0.00    +0.011 C 
ENDBRANCH   2   4
BRANCH   1  14
ATOM     14  C   UNL     1      -0.769  -5.402   3.045  0.00  0.00    +0.039 A 
ATOM     15  C   UNL     1       0.295  -4.928   3.801  0.00  0.00    +0.023 A 
ATOM     16  C   UNL     1       0.203  -4.900   5.179  0.00  0.00    +0.003 A 
ATOM     17  C   UNL     1      -0.947  -5.343   5.806  0.00  0.00    +0.020 A 
ATOM     18  C   UNL     1      -2.009  -5.816   5.056  0.00  0.00    +0.043 A 
ATOM     19  C   UNL     1      -1.925  -5.841   3.676  0.00  0.00    +0.043 A 
ATOM     20 CL   UNL     1      -3.451  -6.372   5.847  0.00  0.00    -0.083 Cl
ENDBRANCH   1  14
BRANCH   1  21
ATOM     21  C   UNL     1      -0.917  -4.213   0.873  0.00  0.00    +0.197 C 
BRANCH  21  26
ATOM     22  C   UNL     1      -5.807  -4.789  -2.153  0.00  0.00    +0.044 C 
ATOM     23  C   UNL     1      -4.532  -4.638  -1.364  0.00  0.00    -0.050 A 
ATOM     24  C   UNL     1      -3.398  -4.133  -1.972  0.00  0.00    +0.004 A 
ATOM     25  C   UNL     1      -2.228  -3.995  -1.248  0.00  0.00    +0.006 A 
ATOM     26  C   UNL     1      -2.193  -4.362   0.084  0.00  0.00    -0.018 A 
ATOM     27  C   UNL     1      -3.327  -4.867   0.692  0.00  0.00    +0.006 A 
ATOM     28  C   UNL     1      -4.497  -5.001  -0.031  0.00  0.00    +0.004 A 
ENDBRANCH  21  26
BRANCH  21  29
ATOM     29  C   UNL     1      -1.040  -3.038   1.808  0.00  0.00    +0.239 C 
ATOM     30  O   UNL     1      -1.643  -3.156   2.854  0.00  0.00    -0.273 OA
ATOM     31  N   UNL     1      -0.481  -1.856   1.483  0.00  0.00    -0.309 N 
ATOM     32  H   UNL     1       0.001  -1.761   0.646  0.00  0.00    +0.149 HD
BRANCH  31  33
ATOM     33  C   UNL     1      -0.600  -0.714   2.392  0.00  0.00    +0.026 C 
ATOM     34  C   UNL     1       0.036  -1.065   3.739  0.00  0.00    +0.031 C 
ATOM     35  C   UNL     1       0.118   0.495   1.790  0.00  0.00    +0.031 C 
ATOM     36  C   UNL     1      -2.079  -0.378   2.599  0.00  0.00    +0.031 C 
ENDBRANCH  31  33
ENDBRANCH  21  29
ENDBRANCH   1  21
TORSDOF 6
