REMARK  Name = ZINC42464823
REMARK  6 active torsions:
REMARK  status: ('A' for Active; 'I' for Inactive)
REMARK    1  A    between atoms: C_1  and  N_2
REMARK    2  A    between atoms: N_2  and  C_3
REMARK    3  A    between atoms: N_2  and  C_10
REMARK    4  A    between atoms: C_3  and  C_4
REMARK    5  A    between atoms: C_10  and  C_11
REMARK    6  A    between atoms: C_11  and  C_13
REMARK                            x       y       z     vdW  Elec       q    Type
REMARK                         _______ _______ _______ _____ _____    ______ ____
ROOT
ATOM      1  C   UNL     1      -1.376  -0.512   0.012  0.00  0.00    +0.002 C 
ENDROOT
BRANCH   1   3
ATOM      2  C   UNL     1      -0.018   1.465   0.010  0.00  0.00    -0.095 C 
ATOM      3  N   UNL     1       0.002  -0.004   0.002  0.00  0.00    +0.384 N 
ATOM      4  H   UNL     1       0.474  -0.330  -0.828  0.00  0.00    -0.082 HD
BRANCH   3   5
ATOM      5  C   UNL     1       0.713  -0.491   1.192  0.00  0.00    -0.047 C 
BRANCH   5   6
ATOM      6  C   UNL     1       2.180  -0.066   1.119  0.00  0.00    +0.102 C 
ATOM      7  C   UNL     1       2.957  -0.599   2.349  0.00  0.00    +0.032 C 
ATOM      8  C   UNL     1       4.404  -0.646   1.787  0.00  0.00    +0.030 C 
ATOM      9  C   UNL     1       4.169  -1.019   0.308  0.00  0.00    +0.160 C 
ATOM     10  O   UNL     1       2.818  -0.667  -0.019  0.00  0.00    -0.378 OA
ENDBRANCH   5   6
ENDBRANCH   3   5
ENDBRANCH   1   3
BRANCH   1  11
ATOM     11  C   UNL     1      -2.067  -0.116  -1.267  0.00  0.00    +0.149 C 
ATOM     12  O   UNL     1      -1.470   0.527  -2.105  0.00  0.00    -0.294 OA
BRANCH  11  13
ATOM     13  C   UNL     1      -3.457  -0.506  -1.498  0.00  0.00    +0.042 A 
ATOM     14  C   UNL     1      -4.204  -1.268  -0.521  0.00  0.00    +0.040 A 
ATOM     15  C   UNL     1      -5.475  -1.563  -0.857  0.00  0.00    +0.080 A 
ATOM     16  S   UNL     1      -5.655  -0.822  -2.465  0.00  0.00    -0.065 S 
ATOM     17  C   UNL     1      -4.125  -0.161  -2.659  0.00  0.00    +0.090 A 
ATOM     18 CL   UNL     1      -3.519   0.747  -4.008  0.00  0.00    -0.075 Cl
ATOM     19 CL   UNL     1      -6.653  -2.450   0.059  0.00  0.00    -0.076 Cl
ENDBRANCH  11  13
ENDBRANCH   1  11
TORSDOF 5
