REMARK  Name = ZINC67654010
REMARK  4 active torsions:
REMARK  status: ('A' for Active; 'I' for Inactive)
REMARK    1  A    between atoms: C_1  and  C_2
REMARK    2  A    between atoms: C_4  and  C_8
REMARK    3  A    between atoms: C_5  and  C_7
REMARK    4  A    between atoms: C_11  and  C_12
REMARK                            x       y       z     vdW  Elec       q    Type
REMARK                         _______ _______ _______ _____ _____    ______ ____
ROOT
ATOM      1  C   UNL     1      -1.365  -3.421   0.081  0.00  0.00    +0.235 C 
ATOM      2  N   UNL     1      -0.855  -4.623   0.085  0.00  0.00    -0.205 NA
ATOM      3  C   UNL     1      -1.866  -5.536   0.003  0.00  0.00    +0.153 C 
ATOM      4  C   UNL     1      -1.750  -6.917  -0.021  0.00  0.00    +0.053 C 
ATOM      5  C   UNL     1      -3.104  -4.747  -0.054  0.00  0.00    +0.364 C 
ATOM      6  O   UNL     1      -4.244  -5.168  -0.133  0.00  0.00    -0.243 OA
ATOM      7  O   UNL     1      -2.709  -3.457   0.005  0.00  0.00    -0.402 OA
ENDROOT
BRANCH   1  11
ATOM      8  C   UNL     1      -0.012   1.496   0.281  0.00  0.00    +0.086 C 
ATOM      9  C   UNL     1       0.007  -0.010   0.245  0.00  0.00    +0.103 A 
ATOM     10  C   UNL     1      -1.075  -0.801   0.164  0.00  0.00    +0.058 A 
ATOM     11  C   UNL     1      -0.570  -2.180   0.157  0.00  0.00    +0.078 A 
ATOM     12  C   UNL     1       0.787  -2.075   0.236  0.00  0.00    +0.114 A 
ATOM     13  O   UNL     1       1.108  -0.776   0.282  0.00  0.00    -0.464 OA
ATOM     14  C   UNL     1       1.760  -3.225   0.263  0.00  0.00    +0.087 C 
ENDBRANCH   1  11
BRANCH   4  15
ATOM     15  C   UNL     1      -2.899  -7.722   0.084  0.00  0.00    +0.054 A 
ATOM     16  C   UNL     1      -3.114  -9.034  -0.347  0.00  0.00    +0.145 A 
ATOM     17  N   UNL     1      -4.302  -9.531  -0.107  0.00  0.00    -0.216 NA
ATOM     18  C   UNL     1      -5.233  -8.832   0.503  0.00  0.00    +0.169 A 
ATOM     19  S   UNL     1      -4.487  -7.355   0.813  0.00  0.00    -0.055 S 
ATOM     20 CL   UNL     1      -6.851  -9.319   0.902  0.00  0.00    -0.054 Cl
ATOM     21 CL   UNL     1      -1.879  -9.951  -1.153  0.00  0.00    -0.061 Cl
ENDBRANCH   4  15
TORSDOF 2
