REMARK  Name = ZINC02732936
REMARK  11 active torsions:
REMARK  status: ('A' for Active; 'I' for Inactive)
REMARK    1  A    between atoms: C_1  and  C_2
REMARK    2  A    between atoms: C_2  and  N_3
REMARK    3  A    between atoms: C_4  and  C_22
REMARK    4  A    between atoms: C_5  and  C_17
REMARK    5  A    between atoms: C_6  and  C_11
REMARK    6  A    between atoms: C_17  and  O_19
REMARK    7  A    between atoms: O_19  and  C_20
REMARK    8  A    between atoms: C_20  and  C_21
REMARK    9  A    between atoms: C_22  and  N_68
REMARK   10  A    between atoms: N_25  and  C_28
REMARK   11  A    between atoms: C_33  and  C_34
REMARK                            x       y       z     vdW  Elec       q    Type
REMARK                         _______ _______ _______ _____ _____    ______ ____
ROOT
ATOM      1  N   UNL     1       3.546   2.015   0.241  0.00  0.00    -0.261 N 
ATOM      2  C   UNL     1       2.391   1.304   0.087  0.00  0.00    +0.010 C 
ATOM      3  C   UNL     1       1.218   1.926  -0.159  0.00  0.00    +0.076 C 
ATOM      4  C   UNL     1       1.229   3.437  -0.264  0.00  0.00    +0.143 C 
ATOM      5  N   UNL     1       2.526   4.109  -0.076  0.00  0.00    -0.288 N 
ATOM      6  C   UNL     1       3.613   3.350   0.164  0.00  0.00    +0.307 C 
ATOM      7  O   UNL     1       4.689   3.895   0.316  0.00  0.00    -0.252 OA
ATOM      8  H   UNL     1       2.596   5.075  -0.128  0.00  0.00    +0.151 HD
ENDROOT
BRANCH   4   9
ATOM      9  C   UNL     1       0.275   3.982   0.768  0.00  0.00    -0.023 A 
ATOM     10  C   UNL     1       0.669   4.081   2.089  0.00  0.00    +0.006 A 
ATOM     11  C   UNL     1      -0.204   4.584   3.035  0.00  0.00    +0.000 A 
ATOM     12  C   UNL     1      -1.475   4.980   2.661  0.00  0.00    +0.000 A 
ATOM     13  C   UNL     1      -1.871   4.877   1.341  0.00  0.00    +0.000 A 
ATOM     14  C   UNL     1      -0.996   4.377   0.394  0.00  0.00    +0.006 A 
ENDBRANCH   4   9
BRANCH   1  16
ATOM     15  C   UNL     1       5.461   0.924  -0.820  0.00  0.00    +0.025 C 
ATOM     16  C   UNL     1       4.783   1.276   0.506  0.00  0.00    +0.111 C 
ENDBRANCH   1  16
BRANCH   3  17
ATOM     17  C   UNL     1       0.020   1.190  -0.319  0.00  0.00    +0.339 C 
ATOM     18  O   UNL     1      -0.427   0.989  -1.433  0.00  0.00    -0.245 OA
BRANCH  17  19
ATOM     19  O   UNL     1      -0.631   0.717   0.765  0.00  0.00    -0.462 OA
BRANCH  19  20
ATOM     20  C   UNL     1      -1.837  -0.012   0.530  0.00  0.00    +0.229 C 
ATOM     21  C   UNL     1      -2.428  -0.465   1.866  0.00  0.00    +0.048 C 
ENDBRANCH  19  20
ENDBRANCH  17  19
ENDBRANCH   3  17
BRANCH   2  22
ATOM     22  C   UNL     1       2.425  -0.199   0.193  0.00  0.00    -0.026 C 
BRANCH  22  28
ATOM     23  C   UNL     1       2.460  -0.511  -2.208  0.00  0.00    -0.059 C 
ATOM     24  C   UNL     1       3.304  -1.032  -3.374  0.00  0.00    +0.086 C 
ATOM     25  N   UNL     1       3.564  -2.466  -3.185  0.00  0.00    -0.333 N 
ATOM     26  C   UNL     1       4.275  -2.708  -1.922  0.00  0.00    +0.086 C 
ATOM     27  C   UNL     1       3.430  -2.187  -0.757  0.00  0.00    -0.059 C 
ATOM     28  N   UNL     1       3.196  -0.741  -0.947  0.00  0.00    +0.385 N 
ATOM     29  H   UNL     1       4.101  -0.259  -0.997  0.00  0.00    -0.081 HD
BRANCH  25  30
ATOM     30  C   UNL     1       4.272  -2.992  -4.268  0.00  0.00    +0.034 A 
ATOM     31  C   UNL     1       5.558  -2.544  -4.543  0.00  0.00    +0.043 A 
ATOM     32  C   UNL     1       6.256  -3.067  -5.614  0.00  0.00    +0.043 A 
ATOM     33  C   UNL     1       5.676  -4.038  -6.412  0.00  0.00    +0.020 A 
ATOM     34  C   UNL     1       4.396  -4.486  -6.140  0.00  0.00    +0.006 A 
ATOM     35  C   UNL     1       3.695  -3.970  -5.068  0.00  0.00    -0.029 A 
ATOM     36  C   UNL     1       2.303  -4.464  -4.769  0.00  0.00    +0.045 C 
ATOM     37 CL   UNL     1       7.863  -2.507  -5.960  0.00  0.00    -0.083 Cl
ENDBRANCH  25  30
ENDBRANCH  22  28
ENDBRANCH   2  22
TORSDOF 8
