REMARK  Name = ZINC62506254
REMARK  7 active torsions:
REMARK  status: ('A' for Active; 'I' for Inactive)
REMARK    1  A    between atoms: C_1  and  C_2
REMARK    2  A    between atoms: C_2  and  C_3
REMARK    3  A    between atoms: C_2  and  C_20
REMARK    4  A    between atoms: C_2  and  O_27
REMARK    5  A    between atoms: C_3  and  N_4
REMARK    6  A    between atoms: C_5  and  C_7
REMARK    7  A    between atoms: N_12  and  C_14
REMARK                            x       y       z     vdW  Elec       q    Type
REMARK                         _______ _______ _______ _____ _____    ______ ____
ROOT
ATOM      1  N   UNL     1       2.077   0.091   1.294  0.00  0.00    -0.312 N 
ATOM      2  C   UNL     1       2.913  -0.212   2.306  0.00  0.00    +0.218 C 
ATOM      3  O   UNL     1       2.562  -0.983   3.174  0.00  0.00    -0.275 OA
ATOM      4  H   UNL     1       2.358   0.708   0.600  0.00  0.00    +0.149 HD
ENDROOT
BRANCH   2   5
ATOM      5  C   UNL     1       4.286   0.408   2.360  0.00  0.00    +0.101 C 
ATOM      6  C   UNL     1       4.195   1.940   2.545  0.00  0.00    +0.110 C 
ATOM      7  C   UNL     1       4.280   2.139   4.042  0.00  0.00    +0.217 C 
ATOM      8  O   UNL     1       3.970   3.155   4.627  0.00  0.00    -0.276 OA
ATOM      9  N   UNL     1       4.748   1.024   4.630  0.00  0.00    -0.298 N 
ATOM     10  C   UNL     1       5.036  -0.021   3.640  0.00  0.00    +0.121 C 
BRANCH   9  11
ATOM     11  C   UNL     1       4.946   0.873   6.074  0.00  0.00    +0.076 C 
ATOM     12  C   UNL     1       3.609   1.062   6.795  0.00  0.00    +0.022 C 
ATOM     13  C   UNL     1       3.816   0.903   8.302  0.00  0.00    +0.002 C 
ATOM     14  C   UNL     1       4.813   1.954   8.794  0.00  0.00    +0.000 C 
ATOM     15  C   UNL     1       6.150   1.765   8.073  0.00  0.00    +0.002 C 
ATOM     16  C   UNL     1       5.943   1.923   6.566  0.00  0.00    +0.022 C 
ENDBRANCH   9  11
ENDBRANCH   2   5
BRANCH   1  17
ATOM     17  C   UNL     1       0.742  -0.511   1.242  0.00  0.00    +0.143 C 
BRANCH  17  19
ATOM     18  C   UNL     1      -0.019   1.526   0.010  0.00  0.00    +0.048 C 
ATOM     19  C   UNL     1       0.002  -0.004   0.002  0.00  0.00    +0.103 C 
BRANCH  19  20
ATOM     20  C   UNL     1      -1.412  -0.526   0.013  0.00  0.00    -0.015 A 
ATOM     21  C   UNL     1      -2.050  -0.766   1.215  0.00  0.00    +0.008 A 
ATOM     22  C   UNL     1      -3.347  -1.244   1.225  0.00  0.00    +0.020 A 
ATOM     23  C   UNL     1      -4.006  -1.483   0.032  0.00  0.00    +0.041 A 
ATOM     24  C   UNL     1      -3.366  -1.242  -1.171  0.00  0.00    +0.020 A 
ATOM     25  C   UNL     1      -2.071  -0.758  -1.180  0.00  0.00    +0.008 A 
ATOM     26 CL   UNL     1      -5.634  -2.084   0.045  0.00  0.00    -0.084 Cl
ENDBRANCH  19  20
BRANCH  19  27
ATOM     27  O   UNL     1       0.671  -0.465  -1.174  0.00  0.00    -0.383 OA
ATOM     28  H   UNL     1       0.722  -1.428  -1.246  0.00  0.00    +0.211 HD
ENDBRANCH  19  27
ENDBRANCH  17  19
ENDBRANCH   1  17
TORSDOF 6
