REMARK  Name = ZINC10014489
REMARK  6 active torsions:
REMARK  status: ('A' for Active; 'I' for Inactive)
REMARK    1  A    between atoms: C_1  and  N_2
REMARK    2  A    between atoms: C_3  and  C_21
REMARK    3  A    between atoms: C_6  and  S_7
REMARK    4  A    between atoms: S_7  and  C_8
REMARK    5  A    between atoms: C_8  and  C_9
REMARK    6  A    between atoms: N_11  and  C_12
REMARK                            x       y       z     vdW  Elec       q    Type
REMARK                         _______ _______ _______ _____ _____    ______ ____
ROOT
ATOM      1  C   UNL     1       3.677   5.920  -0.510  0.00  0.00    +0.173 C 
ENDROOT
BRANCH   1   2
ATOM      2  C   UNL     1       2.370   5.180  -0.393  0.00  0.00    +0.228 C 
ATOM      3  O   UNL     1       1.328   5.744  -0.653  0.00  0.00    -0.275 OA
ATOM      4  N   UNL     1       2.358   3.890  -0.001  0.00  0.00    -0.282 N 
ATOM      5  H   UNL     1       3.182   3.461   0.277  0.00  0.00    +0.155 HD
BRANCH   4   6
ATOM      6  C   UNL     1       1.156   3.171   0.007  0.00  0.00    +0.071 A 
ATOM      7  C   UNL     1       0.749   2.485  -1.130  0.00  0.00    +0.065 A 
ATOM      8  C   UNL     1      -0.438   1.776  -1.120  0.00  0.00    +0.042 A 
ATOM      9  C   UNL     1      -1.223   1.755   0.019  0.00  0.00    +0.044 A 
ATOM     10  C   UNL     1      -0.818   2.433   1.155  0.00  0.00    +0.042 A 
ATOM     11  C   UNL     1       0.368   3.144   1.151  0.00  0.00    +0.065 A 
ATOM     12 CL   UNL     1       0.874   3.999   2.575  0.00  0.00    -0.082 Cl
ATOM     13 CL   UNL     1      -2.717   0.870   0.026  0.00  0.00    -0.083 Cl
ATOM     14 CL   UNL     1       1.729   2.517  -2.562  0.00  0.00    -0.082 Cl
ENDBRANCH   4   6
ENDBRANCH   1   2
BRANCH   1  15
ATOM     15  S   UNL     1       3.363   7.617  -1.055  0.00  0.00    -0.077 S 
BRANCH  15  21
ATOM     16  C   UNL     1       4.529  10.599  -1.881  0.00  0.00    +0.153 C 
ATOM     17  N   UNL     1       5.396   9.495  -1.464  0.00  0.00    -0.303 N 
ATOM     18  C   UNL     1       6.769   9.512  -1.349  0.00  0.00    +0.200 A 
ATOM     19  N   UNL     1       7.137   8.314  -0.953  0.00  0.00    -0.125 NA
ATOM     20  N   UNL     1       6.104   7.563  -0.809  0.00  0.00    -0.122 NA
ATOM     21  C   UNL     1       5.013   8.233  -1.105  0.00  0.00    +0.192 A 
BRANCH  18  22
ATOM     22  C   UNL     1       7.656  10.654  -1.624  0.00  0.00    +0.172 A 
ATOM     23  C   UNL     1       9.007  10.596  -1.787  0.00  0.00    +0.053 A 
ATOM     24  C   UNL     1       9.443  11.912  -2.032  0.00  0.00    +0.042 A 
ATOM     25  C   UNL     1       8.351  12.703  -1.999  0.00  0.00    +0.196 A 
ATOM     26  O   UNL     1       7.274  11.940  -1.752  0.00  0.00    -0.460 OA
ENDBRANCH  18  22
ENDBRANCH  15  21
ENDBRANCH   1  15
TORSDOF 5
