REMARK  Name = ZINC35058723
REMARK  16 active torsions:
REMARK  status: ('A' for Active; 'I' for Inactive)
REMARK    1  A    between atoms: C_1  and  C_2
REMARK    2  A    between atoms: C_2  and  C_3
REMARK    3  A    between atoms: C_3  and  C_5
REMARK    4  A    between atoms: C_3  and  N_23
REMARK    5  A    between atoms: N_15  and  C_16
REMARK    6  A    between atoms: C_19  and  C_22
REMARK    7  A    between atoms: N_23  and  C_24
REMARK    8  A    between atoms: C_24  and  C_25
REMARK    9  A    between atoms: C_31  and  C_33
REMARK   10  A    between atoms: C_33  and  C_34
REMARK   11  A    between atoms: C_34  and  C_36
REMARK   12  A    between atoms: C_34  and  C_37
REMARK   13  A    between atoms: C_37  and  C_38
REMARK   14  A    between atoms: C_38  and  C_39
REMARK   15  A    between atoms: C_38  and  C_40
REMARK   16  A    between atoms: C_38  and  C_41
REMARK                            x       y       z     vdW  Elec       q    Type
REMARK                         _______ _______ _______ _____ _____    ______ ____
ROOT
ATOM      1  C   UNL     1       1.505  -0.926  -0.605  0.00  0.00    +0.143 C 
ENDROOT
BRANCH   1   2
ATOM      2  C   UNL     1       1.397  -2.067   0.373  0.00  0.00    +0.138 A 
ATOM      3  N   UNL     1       0.988  -1.809   1.578  0.00  0.00    -0.231 NA
ATOM      4  C   UNL     1       0.866  -2.785   2.512  0.00  0.00    +0.078 A 
ATOM      5  C   UNL     1       0.426  -2.508   3.808  0.00  0.00    +0.028 A 
ATOM      6  C   UNL     1       0.317  -3.530   4.724  0.00  0.00    +0.002 A 
ATOM      7  C   UNL     1       0.639  -4.835   4.377  0.00  0.00    +0.001 A 
ATOM      8  C   UNL     1       1.076  -5.134   3.105  0.00  0.00    +0.015 A 
ATOM      9  C   UNL     1       1.193  -4.114   2.162  0.00  0.00    +0.065 A 
ATOM     10  C   UNL     1       1.652  -4.373   0.790  0.00  0.00    +0.266 A 
ATOM     11  O   UNL     1       1.950  -5.496   0.424  0.00  0.00    -0.267 OA
ATOM     12  N   UNL     1       1.727  -3.317  -0.053  0.00  0.00    -0.263 N 
BRANCH  12  13
ATOM     13  C   UNL     1       2.154  -3.510  -1.373  0.00  0.00    +0.051 A 
ATOM     14  C   UNL     1       3.332  -2.922  -1.816  0.00  0.00    +0.026 A 
ATOM     15  C   UNL     1       3.750  -3.115  -3.118  0.00  0.00    +0.005 A 
ATOM     16  C   UNL     1       2.998  -3.892  -3.979  0.00  0.00    -0.050 A 
ATOM     17  C   UNL     1       1.825  -4.479  -3.541  0.00  0.00    +0.005 A 
ATOM     18  C   UNL     1       1.404  -4.294  -2.239  0.00  0.00    +0.026 A 
ATOM     19  C   UNL     1       3.458  -4.100  -5.400  0.00  0.00    +0.044 C 
ENDBRANCH  12  13
ENDBRANCH   1   2
BRANCH   1  20
ATOM     20  N   UNL     1       0.355  -0.951  -1.513  0.00  0.00    -0.287 N 
ATOM     21  C   UNL     1       0.549  -0.928  -2.847  0.00  0.00    +0.217 C 
ATOM     22  O   UNL     1       1.675  -0.961  -3.297  0.00  0.00    -0.276 OA
BRANCH  20  23
ATOM     23  C   UNL     1      -1.005  -1.002  -0.972  0.00  0.00    +0.143 C 
BRANCH  23  24
ATOM     24  C   UNL     1      -1.383  -2.434  -0.695  0.00  0.00    -0.030 A 
ATOM     25  C   UNL     1      -1.835  -3.241  -1.722  0.00  0.00    +0.005 A 
ATOM     26  C   UNL     1      -2.181  -4.554  -1.468  0.00  0.00    +0.000 A 
ATOM     27  C   UNL     1      -2.076  -5.062  -0.186  0.00  0.00    +0.000 A 
ATOM     28  C   UNL     1      -1.623  -4.255   0.841  0.00  0.00    +0.000 A 
ATOM     29  C   UNL     1      -1.272  -2.942   0.586  0.00  0.00    +0.005 A 
ENDBRANCH  23  24
ENDBRANCH  20  23
BRANCH  21  30
ATOM     30  C   UNL     1      -0.633  -0.861  -3.779  0.00  0.00    +0.099 C 
BRANCH  30  31
ATOM     31  C   UNL     1      -0.142  -0.888  -5.228  0.00  0.00    -0.005 C 
ATOM     32  C   UNL     1       0.490  -2.249  -5.527  0.00  0.00    +0.008 C 
BRANCH  31  33
ATOM     33  C   UNL     1      -1.324  -0.656  -6.172  0.00  0.00    +0.010 C 
BRANCH  33  34
ATOM     34  C   UNL     1      -0.805  -0.194  -7.535  0.00  0.00    -0.037 C 
ATOM     35  C   UNL     1       0.086  -1.283  -8.136  0.00  0.00    +0.010 C 
ATOM     36  C   UNL     1      -1.988   0.069  -8.468  0.00  0.00    +0.010 C 
ATOM     37  C   UNL     1       0.006   1.092  -7.364  0.00  0.00    +0.010 C 
ENDBRANCH  33  34
ENDBRANCH  31  33
ENDBRANCH  30  31
ENDBRANCH  21  30
ENDBRANCH   1  20
BRANCH   1  39
ATOM     38  C   UNL     1       1.708   1.554  -0.830  0.00  0.00    +0.006 C 
ATOM     39  C   UNL     1       1.523   0.400   0.158  0.00  0.00    +0.027 C 
ENDBRANCH   1  39
TORSDOF 10
