REMARK  Name = ZINC38685731
REMARK  10 active torsions:
REMARK  status: ('A' for Active; 'I' for Inactive)
REMARK    1  A    between atoms: C_1  and  C_2
REMARK    2  A    between atoms: C_2  and  O_3
REMARK    3  A    between atoms: O_3  and  C_4
REMARK    4  A    between atoms: C_7  and  C_10
REMARK    5  A    between atoms: C_15  and  O_24
REMARK    6  A    between atoms: C_19  and  N_23
REMARK    7  A    between atoms: C_20  and  C_21
REMARK    8  A    between atoms: O_24  and  C_25
REMARK    9  A    between atoms: C_25  and  C_27
REMARK   10  A    between atoms: C_28  and  C_29
REMARK                            x       y       z     vdW  Elec       q    Type
REMARK                         _______ _______ _______ _____ _____    ______ ____
ROOT
ATOM      1  C   UNL     1      -1.945  -6.113   0.016  0.00  0.00    +0.098 C 
ATOM      2  C   UNL     1      -2.712  -6.525   1.244  0.00  0.00    +0.008 A 
ATOM      3  C   UNL     1      -2.044  -6.662   2.449  0.00  0.00    +0.012 A 
ATOM      4  C   UNL     1      -2.731  -7.040   3.586  0.00  0.00    +0.047 A 
ATOM      5  C   UNL     1      -4.096  -7.282   3.523  0.00  0.00    +0.135 A 
ATOM      6  C   UNL     1      -4.767  -7.145   2.319  0.00  0.00    +0.093 A 
ATOM      7  C   UNL     1      -4.075  -6.765   1.176  0.00  0.00    +0.138 A 
ATOM      8  O   UNL     1      -4.746  -6.636   0.006  0.00  0.00    -0.441 OA
ATOM      9  C   UNL     1      -4.075  -6.656  -1.158  0.00  0.00    +0.199 C 
ATOM     10  C   UNL     1      -2.747  -6.415  -1.219  0.00  0.00    +0.098 C 
ENDROOT
BRANCH   1  14
ATOM     11  C   UNL     1      -1.139  -1.920   0.189  0.00  0.00    +0.121 A 
ATOM     12  C   UNL     1      -0.091  -2.827   0.133  0.00  0.00    +0.046 A 
ATOM     13  C   UNL     1      -0.354  -4.182   0.077  0.00  0.00    +0.008 A 
ATOM     14  C   UNL     1      -1.661  -4.634   0.077  0.00  0.00    -0.034 A 
ATOM     15  C   UNL     1      -2.707  -3.732   0.132  0.00  0.00    +0.008 A 
ATOM     16  C   UNL     1      -2.449  -2.376   0.194  0.00  0.00    +0.046 A 
BRANCH  11  17
ATOM     17  O   UNL     1      -0.883  -0.586   0.244  0.00  0.00    -0.492 OA
BRANCH  17  19
ATOM     18  C   UNL     1       0.578   1.338   0.302  0.00  0.00    +0.048 C 
ATOM     19  C   UNL     1       0.489  -0.188   0.235  0.00  0.00    +0.225 C 
ENDBRANCH  17  19
ENDBRANCH  11  17
ENDBRANCH   1  14
BRANCH   9  20
ATOM     20  N   UNL     1      -4.758  -6.927  -2.317  0.00  0.00    -0.328 N 
ATOM     21  H   UNL     1      -5.712  -7.101  -2.288  0.00  0.00    +0.145 HD
ATOM     22  H   UNL     1      -4.287  -6.945  -3.165  0.00  0.00    +0.145 HD
ENDBRANCH   9  20
BRANCH  10  23
ATOM     23  C   UNL     1      -2.090  -6.450  -2.491  0.00  0.00    +0.101 C 
ATOM     24  N   UNL     1      -1.569  -6.478  -3.500  0.00  0.00    -0.191 NA
ENDBRANCH  10  23
BRANCH   5  25
ATOM     25  O   UNL     1      -4.773  -7.655   4.641  0.00  0.00    -0.423 OA
BRANCH  25  26
ATOM     26  C   UNL     1      -4.933  -6.739   5.619  0.00  0.00    +0.337 C 
ATOM     27  O   UNL     1      -4.569  -5.592   5.444  0.00  0.00    -0.245 OA
BRANCH  26  28
ATOM     28  C   UNL     1      -5.542  -7.126   6.890  0.00  0.00    +0.092 C 
ATOM     29  C   UNL     1      -5.701  -6.210   7.869  0.00  0.00    +0.016 C 
BRANCH  29  30
ATOM     30  C   UNL     1      -6.314  -6.600   9.148  0.00  0.00    -0.006 A 
ATOM     31  C   UNL     1      -6.728  -7.920   9.356  0.00  0.00    +0.011 A 
ATOM     32  C   UNL     1      -7.301  -8.278  10.557  0.00  0.00    +0.020 A 
ATOM     33  C   UNL     1      -7.468  -7.334  11.558  0.00  0.00    +0.042 A 
ATOM     34  C   UNL     1      -7.062  -6.025  11.360  0.00  0.00    +0.040 A 
ATOM     35  C   UNL     1      -6.481  -5.653  10.165  0.00  0.00    +0.049 A 
ATOM     36 CL   UNL     1      -5.966  -4.013   9.921  0.00  0.00    -0.083 Cl
ATOM     37 CL   UNL     1      -8.191  -7.796  13.067  0.00  0.00    -0.083 Cl
ENDBRANCH  29  30
ENDBRANCH  26  28
ENDBRANCH  25  26
ENDBRANCH   5  25
TORSDOF 9
