REMARK  Name = ZINC20477718
REMARK  8 active torsions:
REMARK  status: ('A' for Active; 'I' for Inactive)
REMARK    1  A    between atoms: C_1  and  C_2
REMARK    2  A    between atoms: N_5  and  C_7
REMARK    3  A    between atoms: C_15  and  N_30
REMARK    4  A    between atoms: C_17  and  C_28
REMARK    5  A    between atoms: C_18  and  C_19
REMARK    6  A    between atoms: C_22  and  O_27
REMARK    7  A    between atoms: C_23  and  O_25
REMARK    8  A    between atoms: O_25  and  C_26
REMARK                            x       y       z     vdW  Elec       q    Type
REMARK                         _______ _______ _______ _____ _____    ______ ____
ROOT
ATOM      1  C   UNL     1       1.296  -2.992  -3.072  0.00  0.00    +0.068 C 
ATOM      2  C   UNL     1       2.448  -3.761  -2.478  0.00  0.00    +0.072 A 
ATOM      3  C   UNL     1       2.929  -3.644  -1.174  0.00  0.00    +0.068 A 
ATOM      4  C   UNL     1       4.003  -4.532  -1.036  0.00  0.00    +0.228 A 
ATOM      5  N   UNL     1       4.150  -5.152  -2.212  0.00  0.00    -0.200 N 
ATOM      6  N   UNL     1       3.176  -4.660  -3.096  0.00  0.00    -0.168 NA
ATOM      7  O   UNL     1       4.675  -4.635   0.134  0.00  0.00    -0.452 OA
ATOM      8  C   UNL     1       4.734  -3.454   0.937  0.00  0.00    +0.284 C 
ATOM      9  C   UNL     1       3.416  -2.737   1.014  0.00  0.00    +0.093 C 
ATOM     10  C   UNL     1       2.510  -2.802  -0.037  0.00  0.00    +0.014 C 
ENDROOT
BRANCH   5  11
ATOM     11  C   UNL     1       5.112  -6.126  -2.511  0.00  0.00    +0.069 A 
ATOM     12  C   UNL     1       6.381  -6.044  -1.954  0.00  0.00    +0.029 A 
ATOM     13  C   UNL     1       7.326  -7.008  -2.247  0.00  0.00    +0.017 A 
ATOM     14  C   UNL     1       7.012  -8.049  -3.102  0.00  0.00    +0.018 A 
ATOM     15  C   UNL     1       5.750  -8.130  -3.663  0.00  0.00    +0.017 A 
ATOM     16  C   UNL     1       4.800  -7.172  -3.369  0.00  0.00    +0.029 A 
ATOM     17 BR   UNL     1       8.310  -9.364  -3.506  0.00  0.00    -0.050 Br
ENDBRANCH   5  11
BRANCH  10  18
ATOM     18  C   UNL     1       1.223  -2.075  -0.020  0.00  0.00    -0.012 A 
ATOM     19  C   UNL     1       0.020  -2.784  -0.012  0.00  0.00    +0.012 A 
ATOM     20  C   UNL     1      -1.180  -2.105   0.003  0.00  0.00    +0.050 A 
ATOM     21  C   UNL     1      -1.195  -0.717   0.015  0.00  0.00    +0.158 A 
ATOM     22  C   UNL     1       0.002  -0.004   0.002  0.00  0.00    +0.162 A 
ATOM     23  C   UNL     1       1.208  -0.679  -0.013  0.00  0.00    +0.058 A 
BRANCH  22  24
ATOM     24  O   UNL     1      -0.016   1.356   0.009  0.00  0.00    -0.491 OA
ATOM     25  C   UNL     1       1.248   2.022   0.001  0.00  0.00    +0.277 C 
ENDBRANCH  22  24
BRANCH  21  26
ATOM     26  O   UNL     1      -2.380  -0.053   0.035  0.00  0.00    -0.503 OA
ATOM     27  H   UNL     1      -2.394   1.047   0.045  0.00  0.00    +0.292 HD
ENDBRANCH  21  26
ENDBRANCH  10  18
BRANCH   8  28
ATOM     28  N   UNL     1       5.732  -2.540   0.364  0.00  0.00    -0.292 NA
ATOM     29  H   UNL     1       5.786  -1.627   0.975  0.00  0.00    +0.122 HD
ATOM     30  H   UNL     1       6.716  -3.032   0.352  0.00  0.00    +0.122 HD
ENDBRANCH   8  28
BRANCH   9  31
ATOM     31  C   UNL     1       3.087  -1.984   2.187  0.00  0.00    +0.101 C 
ATOM     32  N   UNL     1       2.827  -1.387   3.118  0.00  0.00    -0.191 NA
ENDBRANCH   9  31
TORSDOF 6
