REMARK  Name = ZINC05748895
REMARK  8 active torsions:
REMARK  status: ('A' for Active; 'I' for Inactive)
REMARK    1  A    between atoms: C_1  and  N_2
REMARK    2  A    between atoms: N_2  and  C_3
REMARK    3  A    between atoms: N_2  and  C_4
REMARK    4  A    between atoms: C_4  and  C_5
REMARK    5  A    between atoms: C_5  and  C_6
REMARK    6  A    between atoms: C_11  and  O_25
REMARK    7  A    between atoms: C_16  and  O_24
REMARK    8  A    between atoms: O_25  and  C_26
REMARK                            x       y       z     vdW  Elec       q    Type
REMARK                         _______ _______ _______ _____ _____    ______ ____
ROOT
ATOM      1  C   UNL     1       2.903  -0.652  -2.352  0.00  0.00    +0.047 C 
ATOM      2  C   UNL     1       2.704   0.144  -3.621  0.00  0.00    +0.016 A 
ATOM      3  C   UNL     1       2.022  -0.357  -4.716  0.00  0.00    -0.018 A 
ATOM      4  C   UNL     1       1.903   0.580  -5.745  0.00  0.00    +0.012 A 
ATOM      5  C   UNL     1       2.569   1.792  -5.641  0.00  0.00    +0.050 A 
ATOM      6  C   UNL     1       3.427   2.152  -4.597  0.00  0.00    +0.162 A 
ATOM      7  C   UNL     1       3.555   1.245  -3.547  0.00  0.00    +0.167 A 
ATOM      8  O   UNL     1       4.432   1.044  -2.517  0.00  0.00    -0.481 OA
ATOM      9  C   UNL     1       4.426  -0.370  -2.309  0.00  0.00    +0.217 C 
ATOM     10  C   UNL     1       5.025  -1.046  -1.119  0.00  0.00    +0.178 C 
ATOM     11  C   UNL     1       4.814  -2.537  -1.360  0.00  0.00    +0.004 C 
ATOM     12  C   UNL     1       3.757  -2.965  -2.005  0.00  0.00    -0.020 C 
ATOM     13  C   UNL     1       2.649  -2.145  -2.491  0.00  0.00    +0.048 C 
ATOM     14  C   UNL     1       1.957  -2.630  -3.727  0.00  0.00    -0.018 C 
ATOM     15  C   UNL     1       1.632  -1.769  -4.735  0.00  0.00    +0.005 C 
ENDROOT
BRANCH  10  16
ATOM     16  O   UNL     1       6.420  -0.748  -1.030  0.00  0.00    -0.384 OA
ATOM     17  H   UNL     1       6.862  -1.160  -0.275  0.00  0.00    +0.210 HD
ENDBRANCH  10  16
BRANCH   6  18
ATOM     18  O   UNL     1       4.105   3.331  -4.606  0.00  0.00    -0.491 OA
ATOM     19  C   UNL     1       3.901   4.187  -5.732  0.00  0.00    +0.277 C 
ENDBRANCH   6  18
BRANCH   1  20
ATOM     20  C   UNL     1       2.159  -0.053  -1.157  0.00  0.00    -0.002 C 
BRANCH  20  21
ATOM     21  C   UNL     1       0.653  -0.244  -1.347  0.00  0.00    -0.079 C 
BRANCH  21  23
ATOM     22  C   UNL     1       0.139   1.702  -0.041  0.00  0.00    -0.097 C 
ATOM     23  N   UNL     1      -0.057   0.251  -0.159  0.00  0.00    +0.376 N 
ATOM     24  C   UNL     1      -1.491  -0.041  -0.289  0.00  0.00    -0.097 C 
ATOM     25  H   UNL     1       0.306  -0.206   0.664  0.00  0.00    -0.083 HD
ENDBRANCH  21  23
ENDBRANCH  20  21
ENDBRANCH   1  20
TORSDOF 5
