REMARK  Name = ZINC21253121
REMARK  8 active torsions:
REMARK  status: ('A' for Active; 'I' for Inactive)
REMARK    1  A    between atoms: C_1  and  C_2
REMARK    2  A    between atoms: C_2  and  C_3
REMARK    3  A    between atoms: C_2  and  O_4
REMARK    4  A    between atoms: O_4  and  C_5
REMARK    5  A    between atoms: C_8  and  C_11
REMARK    6  A    between atoms: C_16  and  C_26
REMARK    7  A    between atoms: C_29  and  O_33
REMARK    8  A    between atoms: O_33  and  C_34
REMARK                            x       y       z     vdW  Elec       q    Type
REMARK                         _______ _______ _______ _____ _____    ______ ____
ROOT
ATOM      1  C   UNL     1      -3.572   6.872   0.864  0.00  0.00    +0.032 C 
ATOM      2  C   UNL     1      -2.753   8.046   0.330  0.00  0.00    +0.059 C 
ATOM      3  C   UNL     1      -3.654   9.250   0.113  0.00  0.00    +0.017 C 
ATOM      4  C   UNL     1      -4.937   9.085  -0.250  0.00  0.00    +0.036 C 
ATOM      5  C   UNL     1      -5.936  10.188  -0.501  0.00  0.00    +0.136 C 
ATOM      6  N   UNL     1      -5.360  11.514  -0.581  0.00  0.00    -0.331 N 
ATOM      7  C   UNL     1      -4.743  12.097   0.524  0.00  0.00    +0.049 A 
ATOM      8  C   UNL     1      -5.259  13.234   1.126  0.00  0.00    +0.025 A 
ATOM      9  C   UNL     1      -4.638  13.750   2.250  0.00  0.00    +0.002 A 
ATOM     10  C   UNL     1      -3.514  13.136   2.773  0.00  0.00    +0.002 A 
ATOM     11  C   UNL     1      -2.986  12.010   2.164  0.00  0.00    +0.025 A 
ATOM     12  C   UNL     1      -3.593  11.507   1.027  0.00  0.00    +0.052 A 
ATOM     13  N   UNL     1      -3.052  10.452   0.302  0.00  0.00    -0.316 N 
ATOM     14  C   UNL     1      -5.468   7.784  -0.416  0.00  0.00    +0.163 C 
ATOM     15  O   UNL     1      -6.625   7.664  -0.769  0.00  0.00    -0.292 OA
ATOM     16  C   UNL     1      -4.655   6.548  -0.173  0.00  0.00    +0.088 C 
ATOM     17  H   UNL     1      -5.404  12.077  -1.526  0.00  0.00    +0.147 HD
ATOM     18  H   UNL     1      -2.061  10.646  -0.135  0.00  0.00    +0.152 HD
ENDROOT
BRANCH   5  19
ATOM     19  C   UNL     1      -6.951  10.176   0.613  0.00  0.00    -0.021 A 
ATOM     20  C   UNL     1      -6.545  10.372   1.920  0.00  0.00    +0.009 A 
ATOM     21  C   UNL     1      -7.474  10.366   2.942  0.00  0.00    +0.047 A 
ATOM     22  C   UNL     1      -8.815  10.153   2.658  0.00  0.00    +0.138 A 
ATOM     23  C   UNL     1      -9.220   9.952   1.346  0.00  0.00    +0.083 A 
ATOM     24  C   UNL     1      -8.287   9.964   0.326  0.00  0.00    +0.029 A 
ATOM     25 CL   UNL     1     -10.898   9.686   0.986  0.00  0.00    -0.080 Cl
BRANCH  22  26
ATOM     26  O   UNL     1      -9.730  10.141   3.663  0.00  0.00    -0.494 OA
ATOM     27  C   UNL     1      -9.241  10.355   4.989  0.00  0.00    +0.277 C 
ENDBRANCH  22  26
ENDBRANCH   5  19
BRANCH   1  31
ATOM     28  C   UNL     1      -1.041   3.474   1.424  0.00  0.00    +0.121 A 
ATOM     29  C   UNL     1      -1.160   4.053   0.169  0.00  0.00    +0.046 A 
ATOM     30  C   UNL     1      -1.983   5.148  -0.011  0.00  0.00    +0.007 A 
ATOM     31  C   UNL     1      -2.680   5.674   1.061  0.00  0.00    -0.043 A 
ATOM     32  C   UNL     1      -2.559   5.102   2.314  0.00  0.00    +0.007 A 
ATOM     33  C   UNL     1      -1.741   4.004   2.498  0.00  0.00    +0.046 A 
BRANCH  28  34
ATOM     34  O   UNL     1      -0.236   2.394   1.602  0.00  0.00    -0.489 OA
BRANCH  34  36
ATOM     35  C   UNL     1       1.265   1.177   3.054  0.00  0.00    +0.051 C 
ATOM     36  C   UNL     1      -0.064   1.927   2.942  0.00  0.00    +0.167 C 
ATOM     37  C   UNL     1      -1.213   0.986   3.306  0.00  0.00    +0.051 C 
ENDBRANCH  34  36
ENDBRANCH  28  34
ENDBRANCH   1  31
TORSDOF 5
