REMARK  Name = ZINC39464250
REMARK  6 active torsions:
REMARK  status: ('A' for Active; 'I' for Inactive)
REMARK    1  A    between atoms: C_4  and  C_7
REMARK    2  A    between atoms: C_7  and  C_8
REMARK    3  A    between atoms: C_13  and  C_14
REMARK    4  A    between atoms: C_19  and  O_20
REMARK    5  A    between atoms: P_25  and  C_31
REMARK    6  A    between atoms: C_36  and  O_37
REMARK                            x       y       z     vdW  Elec       q    Type
REMARK                         _______ _______ _______ _____ _____    ______ ____
ROOT
ATOM      1  C   UNL     1       4.164  -0.959   1.377  0.00  0.00    -0.035 A 
ATOM      2  C   UNL     1       5.033  -0.084   1.993  0.00  0.00    +0.008 A 
ATOM      3  C   UNL     1       5.455  -0.310   3.295  0.00  0.00    -0.041 A 
ATOM      4  C   UNL     1       5.008  -1.417   3.987  0.00  0.00    -0.023 A 
ATOM      5  C   UNL     1       4.134  -2.301   3.376  0.00  0.00    +0.014 A 
ATOM      6  C   UNL     1       3.703  -2.076   2.072  0.00  0.00    -0.011 A 
ATOM      7  C   UNL     1       5.439  -1.706   5.401  0.00  0.00    +0.129 C 
ATOM      8  C   UNL     1       4.224  -2.168   6.209  0.00  0.00    +0.194 C 
ATOM      9  O   UNL     1       4.665  -2.555   7.526  0.00  0.00    -0.311 OA
ATOM     10  P   UNL     1       5.611  -1.524   8.355  0.00  0.00    +0.318 P 
ATOM     11  O   UNL     1       6.397  -2.257   9.372  0.00  0.00    -0.266 OA
ATOM     12  N   UNL     1       6.620  -0.846   7.234  0.00  0.00    -0.175 NA
ATOM     13  N   UNL     1       6.044  -0.527   6.020  0.00  0.00    -0.225 NA
ATOM     14  C   UNL     1       7.066   0.062   5.142  0.00  0.00    +0.108 C 
ATOM     15  C   UNL     1       6.404   0.679   3.924  0.00  0.00    +0.052 C 
ATOM     16  H   UNL     1       7.555  -0.676   7.426  0.00  0.00    +0.151 HD
ENDROOT
BRANCH   6  17
ATOM     17  C   UNL     1       2.763  -3.022   1.423  0.00  0.00    +0.024 A 
ATOM     18  C   UNL     1       1.466  -3.165   1.911  0.00  0.00    +0.012 A 
ATOM     19  C   UNL     1       0.595  -4.047   1.304  0.00  0.00    +0.001 A 
ATOM     20  C   UNL     1       1.005  -4.790   0.211  0.00  0.00    +0.004 A 
ATOM     21  C   UNL     1       2.289  -4.656  -0.281  0.00  0.00    +0.046 A 
ATOM     22  C   UNL     1       3.172  -3.770   0.315  0.00  0.00    +0.125 A 
BRANCH  22  23
ATOM     23  O   UNL     1       4.433  -3.632  -0.172  0.00  0.00    -0.506 OA
ATOM     24  H   UNL     1       5.076  -4.237   0.225  0.00  0.00    +0.292 HD
ENDBRANCH  22  23
ENDBRANCH   6  17
BRANCH  10  25
ATOM     25  C   UNL     1       4.599  -0.245   9.148  0.00  0.00    +0.094 A 
ATOM     26  C   UNL     1       4.314   0.927   8.475  0.00  0.00    +0.018 A 
ATOM     27  C   UNL     1       3.543   1.903   9.079  0.00  0.00    +0.001 A 
ATOM     28  C   UNL     1       3.056   1.708  10.359  0.00  0.00    +0.004 A 
ATOM     29  C   UNL     1       3.338   0.538  11.036  0.00  0.00    +0.046 A 
ATOM     30  C   UNL     1       4.107  -0.445  10.430  0.00  0.00    +0.131 A 
BRANCH  30  31
ATOM     31  O   UNL     1       4.381  -1.600  11.092  0.00  0.00    -0.506 OA
ATOM     32  H   UNL     1       5.190  -1.567  11.621  0.00  0.00    +0.292 HD
ENDBRANCH  30  31
ENDBRANCH  10  25
BRANCH   1  33
ATOM     33  C   UNL     1       3.711  -0.707  -0.038  0.00  0.00    +0.070 C 
BRANCH  33  37
ATOM     34  C   UNL     1      -0.017   1.378   0.010  0.00  0.00    +0.000 A 
ATOM     35  C   UNL     1       1.171   2.086   0.002  0.00  0.00    +0.000 A 
ATOM     36  C   UNL     1       2.377   1.411  -0.013  0.00  0.00    +0.004 A 
ATOM     37  C   UNL     1       2.396   0.029  -0.020  0.00  0.00    -0.043 A 
ATOM     38  C   UNL     1       1.208  -0.679  -0.012  0.00  0.00    +0.004 A 
ATOM     39  C   UNL     1       0.002  -0.004   0.002  0.00  0.00    +0.000 A 
ENDBRANCH  33  37
ENDBRANCH   1  33
TORSDOF 6
