REMARK  Name = ZINC62964492
REMARK  7 active torsions:
REMARK  status: ('A' for Active; 'I' for Inactive)
REMARK    1  A    between atoms: C_1  and  N_2
REMARK    2  A    between atoms: N_2  and  C_3
REMARK    3  A    between atoms: N_2  and  C_4
REMARK    4  A    between atoms: N_8  and  C_10
REMARK    5  A    between atoms: C_10  and  C_12
REMARK    6  A    between atoms: C_10  and  C_14
REMARK    7  A    between atoms: C_12  and  N_13
REMARK                            x       y       z     vdW  Elec       q    Type
REMARK                         _______ _______ _______ _____ _____    ______ ____
ROOT
ATOM      1  C   UNL     1      -3.437  -3.333  -0.257  0.00  0.00    +0.072 C 
ENDROOT
BRANCH   1   2
ATOM      2  C   UNL     1      -2.800  -4.628   0.176  0.00  0.00    +0.003 A 
ATOM      3  C   UNL     1      -1.656  -5.081  -0.455  0.00  0.00    +0.009 A 
ATOM      4  C   UNL     1      -1.071  -6.269  -0.058  0.00  0.00    +0.016 A 
ATOM      5  C   UNL     1      -1.629  -7.006   0.971  0.00  0.00    +0.021 A 
ATOM      6  C   UNL     1      -2.773  -6.555   1.603  0.00  0.00    +0.054 A 
ATOM      7  C   UNL     1      -3.356  -5.362   1.210  0.00  0.00    +0.129 A 
ATOM      8  F   UNL     1      -4.471  -4.918   1.830  0.00  0.00    -0.205 F 
ATOM      9 BR   UNL     1      -0.828  -8.631   1.513  0.00  0.00    -0.050 Br
ENDBRANCH   1   2
BRANCH   1  13
ATOM     10  C   UNL     1      -1.288  -0.561  -0.167  0.00  0.00    -0.054 C 
ATOM     11  C   UNL     1      -1.984  -0.232  -1.513  0.00  0.00    +0.001 C 
ATOM     12  C   UNL     1      -3.085  -1.320  -1.570  0.00  0.00    +0.083 C 
ATOM     13  N   UNL     1      -2.454  -2.526  -0.993  0.00  0.00    -0.299 NA
ATOM     14  C   UNL     1      -1.352  -2.102  -0.105  0.00  0.00    +0.070 C 
BRANCH  10  16
ATOM     15  C   UNL     1       0.138   1.364  -0.294  0.00  0.00    -0.096 C 
ATOM     16  N   UNL     1       0.107  -0.100  -0.177  0.00  0.00    +0.379 N 
ATOM     17  C   UNL     1       0.766  -0.505   1.072  0.00  0.00    -0.096 C 
ATOM     18  H   UNL     1       0.591  -0.510  -0.961  0.00  0.00    -0.082 HD
ENDBRANCH  10  16
ENDBRANCH   1  13
BRANCH   1  19
ATOM     19  C   UNL     1      -4.633  -3.631  -1.164  0.00  0.00    -0.062 C 
BRANCH  19  20
ATOM     20  N   UNL     1      -4.162  -4.269  -2.401  0.00  0.00    +0.379 N 
ATOM     21  H   UNL     1      -4.939  -4.387  -3.035  0.00  0.00    -0.090 HD
ATOM     22  H   UNL     1      -3.460  -3.688  -2.833  0.00  0.00    -0.090 HD
ATOM     23  H   UNL     1      -3.765  -5.171  -2.184  0.00  0.00    -0.090 HD
ENDBRANCH  19  20
ENDBRANCH   1  19
TORSDOF 5
