REMARK  Name = ZINC21006281
REMARK  12 active torsions:
REMARK  status: ('A' for Active; 'I' for Inactive)
REMARK    1  A    between atoms: C_1  and  C_2
REMARK    2  A    between atoms: C_7  and  C_8
REMARK    3  A    between atoms: N_10  and  C_11
REMARK    4  A    between atoms: C_11  and  C_13
REMARK    5  A    between atoms: C_11  and  C_17
REMARK    6  A    between atoms: C_13  and  C_14
REMARK    7  A    between atoms: C_14  and  C_15
REMARK    8  A    between atoms: C_14  and  C_16
REMARK    9  A    between atoms: N_19  and  C_20
REMARK   10  A    between atoms: C_22  and  S_27
REMARK   11  A    between atoms: C_25  and  O_26
REMARK   12  A    between atoms: S_27  and  N_30
REMARK                            x       y       z     vdW  Elec       q    Type
REMARK                         _______ _______ _______ _____ _____    ______ ____
ROOT
ATOM      1  C   UNL     1       0.684   1.958   0.413  0.00  0.00    +0.238 C 
ATOM      2  O   UNL     1       1.723   1.338   0.337  0.00  0.00    -0.273 OA
ATOM      3  N   UNL     1      -0.490   1.300   0.489  0.00  0.00    -0.281 N 
ATOM      4  H   UNL     1      -1.437   1.860   0.466  0.00  0.00    +0.155 HD
ENDROOT
BRANCH   3   5
ATOM      5  C   UNL     1      -0.504  -0.097   0.598  0.00  0.00    +0.077 A 
ATOM      6  C   UNL     1       0.593  -0.765   1.122  0.00  0.00    +0.055 A 
ATOM      7  C   UNL     1       0.574  -2.142   1.232  0.00  0.00    +0.107 A 
ATOM      8  C   UNL     1      -0.531  -2.858   0.812  0.00  0.00    +0.032 A 
ATOM      9  C   UNL     1      -1.626  -2.200   0.283  0.00  0.00    +0.049 A 
ATOM     10  C   UNL     1      -1.617  -0.819   0.174  0.00  0.00    +0.138 A 
BRANCH   7  11
ATOM     11  S   UNL     1       1.966  -2.989   1.904  0.00  0.00    +0.061 S 
ATOM     12  O   UNL     1       2.651  -2.054   2.727  0.00  0.00    -0.153 OA
ATOM     13  O   UNL     1       1.486  -4.231   2.399  0.00  0.00    -0.153 OA
BRANCH  11  14
ATOM     14  N   UNL     1       2.980  -3.342   0.643  0.00  0.00    -0.177 NA
ATOM     15  C   UNL     1       2.950  -4.571  -0.162  0.00  0.00    +0.109 C 
ATOM     16  C   UNL     1       4.088  -4.468  -1.199  0.00  0.00    +0.018 C 
ATOM     17  C   UNL     1       5.057  -3.446  -0.548  0.00  0.00    +0.018 C 
ATOM     18  C   UNL     1       4.066  -2.478   0.146  0.00  0.00    +0.109 C 
ENDBRANCH  11  14
ENDBRANCH   7  11
BRANCH  10  19
ATOM     19  O   UNL     1      -2.693  -0.170  -0.346  0.00  0.00    -0.505 OA
ATOM     20  H   UNL     1      -3.572  -0.741  -0.680  0.00  0.00    +0.292 HD
ENDBRANCH  10  19
ENDBRANCH   3   5
BRANCH   1  21
ATOM     21  C   UNL     1       0.705   3.465   0.422  0.00  0.00    +0.160 C 
BRANCH  21  24
ATOM     22  C   UNL     1       2.422   5.149   0.810  0.00  0.00    +0.245 C 
ATOM     23  O   UNL     1       1.574   5.855   1.319  0.00  0.00    -0.270 OA
ATOM     24  N   UNL     1       2.089   3.935   0.330  0.00  0.00    -0.300 N 
ATOM     25  H   UNL     1       2.857   3.296  -0.131  0.00  0.00    +0.150 HD
BRANCH  22  32
ATOM     26  C   UNL     1       3.163   7.667   2.028  0.00  0.00    +0.044 C 
ATOM     27  C   UNL     1       4.189   6.836   1.301  0.00  0.00    -0.038 A 
ATOM     28  C   UNL     1       5.495   7.272   1.211  0.00  0.00    +0.004 A 
ATOM     29  C   UNL     1       6.437   6.510   0.544  0.00  0.00    +0.000 A 
ATOM     30  C   UNL     1       6.078   5.307  -0.037  0.00  0.00    +0.001 A 
ATOM     31  C   UNL     1       4.777   4.857   0.050  0.00  0.00    +0.013 A 
ATOM     32  C   UNL     1       3.820   5.623   0.717  0.00  0.00    +0.040 A 
ENDBRANCH  22  32
ENDBRANCH  21  24
BRANCH  21  33
ATOM     33  C   UNL     1      -0.093   3.993  -0.772  0.00  0.00    +0.034 C 
BRANCH  33  34
ATOM     34  C   UNL     1      -0.177   5.519  -0.694  0.00  0.00    -0.015 C 
ATOM     35  C   UNL     1      -0.867   6.057  -1.950  0.00  0.00    +0.007 C 
ATOM     36  C   UNL     1      -0.983   5.923   0.542  0.00  0.00    +0.007 C 
ENDBRANCH  33  34
ENDBRANCH  21  33
ENDBRANCH   1  21
TORSDOF 9
