REMARK  Name = ZINC39729167
REMARK  11 active torsions:
REMARK  status: ('A' for Active; 'I' for Inactive)
REMARK    1  A    between atoms: C_1  and  C_2
REMARK    2  A    between atoms: C_2  and  O_3
REMARK    3  A    between atoms: O_3  and  C_4
REMARK    4  A    between atoms: C_4  and  C_6
REMARK    5  A    between atoms: C_10  and  N_11
REMARK    6  A    between atoms: C_12  and  C_14
REMARK    7  A    between atoms: C_14  and  C_16
REMARK    8  A    between atoms: C_14  and  O_17
REMARK    9  A    between atoms: O_17  and  N_18
REMARK   10  A    between atoms: N_28  and  C_33
REMARK   11  A    between atoms: N_31  and  C_32
REMARK                            x       y       z     vdW  Elec       q    Type
REMARK                         _______ _______ _______ _____ _____    ______ ____
ROOT
ATOM      1  C   UNL     1      -3.303  -2.664   4.950  0.00  0.00    +0.287 C 
ATOM      2  C   UNL     1      -3.127  -1.168   5.219  0.00  0.00    +0.065 C 
ENDROOT
BRANCH   1   4
ATOM      3  N   UNL     1      -3.031  -2.522   2.496  0.00  0.00    -0.276 N 
ATOM      4  C   UNL     1      -3.805  -2.865   3.544  0.00  0.00    +0.261 C 
ATOM      5  O   UNL     1      -4.907  -3.336   3.355  0.00  0.00    -0.271 OA
ATOM      6  H   UNL     1      -2.150  -2.146   2.647  0.00  0.00    +0.155 HD
BRANCH   3  11
ATOM      7  C   UNL     1      -2.842  -2.416   0.016  0.00  0.00    +0.091 A 
ATOM      8  C   UNL     1      -3.552  -2.715  -1.227  0.00  0.00    -0.021 A 
ATOM      9  C   UNL     1      -4.777  -3.241  -1.047  0.00  0.00    -0.004 A 
ATOM     10  S   UNL     1      -4.970  -3.333   0.715  0.00  0.00    -0.077 S 
ATOM     11  C   UNL     1      -3.493  -2.707   1.202  0.00  0.00    +0.086 A 
ATOM     12  C   UNL     1      -5.463  -3.525  -2.356  0.00  0.00    +0.043 C 
ATOM     13  C   UNL     1      -4.669  -2.707  -3.399  0.00  0.00    +0.010 C 
ATOM     14  C   UNL     1      -3.285  -2.598  -2.726  0.00  0.00    +0.037 C 
BRANCH   7  15
ATOM     15  C   UNL     1      -1.497  -1.838   0.006  0.00  0.00    +0.342 C 
ATOM     16  O   UNL     1      -0.523  -2.566  -0.007  0.00  0.00    -0.245 OA
BRANCH  15  17
ATOM     17  O   UNL     1      -1.339  -0.499   0.012  0.00  0.00    -0.461 OA
BRANCH  17  19
ATOM     18  C   UNL     1      -0.019   1.526   0.010  0.00  0.00    +0.048 C 
ATOM     19  C   UNL     1       0.002  -0.004   0.002  0.00  0.00    +0.229 C 
ENDBRANCH  17  19
ENDBRANCH  15  17
ENDBRANCH   7  15
ENDBRANCH   3  11
ENDBRANCH   1   4
BRANCH   1  20
ATOM     20  O   UNL     1      -4.247  -3.206   5.876  0.00  0.00    -0.381 OA
BRANCH  20  21
ATOM     21  N   UNL     1      -3.683  -3.584   7.118  0.00  0.00    -0.088 NA
ATOM     22  C   UNL     1      -4.438  -4.091   8.047  0.00  0.00    +0.101 C 
ATOM     23  C   UNL     1      -5.837  -4.293   7.860  0.00  0.00    +0.047 C 
ATOM     24  C   UNL     1      -6.599  -4.756   8.869  0.00  0.00    +0.114 C 
ATOM     25  N   UNL     1      -6.154  -5.004  10.107  0.00  0.00    -0.243 NA
ATOM     26  C   UNL     1      -4.914  -4.854  10.456  0.00  0.00    +0.123 C 
ATOM     27  C   UNL     1      -3.886  -4.511   9.392  0.00  0.00    +0.191 C 
ATOM     28  C   UNL     1      -3.073  -3.381   9.963  0.00  0.00    +0.239 C 
ATOM     29  O   UNL     1      -2.599  -2.538   9.232  0.00  0.00    -0.274 OA
ATOM     30  N   UNL     1      -2.878  -3.316  11.295  0.00  0.00    -0.228 N 
ATOM     31  C   UNL     1      -3.472  -4.166  12.149  0.00  0.00    +0.316 C 
ATOM     32  O   UNL     1      -3.102  -4.204  13.306  0.00  0.00    -0.252 OA
ATOM     33  N   UNL     1      -4.479  -4.969  11.750  0.00  0.00    -0.245 N 
ATOM     34  C   UNL     1      -5.076  -5.943  12.667  0.00  0.00    +0.141 C 
ATOM     35  C   UNL     1      -1.988  -2.283  11.831  0.00  0.00    +0.143 C 
ENDBRANCH  20  21
ENDBRANCH   1  20
TORSDOF 7
