REMARK  Name = ZINC13109569
REMARK  7 active torsions:
REMARK  status: ('A' for Active; 'I' for Inactive)
REMARK    1  A    between atoms: C_1  and  C_2
REMARK    2  A    between atoms: C_2  and  C_3
REMARK    3  A    between atoms: C_2  and  C_4
REMARK    4  A    between atoms: C_4  and  C_6
REMARK    5  A    between atoms: C_4  and  N_22
REMARK    6  A    between atoms: N_11  and  S_14
REMARK    7  A    between atoms: S_14  and  C_17
REMARK                            x       y       z     vdW  Elec       q    Type
REMARK                         _______ _______ _______ _____ _____    ______ ____
ROOT
ATOM      1  C   UNL     1      -1.791   1.106   3.438  0.00  0.00    +0.161 C 
ENDROOT
BRANCH   1   2
ATOM      2  N   UNL     1      -2.014  -0.013   4.356  0.00  0.00    -0.316 N 
ATOM      3  C   UNL     1      -2.069   0.210   5.715  0.00  0.00    +0.150 C 
ATOM      4  N   UNL     1      -1.919   1.405   6.189  0.00  0.00    -0.113 NA
ATOM      5  S   UNL     1      -2.053   1.259   7.850  0.00  0.00    +0.101 S 
ATOM      6  O   UNL     1      -3.251   1.910   8.251  0.00  0.00    -0.146 OA
ATOM      7  O   UNL     1      -0.779   1.547   8.411  0.00  0.00    -0.146 OA
ATOM      8  C   UNL     1      -2.317  -0.488   7.981  0.00  0.00    +0.123 A 
ATOM      9  C   UNL     1      -2.293  -0.909   6.644  0.00  0.00    +0.043 A 
ATOM     10  C   UNL     1      -2.477  -2.277   6.394  0.00  0.00    +0.013 A 
ATOM     11  C   UNL     1      -2.673  -3.154   7.438  0.00  0.00    +0.001 A 
ATOM     12  C   UNL     1      -2.692  -2.709   8.748  0.00  0.00    +0.002 A 
ATOM     13  C   UNL     1      -2.511  -1.358   9.013  0.00  0.00    +0.030 A 
ATOM     14  H   UNL     1      -2.123  -0.912   4.008  0.00  0.00    +0.148 HD
ENDBRANCH   1   2
BRANCH   1  15
ATOM     15  C   UNL     1      -1.175   0.594   2.162  0.00  0.00    +0.236 C 
ATOM     16  O   UNL     1      -1.541  -0.463   1.694  0.00  0.00    -0.274 OA
ATOM     17  N   UNL     1      -0.219   1.311   1.540  0.00  0.00    -0.297 N 
ATOM     18  C   UNL     1       0.474   0.771   0.361  0.00  0.00    +0.125 C 
ATOM     19  C   UNL     1       0.334   1.770  -0.794  0.00  0.00    +0.128 C 
ATOM     20  N   UNL     1       0.703   3.106  -0.307  0.00  0.00    -0.173 NA
ATOM     21  C   UNL     1       0.007   3.649   0.869  0.00  0.00    +0.128 C 
ATOM     22  C   UNL     1       0.147   2.650   2.024  0.00  0.00    +0.125 C 
BRANCH  20  23
ATOM     23  S   UNL     1       1.880   3.986  -1.070  0.00  0.00    +0.067 S 
ATOM     24  O   UNL     1       2.389   4.902  -0.110  0.00  0.00    -0.152 OA
ATOM     25  O   UNL     1       2.710   3.053  -1.747  0.00  0.00    -0.152 OA
BRANCH  23  26
ATOM     26  C   UNL     1       1.087   4.950  -2.314  0.00  0.00    +0.143 A 
ATOM     27  C   UNL     1       0.562   6.196  -2.223  0.00  0.00    +0.036 A 
ATOM     28  C   UNL     1      -0.015   6.764  -3.344  0.00  0.00    +0.010 A 
ATOM     29  C   UNL     1      -0.048   6.053  -4.497  0.00  0.00    +0.047 A 
ATOM     30  S   UNL     1       0.760   4.534  -4.019  0.00  0.00    -0.077 S 
ENDBRANCH  23  26
ENDBRANCH  20  23
ENDBRANCH   1  15
BRANCH   1  32
ATOM     31  C   UNL     1      -2.895   2.944   2.156  0.00  0.00    +0.009 C 
ATOM     32  C   UNL     1      -3.127   1.783   3.125  0.00  0.00    +0.012 C 
ATOM     33  C   UNL     1      -4.076   0.767   2.486  0.00  0.00    +0.009 C 
ENDBRANCH   1  32
TORSDOF 5
