REMARK  Name = ZINC55765485
REMARK  8 active torsions:
REMARK  status: ('A' for Active; 'I' for Inactive)
REMARK    1  A    between atoms: C_1  and  C_2
REMARK    2  A    between atoms: C_2  and  N_3
REMARK    3  A    between atoms: C_7  and  C_8
REMARK    4  A    between atoms: C_13  and  C_14
REMARK    5  A    between atoms: C_17  and  C_18
REMARK    6  A    between atoms: C_17  and  C_20
REMARK    7  A    between atoms: C_20  and  C_22
REMARK    8  A    between atoms: C_23  and  C_27
REMARK                            x       y       z     vdW  Elec       q    Type
REMARK                         _______ _______ _______ _____ _____    ______ ____
ROOT
ATOM      1  N   UNL     1       0.496  -0.500  -1.136  0.00  0.00    -0.301 N 
ATOM      2  C   UNL     1      -0.114  -0.678  -2.296  0.00  0.00    +0.266 A 
ATOM      3  O   UNL     1      -1.276  -0.355  -2.460  0.00  0.00    -0.266 OA
ATOM      4  C   UNL     1       0.681  -1.287  -3.381  0.00  0.00    +0.079 A 
ATOM      5  C   UNL     1       0.318  -1.581  -4.656  0.00  0.00    +0.028 C 
ATOM      6  S   UNL     1       2.252  -1.530  -2.564  0.00  0.00    -0.065 S 
ATOM      7  C   UNL     1       1.808  -0.864  -0.968  0.00  0.00    +0.105 A 
ATOM      8  C   UNL     1       2.603  -0.745   0.176  0.00  0.00    +0.130 C 
ENDROOT
BRANCH   5   9
ATOM      9  C   UNL     1       1.324  -2.053  -5.617  0.00  0.00    -0.021 A 
ATOM     10  C   UNL     1       2.659  -1.651  -5.492  0.00  0.00    +0.008 A 
ATOM     11  C   UNL     1       3.597  -2.099  -6.397  0.00  0.00    +0.001 A 
ATOM     12  C   UNL     1       3.222  -2.943  -7.428  0.00  0.00    +0.000 A 
ATOM     13  C   UNL     1       1.904  -3.345  -7.559  0.00  0.00    +0.004 A 
ATOM     14  C   UNL     1       0.954  -2.912  -6.658  0.00  0.00    -0.043 A 
ATOM     15  C   UNL     1      -0.479  -3.355  -6.798  0.00  0.00    +0.044 C 
ENDBRANCH   5   9
BRANCH   1  17
ATOM     16  C   UNL     1       0.034   1.604   0.021  0.00  0.00    +0.027 C 
ATOM     17  C   UNL     1      -0.236   0.099  -0.018  0.00  0.00    +0.122 C 
ENDBRANCH   1  17
BRANCH   8  18
ATOM     18  C   UNL     1       2.105  -0.050   1.325  0.00  0.00    +0.106 C 
ATOM     19  N   UNL     1       1.711   0.501   2.236  0.00  0.00    -0.191 NA
ENDBRANCH   8  18
BRANCH   8  20
ATOM     20  C   UNL     1       3.943  -1.331   0.199  0.00  0.00    +0.213 C 
ATOM     21  O   UNL     1       4.367  -1.923  -0.780  0.00  0.00    -0.285 OA
BRANCH  20  22
ATOM     22  C   UNL     1       4.779  -1.206   1.400  0.00  0.00    +0.063 A 
ATOM     23  C   UNL     1       6.063  -1.677   1.624  0.00  0.00    -0.033 A 
ATOM     24  C   UNL     1       6.592  -1.402   2.863  0.00  0.00    +0.011 A 
ATOM     25  C   UNL     1       5.847  -0.710   3.759  0.00  0.00    +0.046 A 
ATOM     26  S   UNL     1       4.408  -0.402   2.947  0.00  0.00    -0.093 S 
ATOM     27  C   UNL     1       6.830  -2.442   0.576  0.00  0.00    +0.045 C 
ENDBRANCH  20  22
ENDBRANCH   8  20
TORSDOF 5
