REMARK  Name = ZINC39543591
REMARK  9 active torsions:
REMARK  status: ('A' for Active; 'I' for Inactive)
REMARK    1  A    between atoms: C_1  and  C_2
REMARK    2  A    between atoms: C_2  and  C_3
REMARK    3  A    between atoms: C_2  and  S_4
REMARK    4  A    between atoms: S_4  and  N_7
REMARK    5  A    between atoms: N_7  and  C_8
REMARK    6  A    between atoms: C_9  and  C_11
REMARK    7  A    between atoms: C_14  and  S_25
REMARK    8  A    between atoms: S_25  and  O_28
REMARK    9  A    between atoms: O_28  and  C_29
REMARK                            x       y       z     vdW  Elec       q    Type
REMARK                         _______ _______ _______ _____ _____    ______ ____
ROOT
ATOM      1  C   UNL     1       1.289   1.674   2.446  0.00  0.00    +0.152 C 
ATOM      2  C   UNL     1       2.719   1.105   2.523  0.00  0.00    +0.092 C 
ATOM      3  C   UNL     1       3.484   2.137   3.321  0.00  0.00    +0.142 C 
ATOM      4  C   UNL     1       2.679   3.112   3.657  0.00  0.00    +0.100 C 
ATOM      5  N   UNL     1       3.035   4.270   4.372  0.00  0.00    -0.302 N 
ATOM      6  C   UNL     1       2.377   5.442   3.964  0.00  0.00    +0.037 A 
ATOM      7  C   UNL     1       2.733   6.663   4.519  0.00  0.00    +0.023 A 
ATOM      8  C   UNL     1       2.080   7.814   4.125  0.00  0.00    +0.002 A 
ATOM      9  C   UNL     1       1.073   7.744   3.179  0.00  0.00    +0.000 A 
ATOM     10  C   UNL     1       0.721   6.529   2.623  0.00  0.00    +0.007 A 
ATOM     11  C   UNL     1       1.374   5.370   3.008  0.00  0.00    -0.010 A 
ATOM     12  C   UNL     1       0.985   4.065   2.365  0.00  0.00    +0.124 C 
ATOM     13  N   UNL     1       1.359   2.930   3.211  0.00  0.00    -0.368 NA
ATOM     14  H   UNL     1       3.686   4.260   5.091  0.00  0.00    +0.153 HD
ATOM     15  H   UNL     1       0.736   2.880   4.003  0.00  0.00    +0.129 HD
ENDROOT
BRANCH   1  18
ATOM     16  N   UNL     1      -0.095  -0.376   2.411  0.00  0.00    -0.178 N 
ATOM     17  C   UNL     1       0.518  -0.715   1.124  0.00  0.00    +0.160 C 
ATOM     18  C   UNL     1       0.307   0.723   3.080  0.00  0.00    +0.253 C 
ATOM     19  O   UNL     1      -0.122   0.947   4.192  0.00  0.00    -0.272 OA
BRANCH  16  20
ATOM     20  S   UNL     1      -1.281  -1.343   3.044  0.00  0.00    +0.050 S 
ATOM     21  O   UNL     1      -1.849  -2.001   1.920  0.00  0.00    -0.155 OA
ATOM     22  O   UNL     1      -2.066  -0.473   3.848  0.00  0.00    -0.155 OA
BRANCH  20  24
ATOM     23  C   UNL     1       0.364  -1.790   5.183  0.00  0.00    +0.033 C 
ATOM     24  C   UNL     1      -0.401  -2.536   4.089  0.00  0.00    +0.145 C 
ATOM     25  C   UNL     1      -1.409  -3.491   4.732  0.00  0.00    +0.033 C 
ENDBRANCH  20  24
ENDBRANCH  16  20
ENDBRANCH   1  18
BRANCH   3  26
ATOM     26  S   UNL     1       5.194   2.042   3.733  0.00  0.00    +0.150 S 
ATOM     27  O   UNL     1       5.853   1.479   2.607  0.00  0.00    -0.132 OA
ATOM     28  O   UNL     1       5.553   3.307   4.272  0.00  0.00    -0.132 OA
BRANCH  26  29
ATOM     29  O   UNL     1       5.329   1.033   4.865  0.00  0.00    -0.342 OA
BRANCH  29  30
ATOM     30  C   UNL     1       4.882   1.486   6.065  0.00  0.00    +0.157 A 
ATOM     31  C   UNL     1       5.738   2.178   6.910  0.00  0.00    +0.048 A 
ATOM     32  C   UNL     1       5.281   2.638   8.129  0.00  0.00    +0.004 A 
ATOM     33  C   UNL     1       3.971   2.409   8.509  0.00  0.00    +0.000 A 
ATOM     34  C   UNL     1       3.116   1.720   7.669  0.00  0.00    +0.004 A 
ATOM     35  C   UNL     1       3.566   1.263   6.446  0.00  0.00    +0.048 A 
ENDBRANCH  29  30
ENDBRANCH  26  29
ENDBRANCH   3  26
TORSDOF 6
