REMARK  Name = ZINC64045433
REMARK  6 active torsions:
REMARK  status: ('A' for Active; 'I' for Inactive)
REMARK    1  A    between atoms: C_1  and  C_2
REMARK    2  A    between atoms: C_2  and  C_15
REMARK    3  A    between atoms: N_5  and  C_9
REMARK    4  A    between atoms: C_9  and  C_10
REMARK    5  A    between atoms: N_18  and  C_21
REMARK    6  A    between atoms: C_21  and  C_22
REMARK                            x       y       z     vdW  Elec       q    Type
REMARK                         _______ _______ _______ _____ _____    ______ ____
ROOT
ATOM      1  C   UNL     1       0.369  -0.685  -1.533  0.00  0.00    +0.018 C 
ATOM      2  C   UNL     1       0.504  -2.209  -1.465  0.00  0.00    -0.013 C 
ATOM      3  C   UNL     1       1.361  -2.692  -2.638  0.00  0.00    -0.078 C 
ATOM      4  N   UNL     1       2.692  -2.077  -2.561  0.00  0.00    +0.381 N 
ATOM      5  C   UNL     1       2.576  -0.620  -2.697  0.00  0.00    -0.078 C 
ATOM      6  C   UNL     1       1.766  -0.057  -1.528  0.00  0.00    -0.013 C 
ATOM      7  H   UNL     1       3.113  -2.298  -1.672  0.00  0.00    -0.082 HD
ENDROOT
BRANCH   1   9
ATOM      8  C   UNL     1      -0.546   1.337  -0.350  0.00  0.00    +0.042 C 
ATOM      9  C   UNL     1      -0.420  -0.188  -0.320  0.00  0.00    +0.112 C 
ATOM     10  C   UNL     1      -1.790  -0.835  -0.268  0.00  0.00    +0.247 C 
ATOM     11  O   UNL     1      -2.672  -0.750  -1.096  0.00  0.00    -0.273 OA
ATOM     12  N   UNL     1      -1.823  -1.526   0.888  0.00  0.00    -0.220 N 
ATOM     13  C   UNL     1      -0.677  -1.406   1.568  0.00  0.00    +0.310 C 
ATOM     14  O   UNL     1      -0.469  -1.938   2.640  0.00  0.00    -0.252 OA
ATOM     15  N   UNL     1       0.219  -0.630   0.931  0.00  0.00    -0.285 N 
ATOM     16  H   UNL     1       1.112  -0.406   1.237  0.00  0.00    +0.151 HD
BRANCH  12  17
ATOM     17  C   UNL     1      -2.973  -2.310   1.346  0.00  0.00    +0.153 C 
BRANCH  17  18
ATOM     18  C   UNL     1      -2.853  -3.723   0.835  0.00  0.00    -0.023 A 
ATOM     19  C   UNL     1      -3.391  -4.074  -0.389  0.00  0.00    +0.013 A 
ATOM     20  C   UNL     1      -3.266  -5.353  -0.819  0.00  0.00    +0.045 A 
ATOM     21  S   UNL     1      -2.363  -6.108   0.524  0.00  0.00    -0.105 S 
ATOM     22  C   UNL     1      -2.210  -4.666   1.566  0.00  0.00    +0.050 A 
ENDBRANCH  17  18
ENDBRANCH  12  17
ENDBRANCH   1   9
BRANCH   4  23
ATOM     23  C   UNL     1       3.535  -2.602  -3.643  0.00  0.00    -0.050 C 
BRANCH  23  24
ATOM     24  C   UNL     1       3.786  -4.094  -3.415  0.00  0.00    +0.086 C 
ATOM     25  C   UNL     1       4.802  -4.610  -4.410  0.00  0.00    +0.005 C 
ATOM     26  C   UNL     1       5.845  -5.064  -3.678  0.00  0.00    -0.004 A 
ATOM     27  C   UNL     1       7.127  -5.677  -4.047  0.00  0.00    +0.010 A 
ATOM     28  C   UNL     1       7.989  -6.036  -3.069  0.00  0.00    +0.001 A 
ATOM     29  C   UNL     1       7.689  -5.838  -1.714  0.00  0.00    +0.002 A 
ATOM     30  C   UNL     1       6.532  -5.282  -1.296  0.00  0.00    +0.026 A 
ATOM     31  C   UNL     1       5.553  -4.866  -2.240  0.00  0.00    +0.043 A 
ATOM     32  N   UNL     1       4.373  -4.311  -2.088  0.00  0.00    -0.380 N 
ATOM     33  H   UNL     1       3.958  -4.083  -1.242  0.00  0.00    +0.160 HD
ENDBRANCH  23  24
ENDBRANCH   4  23
TORSDOF 5
