REMARK  Name = ZINC14162813
REMARK  6 active torsions:
REMARK  status: ('A' for Active; 'I' for Inactive)
REMARK    1  A    between atoms: C_1  and  C_2
REMARK    2  A    between atoms: C_2  and  O_3
REMARK    3  A    between atoms: O_3  and  C_4
REMARK    4  A    between atoms: C_4  and  C_6
REMARK    5  A    between atoms: C_8  and  C_22
REMARK    6  A    between atoms: C_25  and  C_28
REMARK                            x       y       z     vdW  Elec       q    Type
REMARK                         _______ _______ _______ _____ _____    ______ ____
ROOT
ATOM      1  C   UNL     1       0.145   0.983   4.903  0.00  0.00    +0.211 C 
ATOM      2  C   UNL     1      -0.630   1.517   6.111  0.00  0.00    +0.143 C 
ATOM      3  N   UNL     1      -0.202   0.786   7.306  0.00  0.00    -0.303 N 
ATOM      4  C   UNL     1      -0.155   1.187   8.609  0.00  0.00    +0.071 A 
ATOM      5  C   UNL     1      -0.469   2.384   9.242  0.00  0.00    +0.028 A 
ATOM      6  C   UNL     1      -0.298   2.435  10.616  0.00  0.00    +0.002 A 
ATOM      7  C   UNL     1       0.163   1.348  11.339  0.00  0.00    +0.002 A 
ATOM      8  C   UNL     1       0.483   0.147  10.733  0.00  0.00    +0.030 A 
ATOM      9  C   UNL     1       0.320   0.072   9.345  0.00  0.00    +0.091 A 
ATOM     10  N   UNL     1       0.537  -0.926   8.466  0.00  0.00    -0.214 NA
ATOM     11  C   UNL     1       0.242  -0.517   7.262  0.00  0.00    +0.204 A 
ATOM     12  N   UNL     1       0.339  -1.212   6.065  0.00  0.00    -0.255 N 
ATOM     13  C   UNL     1       0.195  -0.519   4.915  0.00  0.00    +0.236 C 
ATOM     14  O   UNL     1       0.104  -1.123   3.868  0.00  0.00    -0.274 OA
ATOM     15  H   UNL     1       0.506  -2.168   6.054  0.00  0.00    +0.158 HD
ENDROOT
BRANCH   2  16
ATOM     16  C   UNL     1      -2.107   1.311   5.894  0.00  0.00    -0.023 A 
ATOM     17  C   UNL     1      -2.607   0.035   5.710  0.00  0.00    +0.006 A 
ATOM     18  C   UNL     1      -3.962  -0.155   5.516  0.00  0.00    +0.004 A 
ATOM     19  C   UNL     1      -4.817   0.932   5.496  0.00  0.00    -0.050 A 
ATOM     20  C   UNL     1      -4.316   2.208   5.676  0.00  0.00    +0.004 A 
ATOM     21  C   UNL     1      -2.961   2.397   5.874  0.00  0.00    +0.006 A 
ATOM     22  C   UNL     1      -6.294   0.725   5.280  0.00  0.00    +0.044 C 
ENDBRANCH   2  16
BRANCH   1  23
ATOM     23  C   UNL     1      -0.530   1.446   3.638  0.00  0.00    +0.322 C 
ATOM     24  O   UNL     1      -1.525   2.129   3.699  0.00  0.00    -0.250 OA
BRANCH  23  25
ATOM     25  O   UNL     1      -0.027   1.098   2.443  0.00  0.00    -0.464 OA
BRANCH  25  27
ATOM     26  C   UNL     1      -0.013   1.086   0.008  0.00  0.00    +0.048 C 
ATOM     27  C   UNL     1      -0.729   1.579   1.267  0.00  0.00    +0.229 C 
ENDBRANCH  25  27
ENDBRANCH  23  25
ENDBRANCH   1  23
TORSDOF 4
