REMARK  Name = ZINC04953313
REMARK  5 active torsions:
REMARK  status: ('A' for Active; 'I' for Inactive)
REMARK    1  A    between atoms: C_1  and  C_2
REMARK    2  A    between atoms: C_7  and  N_8
REMARK    3  A    between atoms: C_9  and  C_11
REMARK    4  A    between atoms: C_12  and  C_26
REMARK    5  A    between atoms: C_17  and  C_19
REMARK                            x       y       z     vdW  Elec       q    Type
REMARK                         _______ _______ _______ _____ _____    ______ ____
ROOT
ATOM      1  C   UNL     1      -1.565   3.270   0.188  0.00  0.00    +0.056 C 
ATOM      2  C   UNL     1      -0.417   3.782  -0.304  0.00  0.00    +0.019 C 
ATOM      3  N   UNL     1       0.739   3.054  -0.298  0.00  0.00    -0.273 N 
ATOM      4  C   UNL     1       0.829   1.807   0.182  0.00  0.00    +0.304 C 
ATOM      5  O   UNL     1       1.903   1.238   0.145  0.00  0.00    -0.252 OA
ATOM      6  N   UNL     1      -0.232   1.162   0.707  0.00  0.00    -0.288 N 
ATOM      7  C   UNL     1      -1.529   1.859   0.741  0.00  0.00    +0.142 C 
ATOM      8  C   UNL     1      -0.411   5.179  -0.868  0.00  0.00    +0.061 C 
ATOM      9  H   UNL     1       1.540   3.463  -0.662  0.00  0.00    +0.156 HD
ATOM     10  H   UNL     1      -0.144   0.259   1.049  0.00  0.00    +0.151 HD
ENDROOT
BRANCH   7  11
ATOM     11  C   UNL     1      -1.988   1.916   2.175  0.00  0.00    -0.022 A 
ATOM     12  C   UNL     1      -1.101   2.280   3.171  0.00  0.00    +0.007 A 
ATOM     13  C   UNL     1      -1.522   2.338   4.486  0.00  0.00    +0.020 A 
ATOM     14  C   UNL     1      -2.830   2.019   4.807  0.00  0.00    +0.041 A 
ATOM     15  C   UNL     1      -3.716   1.649   3.811  0.00  0.00    +0.020 A 
ATOM     16  C   UNL     1      -3.294   1.597   2.496  0.00  0.00    +0.007 A 
ATOM     17 CL   UNL     1      -3.358   2.084   6.459  0.00  0.00    -0.084 Cl
ENDBRANCH   7  11
BRANCH   1  19
ATOM     18  N   UNL     1      -2.964   4.980   1.111  0.00  0.00    -0.281 N 
ATOM     19  C   UNL     1      -2.764   4.023   0.182  0.00  0.00    +0.248 C 
ATOM     20  O   UNL     1      -3.616   3.807  -0.661  0.00  0.00    -0.270 OA
ATOM     21  H   UNL     1      -2.254   5.209   1.731  0.00  0.00    +0.155 HD
BRANCH  18  28
ATOM     22  C   UNL     1      -3.904   5.802   3.667  0.00  0.00    +0.045 C 
ATOM     23  C   UNL     1      -4.690   6.060   2.408  0.00  0.00    -0.029 A 
ATOM     24  C   UNL     1      -5.905   6.713   2.474  0.00  0.00    +0.006 A 
ATOM     25  C   UNL     1      -6.628   6.951   1.320  0.00  0.00    +0.020 A 
ATOM     26  C   UNL     1      -6.137   6.534   0.094  0.00  0.00    +0.043 A 
ATOM     27  C   UNL     1      -4.919   5.886   0.021  0.00  0.00    +0.043 A 
ATOM     28  C   UNL     1      -4.194   5.641   1.180  0.00  0.00    +0.038 A 
ATOM     29 CL   UNL     1      -7.048   6.834  -1.353  0.00  0.00    -0.083 Cl
ENDBRANCH  18  28
ENDBRANCH   1  19
TORSDOF 3
