REMARK  Name = ZINC07674707
REMARK  5 active torsions:
REMARK  status: ('A' for Active; 'I' for Inactive)
REMARK    1  A    between atoms: C_11  and  C_14
REMARK    2  A    between atoms: C_14  and  C_15
REMARK    3  A    between atoms: N_17  and  C_18
REMARK    4  A    between atoms: C_18  and  C_19
REMARK    5  A    between atoms: C_19  and  C_20
REMARK                            x       y       z     vdW  Elec       q    Type
REMARK                         _______ _______ _______ _____ _____    ______ ____
ROOT
ATOM      1  C   UNL     1       2.928   6.015  -1.409  0.00  0.00    +0.217 C 
ATOM      2  O   UNL     1       2.128   6.030  -2.320  0.00  0.00    -0.275 OA
ATOM      3  N   UNL     1       4.240   5.842  -1.668  0.00  0.00    -0.315 N 
ATOM      4  H   UNL     1       4.880   5.829  -0.940  0.00  0.00    +0.149 HD
ENDROOT
BRANCH   1   5
ATOM      5  C   UNL     1       2.457   6.189   0.011  0.00  0.00    +0.134 C 
BRANCH   5  16
ATOM      6  C   UNL     1      -0.013   1.076   0.008  0.00  0.00    +0.001 A 
ATOM      7  C   UNL     1       1.189   1.778   0.000  0.00  0.00    +0.001 A 
ATOM      8  C   UNL     1       1.202   3.142   0.007  0.00  0.00    +0.009 A 
ATOM      9  C   UNL     1      -0.006   3.847   0.023  0.00  0.00    -0.007 A 
ATOM     10  C   UNL     1      -1.230   3.135   0.031  0.00  0.00    -0.017 A 
ATOM     11  C   UNL     1      -1.207   1.731   0.017  0.00  0.00    +0.008 A 
ATOM     12  C   UNL     1      -2.445   3.846   0.045  0.00  0.00    +0.012 A 
ATOM     13  C   UNL     1      -2.465   5.202   0.052  0.00  0.00    +0.047 A 
ATOM     14  C   UNL     1      -1.285   5.954   0.045  0.00  0.00    +0.136 A 
ATOM     15  C   UNL     1      -0.047   5.304   0.030  0.00  0.00    +0.031 A 
ATOM     16  C   UNL     1       0.960   6.363   0.026  0.00  0.00    +0.007 A 
ATOM     17  C   UNL     1       0.282   7.522   0.038  0.00  0.00    +0.200 A 
ATOM     18  O   UNL     1      -1.039   7.280   0.050  0.00  0.00    -0.463 OA
ENDBRANCH   5  16
ENDBRANCH   1   5
BRANCH   3  19
ATOM     19  C   UNL     1       4.698   5.673  -3.049  0.00  0.00    +0.112 C 
BRANCH  19  20
ATOM     20  C   UNL     1       6.218   5.496  -3.064  0.00  0.00    +0.093 C 
BRANCH  20  21
ATOM     21  C   UNL     1       6.689   5.322  -4.485  0.00  0.00    +0.110 A 
ATOM     22  N   UNL     1       7.640   6.084  -5.090  0.00  0.00    -0.342 N 
ATOM     23  H   UNL     1       8.140   6.845  -4.677  0.00  0.00    +0.167 HD
ATOM     24  C   UNL     1       7.787   5.612  -6.379  0.00  0.00    +0.066 A 
ATOM     25  C   UNL     1       8.586   5.972  -7.455  0.00  0.00    +0.028 A 
ATOM     26  C   UNL     1       8.487   5.277  -8.642  0.00  0.00    +0.002 A 
ATOM     27  C   UNL     1       7.595   4.221  -8.766  0.00  0.00    +0.002 A 
ATOM     28  C   UNL     1       6.801   3.853  -7.717  0.00  0.00    +0.030 A 
ATOM     29  C   UNL     1       6.883   4.543  -6.505  0.00  0.00    +0.089 A 
ATOM     30  N   UNL     1       6.250   4.418  -5.311  0.00  0.00    -0.232 NA
ENDBRANCH  20  21
ENDBRANCH  19  20
ENDBRANCH   3  19
TORSDOF 5
