REMARK  Name = ZINC19220435
REMARK  7 active torsions:
REMARK  status: ('A' for Active; 'I' for Inactive)
REMARK    1  A    between atoms: C_1  and  C_2
REMARK    2  A    between atoms: C_8  and  C_30
REMARK    3  A    between atoms: C_9  and  C_11
REMARK    4  A    between atoms: N_13  and  C_14
REMARK    5  A    between atoms: C_14  and  C_16
REMARK    6  A    between atoms: C_14  and  C_17
REMARK    7  A    between atoms: C_21  and  C_23
REMARK                            x       y       z     vdW  Elec       q    Type
REMARK                         _______ _______ _______ _____ _____    ______ ____
ROOT
ATOM      1  C   UNL     1      -3.500   7.455   0.073  0.00  0.00    +0.119 C 
ATOM      2  C   UNL     1      -3.595   7.961   1.514  0.00  0.00    +0.034 C 
ENDROOT
BRANCH   1   3
ATOM      3  C   UNL     1      -3.552   5.949   0.066  0.00  0.00    +0.069 A 
ATOM      4  C   UNL     1      -4.769   5.291   0.085  0.00  0.00    +0.095 A 
ATOM      5  C   UNL     1      -4.771   3.896   0.078  0.00  0.00    +0.252 A 
ATOM      6  N   UNL     1      -3.613   3.250   0.052  0.00  0.00    -0.306 N 
ATOM      7  C   UNL     1      -2.467   3.916   0.044  0.00  0.00    +0.159 A 
ATOM      8  N   UNL     1      -2.434   5.241   0.051  0.00  0.00    -0.230 NA
ATOM      9  O   UNL     1      -5.940   3.211   0.091  0.00  0.00    -0.268 OA
ATOM     10  H   UNL     1      -3.609   2.150   0.036  0.00  0.00    +0.170 HD
BRANCH   7  11
ATOM     11  C   UNL     1      -1.190   3.160   0.028  0.00  0.00    +0.106 A 
ATOM     12  C   UNL     1      -1.212   1.768   0.015  0.00  0.00    +0.031 A 
ATOM     13  C   UNL     1      -0.013   1.076   0.005  0.00  0.00    +0.004 A 
ATOM     14  C   UNL     1       1.170   1.801  -0.002  0.00  0.00    +0.020 A 
ATOM     15  C   UNL     1       1.117   3.184   0.006  0.00  0.00    +0.111 A 
ATOM     16  N   UNL     1      -0.037   3.816   0.021  0.00  0.00    -0.252 NA
ENDBRANCH   7  11
ENDBRANCH   1   3
BRANCH   1  19
ATOM     17  C   UNL     1      -2.153   9.126  -1.081  0.00  0.00    +0.280 C 
ATOM     18  O   UNL     1      -3.125   9.857  -1.095  0.00  0.00    -0.267 OA
ATOM     19  N   UNL     1      -2.238   7.903  -0.520  0.00  0.00    -0.301 N 
ATOM     20  H   UNL     1      -1.359   7.242  -0.507  0.00  0.00    +0.150 HD
BRANCH  17  29
ATOM     21  C   UNL     1       3.692  12.412  -4.352  0.00  0.00    +0.044 C 
ATOM     22  C   UNL     1       2.819  11.411  -3.640  0.00  0.00    -0.050 A 
ATOM     23  C   UNL     1       3.344  10.181  -3.268  0.00  0.00    +0.007 A 
ATOM     24  C   UNL     1       2.564   9.250  -2.616  0.00  0.00    +0.047 A 
ATOM     25  C   UNL     1       1.236   9.541  -2.327  0.00  0.00    +0.136 A 
ATOM     26  C   UNL     1       0.709  10.789  -2.707  0.00  0.00    +0.024 A 
ATOM     27  C   UNL     1       1.517  11.719  -3.366  0.00  0.00    +0.015 A 
ATOM     28  C   UNL     1      -0.685  10.782  -2.266  0.00  0.00    +0.008 A 
ATOM     29  C   UNL     1      -0.887   9.575  -1.675  0.00  0.00    +0.193 A 
ATOM     30  O   UNL     1       0.253   8.854  -1.712  0.00  0.00    -0.450 OA
ATOM     31  C   UNL     1      -1.695  11.889  -2.433  0.00  0.00    +0.048 C 
ENDBRANCH  17  29
ENDBRANCH   1  19
TORSDOF 4
