REMARK  Name = ZINC43140209
REMARK  6 active torsions:
REMARK  status: ('A' for Active; 'I' for Inactive)
REMARK    1  A    between atoms: C_1  and  C_2
REMARK    2  A    between atoms: C_2  and  C_4
REMARK    3  A    between atoms: C_2  and  N_12
REMARK    4  A    between atoms: N_15  and  N_16
REMARK    5  A    between atoms: N_16  and  C_17
REMARK    6  A    between atoms: C_17  and  C_24
REMARK                            x       y       z     vdW  Elec       q    Type
REMARK                         _______ _______ _______ _____ _____    ______ ____
ROOT
ATOM      1  N   UNL     1       0.711  -0.489   1.189  0.00  0.00    -0.292 N 
ATOM      2  C   UNL     1       2.054  -0.600   1.174  0.00  0.00    +0.314 C 
ATOM      3  O   UNL     1       2.677  -0.297   0.175  0.00  0.00    -0.252 OA
ATOM      4  N   UNL     1       2.706  -1.046   2.266  0.00  0.00    -0.234 N 
ATOM      5  H   UNL     1       0.213  -0.731   1.986  0.00  0.00    +0.151 HD
ATOM      6  H   UNL     1       3.672  -1.126   2.255  0.00  0.00    +0.171 HD
ENDROOT
BRANCH   1   8
ATOM      7  C   UNL     1      -0.019   1.526   0.010  0.00  0.00    +0.033 C 
ATOM      8  C   UNL     1       0.002  -0.004   0.002  0.00  0.00    +0.103 C 
BRANCH   8   9
ATOM      9  C   UNL     1      -1.412  -0.526   0.013  0.00  0.00    -0.009 A 
ATOM     10  C   UNL     1      -2.014  -0.864   1.210  0.00  0.00    +0.008 A 
ATOM     11  C   UNL     1      -3.311  -1.342   1.221  0.00  0.00    +0.020 A 
ATOM     12  C   UNL     1      -4.007  -1.483   0.033  0.00  0.00    +0.042 A 
ATOM     13  C   UNL     1      -3.404  -1.144  -1.165  0.00  0.00    +0.040 A 
ATOM     14  C   UNL     1      -2.108  -0.661  -1.175  0.00  0.00    +0.047 A 
ATOM     15 CL   UNL     1      -1.353  -0.230  -2.678  0.00  0.00    -0.083 Cl
ATOM     16 CL   UNL     1      -5.635  -2.084   0.046  0.00  0.00    -0.083 Cl
ENDBRANCH   8   9
ENDBRANCH   1   8
BRANCH   4  17
ATOM     17  N   UNL     1       2.005  -1.387   3.388  0.00  0.00    -0.232 NA
ATOM     18  H   UNL     1       1.307  -2.085   3.180  0.00  0.00    +0.145 HD
BRANCH  17  19
ATOM     19  C   UNL     1       2.907  -1.845   4.453  0.00  0.00    +0.054 C 
ATOM     20  C   UNL     1       3.745  -3.006   3.918  0.00  0.00    +0.047 C 
ATOM     21  C   UNL     1       4.157  -3.953   5.080  0.00  0.00    +0.168 C 
ATOM     22  S   UNL     1       2.590  -3.940   6.057  0.00  0.00    -0.029 S 
ATOM     23  O   UNL     1       2.900  -4.049   7.440  0.00  0.00    -0.174 OA
ATOM     24  O   UNL     1       1.666  -4.846   5.471  0.00  0.00    -0.174 OA
ATOM     25  C   UNL     1       2.064  -2.214   5.689  0.00  0.00    +0.189 C 
ATOM     26  C   UNL     1       3.847  -0.697   4.825  0.00  0.00    +0.031 C 
ENDBRANCH  17  19
ENDBRANCH   4  17
TORSDOF 4
