REMARK  Name = ZINC23881241
REMARK  7 active torsions:
REMARK  status: ('A' for Active; 'I' for Inactive)
REMARK    1  A    between atoms: C_4  and  C_7
REMARK    2  A    between atoms: C_7  and  N_8
REMARK    3  A    between atoms: N_8  and  C_9
REMARK    4  A    between atoms: C_9  and  C_10
REMARK    5  A    between atoms: C_16  and  C_18
REMARK    6  A    between atoms: C_18  and  N_19
REMARK    7  A    between atoms: C_28  and  C_30
REMARK                            x       y       z     vdW  Elec       q    Type
REMARK                         _______ _______ _______ _____ _____    ______ ____
ROOT
ATOM      1  N   UNL     1      -1.417   7.513  -2.956  0.00  0.00    -0.294 N 
ATOM      2  C   UNL     1      -1.524   6.279  -2.424  0.00  0.00    +0.200 C 
ATOM      3  O   UNL     1      -1.679   5.318  -3.147  0.00  0.00    -0.278 OA
ENDROOT
BRANCH   1   4
ATOM      4  C   UNL     1      -1.373   7.682  -4.410  0.00  0.00    +0.143 C 
BRANCH   4   8
ATOM      5  C   UNL     1      -5.344   8.158  -5.910  0.00  0.00    +0.000 A 
ATOM      6  C   UNL     1      -4.613   9.266  -5.527  0.00  0.00    +0.000 A 
ATOM      7  C   UNL     1      -3.328   9.112  -5.041  0.00  0.00    +0.005 A 
ATOM      8  C   UNL     1      -2.774   7.850  -4.939  0.00  0.00    -0.030 A 
ATOM      9  C   UNL     1      -3.504   6.742  -5.327  0.00  0.00    +0.005 A 
ATOM     10  C   UNL     1      -4.791   6.895  -5.808  0.00  0.00    +0.000 A 
ENDBRANCH   4   8
ENDBRANCH   1   4
BRANCH   1  11
ATOM     11  C   UNL     1      -1.345   8.685  -2.079  0.00  0.00    +0.143 C 
BRANCH  11  12
ATOM     12  C   UNL     1       0.099   9.024  -1.813  0.00  0.00    -0.030 A 
ATOM     13  C   UNL     1       0.715   8.570  -0.662  0.00  0.00    +0.005 A 
ATOM     14  C   UNL     1       2.041   8.877  -0.420  0.00  0.00    +0.000 A 
ATOM     15  C   UNL     1       2.748   9.648  -1.324  0.00  0.00    +0.000 A 
ATOM     16  C   UNL     1       2.131  10.107  -2.472  0.00  0.00    +0.000 A 
ATOM     17  C   UNL     1       0.806   9.795  -2.717  0.00  0.00    +0.005 A 
ENDBRANCH  11  12
ENDBRANCH   1  11
BRANCH   2  18
ATOM     18  C   UNL     1      -1.451   6.094  -0.930  0.00  0.00    +0.020 C 
BRANCH  18  19
ATOM     19  N   UNL     1      -1.652   4.676  -0.602  0.00  0.00    +0.396 N 
ATOM     20  C   UNL     1      -0.562   3.854  -1.137  0.00  0.00    -0.041 C 
ATOM     21  C   UNL     1      -0.828   2.394  -0.880  0.00  0.00    -0.061 A 
ATOM     22  C   UNL     1       0.230   1.502  -0.976  0.00  0.00    +0.002 A 
ATOM     23  C   UNL     1       0.031   0.155  -0.754  0.00  0.00    +0.000 A 
ATOM     24  C   UNL     1      -1.231  -0.310  -0.434  0.00  0.00    +0.000 A 
ATOM     25  C   UNL     1      -2.287   0.574  -0.343  0.00  0.00    +0.004 A 
ATOM     26  C   UNL     1      -2.086   1.929  -0.559  0.00  0.00    -0.047 A 
ATOM     27  C   UNL     1      -3.265   2.860  -0.437  0.00  0.00    +0.029 C 
ATOM     28  C   UNL     1      -2.948   4.196  -1.107  0.00  0.00    +0.024 C 
ATOM     29  H   UNL     1      -1.647   4.584   0.494  0.00  0.00    -0.080 HD
BRANCH  28  30
ATOM     30  C   UNL     1      -4.023   5.200  -0.779  0.00  0.00    +0.197 C 
ATOM     31  O   UNL     1      -3.965   5.835   0.253  0.00  0.00    -0.278 OA
ATOM     32  N   UNL     1      -5.048   5.393  -1.633  0.00  0.00    -0.331 N 
ATOM     33  H   UNL     1      -5.832   6.126  -1.393  0.00  0.00    +0.145 HD
ATOM     34  H   UNL     1      -5.100   4.817  -2.569  0.00  0.00    +0.145 HD
ENDBRANCH  28  30
ENDBRANCH  18  19
ENDBRANCH   2  18
TORSDOF 7
