REMARK  Name = ZINC03038158
REMARK  10 active torsions:
REMARK  status: ('A' for Active; 'I' for Inactive)
REMARK    1  A    between atoms: C_1  and  C_2
REMARK    2  A    between atoms: C_2  and  C_3
REMARK    3  A    between atoms: C_2  and  C_4
REMARK    4  A    between atoms: C_2  and  C_5
REMARK    5  A    between atoms: C_8  and  O_11
REMARK    6  A    between atoms: O_11  and  C_12
REMARK    7  A    between atoms: C_12  and  C_13
REMARK    8  A    between atoms: N_15  and  N_16
REMARK    9  A    between atoms: C_17  and  C_18
REMARK   10  A    between atoms: C_20  and  O_26
REMARK                            x       y       z     vdW  Elec       q    Type
REMARK                         _______ _______ _______ _____ _____    ______ ____
ROOT
ATOM      1  C   UNL     1       2.343  -4.165  -0.042  0.00  0.00    +0.270 C 
ATOM      2  O   UNL     1       1.230  -4.646  -0.033  0.00  0.00    -0.270 OA
ATOM      3  N   UNL     1       3.425  -4.969  -0.056  0.00  0.00    -0.204 N 
ATOM      4  H   UNL     1       4.315  -4.584  -0.063  0.00  0.00    +0.177 HD
ENDROOT
BRANCH   3   5
ATOM      5  N   UNL     1       3.263  -6.361  -0.062  0.00  0.00    -0.188 NA
ATOM      6  C   UNL     1       4.304  -7.135  -0.076  0.00  0.00    +0.139 C 
BRANCH   6   7
ATOM      7  C   UNL     1       4.133  -8.600  -0.082  0.00  0.00    +0.012 A 
ATOM      8  C   UNL     1       5.252  -9.435  -0.097  0.00  0.00    +0.057 A 
ATOM      9  C   UNL     1       5.085 -10.809  -0.102  0.00  0.00    +0.131 A 
ATOM     10  C   UNL     1       3.806 -11.354  -0.092  0.00  0.00    +0.060 A 
ATOM     11  C   UNL     1       2.697 -10.529  -0.077  0.00  0.00    +0.034 A 
ATOM     12  C   UNL     1       2.852  -9.157  -0.066  0.00  0.00    +0.028 A 
ATOM     13 BR   UNL     1       1.331  -8.033  -0.037  0.00  0.00    -0.050 Br
ATOM     14 BR   UNL     1       3.583 -13.232  -0.099  0.00  0.00    -0.046 Br
BRANCH   9  15
ATOM     15  O   UNL     1       6.171 -11.626  -0.117  0.00  0.00    -0.506 OA
ATOM     16  H   UNL     1       6.494 -11.867   0.762  0.00  0.00    +0.292 HD
ENDBRANCH   9  15
ENDBRANCH   6   7
ENDBRANCH   3   5
BRANCH   1  17
ATOM     17  C   UNL     1       2.518  -2.668  -0.036  0.00  0.00    +0.326 C 
BRANCH  17  18
ATOM     18  O   UNL     1       1.234  -2.039  -0.020  0.00  0.00    -0.483 OA
BRANCH  18  22
ATOM     19  C   UNL     1       1.171   2.086   0.002  0.00  0.00    -0.042 A 
ATOM     20  C   UNL     1      -0.017   1.377   0.010  0.00  0.00    +0.008 A 
ATOM     21  C   UNL     1       0.002  -0.004   0.002  0.00  0.00    +0.046 A 
ATOM     22  C   UNL     1       1.213  -0.680  -0.013  0.00  0.00    +0.121 A 
ATOM     23  C   UNL     1       2.403   0.033  -0.021  0.00  0.00    +0.046 A 
ATOM     24  C   UNL     1       2.379   1.415  -0.013  0.00  0.00    +0.008 A 
BRANCH  19  26
ATOM     25  C   UNL     1       0.430   4.085   1.269  0.00  0.00    +0.015 C 
ATOM     26  C   UNL     1       1.147   3.593   0.011  0.00  0.00    -0.013 C 
ATOM     27  C   UNL     1       2.582   4.125  -0.000  0.00  0.00    +0.015 C 
ATOM     28  C   UNL     1       0.406   4.098  -1.229  0.00  0.00    +0.015 C 
ENDBRANCH  19  26
ENDBRANCH  18  22
ENDBRANCH  17  18
ENDBRANCH   1  17
TORSDOF 7
