REMARK  Name = ZINC05175290
REMARK  9 active torsions:
REMARK  status: ('A' for Active; 'I' for Inactive)
REMARK    1  A    between atoms: C_1  and  O_2
REMARK    2  A    between atoms: O_2  and  C_3
REMARK    3  A    between atoms: C_6  and  C_17
REMARK    4  A    between atoms: C_8  and  O_9
REMARK    5  A    between atoms: O_9  and  C_10
REMARK    6  A    between atoms: C_10  and  C_11
REMARK    7  A    between atoms: C_23  and  S_27
REMARK    8  A    between atoms: C_24  and  C_25
REMARK    9  A    between atoms: S_27  and  C_28
REMARK                            x       y       z     vdW  Elec       q    Type
REMARK                         _______ _______ _______ _____ _____    ______ ____
ROOT
ATOM      1  C   UNL     1       1.178   1.785   0.000  0.00  0.00    +0.162 A 
ATOM      2  C   UNL     1      -0.013   1.076   0.008  0.00  0.00    +0.050 A 
ATOM      3  C   UNL     1      -1.219   1.751   0.017  0.00  0.00    +0.008 A 
ATOM      4  C   UNL     1      -1.241   3.133   0.031  0.00  0.00    -0.035 A 
ATOM      5  C   UNL     1      -0.057   3.846   0.023  0.00  0.00    +0.053 A 
ATOM      6  C   UNL     1       1.155   3.176   0.008  0.00  0.00    +0.163 A 
ENDROOT
BRANCH   4   7
ATOM      7  C   UNL     1      -2.559   3.864   0.047  0.00  0.00    +0.071 C 
ATOM      8  C   UNL     1      -3.367   3.486  -1.196  0.00  0.00    +0.109 C 
ATOM      9  C   UNL     1      -3.873   2.074  -1.059  0.00  0.00    +0.218 C 
ATOM     10  O   UNL     1      -3.966   1.370  -2.042  0.00  0.00    -0.275 OA
ATOM     11  N   UNL     1      -4.223   1.589   0.146  0.00  0.00    -0.279 N 
ATOM     12  C   UNL     1      -4.121   2.370   1.278  0.00  0.00    +0.081 C 
ATOM     13  C   UNL     1      -3.331   3.480   1.282  0.00  0.00    +0.065 C 
ATOM     14  H   UNL     1      -4.551   0.679   0.220  0.00  0.00    +0.155 HD
BRANCH  13  15
ATOM     15  C   UNL     1      -3.235   4.283   2.464  0.00  0.00    +0.098 C 
ATOM     16  N   UNL     1      -3.158   4.920   3.401  0.00  0.00    -0.191 NA
ENDBRANCH  13  15
BRANCH  12  17
ATOM     17  S   UNL     1      -5.019   1.930   2.729  0.00  0.00    -0.113 S 
ATOM     18  C   UNL     1      -5.850   0.433   2.142  0.00  0.00    +0.091 C 
ENDBRANCH  12  17
ENDBRANCH   4   7
BRANCH   1  20
ATOM     19  C   UNL     1       2.312  -0.305  -0.023  0.00  0.00    +0.277 C 
ATOM     20  O   UNL     1       2.365   1.123  -0.015  0.00  0.00    -0.491 OA
ENDBRANCH   1  20
BRANCH   6  21
ATOM     21  O   UNL     1       2.321   3.877   0.001  0.00  0.00    -0.484 OA
BRANCH  21  22
ATOM     22  C   UNL     1       2.222   5.302   0.010  0.00  0.00    +0.264 C 
BRANCH  22  23
ATOM     23  C   UNL     1       3.604   5.902   0.000  0.00  0.00    -0.010 A 
ATOM     24  C   UNL     1       4.247   6.176   1.193  0.00  0.00    +0.007 A 
ATOM     25  C   UNL     1       5.516   6.723   1.185  0.00  0.00    +0.000 A 
ATOM     26  C   UNL     1       6.140   7.004  -0.017  0.00  0.00    +0.000 A 
ATOM     27  C   UNL     1       5.495   6.735  -1.210  0.00  0.00    +0.000 A 
ATOM     28  C   UNL     1       4.227   6.184  -1.201  0.00  0.00    +0.007 A 
ENDBRANCH  22  23
ENDBRANCH  21  22
ENDBRANCH   6  21
TORSDOF 7
