REMARK  Name = ZINC04897768
REMARK  7 active torsions:
REMARK  status: ('A' for Active; 'I' for Inactive)
REMARK    1  A    between atoms: C_1  and  C_2
REMARK    2  A    between atoms: C_5  and  S_8
REMARK    3  A    between atoms: S_8  and  N_11
REMARK    4  A    between atoms: C_17  and  C_19
REMARK    5  A    between atoms: C_19  and  N_57
REMARK    6  A    between atoms: C_20  and  N_57
REMARK    7  A    between atoms: C_26  and  C_28
REMARK                            x       y       z     vdW  Elec       q    Type
REMARK                         _______ _______ _______ _____ _____    ______ ____
ROOT
ATOM      1  N   UNL     1      -6.251  -0.038  -3.507  0.00  0.00    -0.174 NA
ATOM      2  C   UNL     1      -5.775   1.205  -4.131  0.00  0.00    +0.128 C 
ATOM      3  C   UNL     1      -4.286   1.048  -4.463  0.00  0.00    +0.125 C 
ATOM      4  N   UNL     1      -3.590   0.542  -3.271  0.00  0.00    -0.300 N 
ATOM      5  C   UNL     1      -4.063  -0.704  -2.650  0.00  0.00    +0.125 C 
ATOM      6  C   UNL     1      -5.555  -0.543  -2.315  0.00  0.00    +0.128 C 
ATOM      7  C   UNL     1      -2.535   1.206  -2.760  0.00  0.00    +0.199 C 
ATOM      8  O   UNL     1      -2.151   2.230  -3.284  0.00  0.00    -0.278 OA
ENDROOT
BRANCH   1   9
ATOM      9  S   UNL     1      -7.548  -0.854  -4.135  0.00  0.00    +0.061 S 
ATOM     10  O   UNL     1      -8.097  -1.623  -3.074  0.00  0.00    -0.153 OA
ATOM     11  O   UNL     1      -8.314   0.098  -4.861  0.00  0.00    -0.153 OA
BRANCH   9  16
ATOM     12  C   UNL     1      -5.397  -4.782  -8.179  0.00  0.00    +0.044 C 
ATOM     13  C   UNL     1      -5.935  -3.801  -7.169  0.00  0.00    -0.050 A 
ATOM     14  C   UNL     1      -6.077  -4.178  -5.846  0.00  0.00    +0.005 A 
ATOM     15  C   UNL     1      -6.569  -3.278  -4.920  0.00  0.00    +0.029 A 
ATOM     16  C   UNL     1      -6.920  -2.001  -5.316  0.00  0.00    +0.105 A 
ATOM     17  C   UNL     1      -6.783  -1.625  -6.639  0.00  0.00    +0.029 A 
ATOM     18  C   UNL     1      -6.287  -2.524  -7.565  0.00  0.00    +0.005 A 
ENDBRANCH   9  16
ENDBRANCH   1   9
BRANCH   7  19
ATOM     19  C   UNL     1      -1.831   0.676  -1.537  0.00  0.00    +0.015 C 
BRANCH  19  20
ATOM     20  N   UNL     1      -0.721   1.581  -1.188  0.00  0.00    +0.387 N 
ATOM     21  H   UNL     1      -1.095   2.518  -0.995  0.00  0.00    -0.085 HD
ATOM     22  H   UNL     1      -0.063   1.630  -1.974  0.00  0.00    -0.085 HD
BRANCH  20  23
ATOM     23  C   UNL     1      -0.013   1.086   0.008  0.00  0.00    -0.068 C 
ATOM     24  C   UNL     1      -0.729   1.579   1.267  0.00  0.00    -0.015 C 
ATOM     25  C   UNL     1       0.011   1.072   2.506  0.00  0.00    -0.002 C 
ATOM     26  C   UNL     1       1.446   1.602   2.495  0.00  0.00    +0.000 C 
ATOM     27  C   UNL     1       2.163   1.109   1.237  0.00  0.00    +0.002 C 
ATOM     28  C   UNL     1       1.423   1.615  -0.003  0.00  0.00    -0.028 C 
ATOM     29  C   UNL     1       1.402   3.145   0.006  0.00  0.00    +0.006 C 
ENDBRANCH  20  23
ENDBRANCH  19  20
ENDBRANCH   7  19
TORSDOF 5
