REMARK  Name = ZINC06681953
REMARK  9 active torsions:
REMARK  status: ('A' for Active; 'I' for Inactive)
REMARK    1  A    between atoms: C_1  and  C_2
REMARK    2  A    between atoms: C_3  and  C_20
REMARK    3  A    between atoms: C_4  and  C_10
REMARK    4  A    between atoms: C_12  and  O_18
REMARK    5  A    between atoms: C_13  and  O_17
REMARK    6  A    between atoms: O_18  and  C_19
REMARK    7  A    between atoms: C_20  and  O_22
REMARK    8  A    between atoms: O_22  and  C_23
REMARK    9  A    between atoms: C_23  and  C_24
REMARK                            x       y       z     vdW  Elec       q    Type
REMARK                         _______ _______ _______ _____ _____    ______ ____
ROOT
ATOM      1  C   UNL     1       0.392  -4.780   1.880  0.00  0.00    +0.061 C 
ATOM      2  C   UNL     1       0.374  -3.793   3.019  0.00  0.00    +0.021 C 
ATOM      3  C   UNL     1       0.580  -2.483   2.766  0.00  0.00    +0.078 C 
ATOM      4  C   UNL     1       0.560  -1.526   3.940  0.00  0.00    +0.144 C 
ATOM      5  N   UNL     1       0.303  -2.107   5.269  0.00  0.00    -0.288 N 
ATOM      6  C   UNL     1       0.115  -3.438   5.362  0.00  0.00    +0.304 C 
ATOM      7  O   UNL     1      -0.092  -3.927   6.455  0.00  0.00    -0.252 OA
ATOM      8  N   UNL     1       0.149  -4.239   4.290  0.00  0.00    -0.273 N 
ATOM      9  H   UNL     1       0.269  -1.456   6.156  0.00  0.00    +0.151 HD
ATOM     10  H   UNL     1      -0.018  -5.310   4.476  0.00  0.00    +0.156 HD
ENDROOT
BRANCH   4  11
ATOM     11  C   UNL     1       1.889  -0.818   3.986  0.00  0.00    -0.017 A 
ATOM     12  C   UNL     1       3.021  -1.501   4.394  0.00  0.00    +0.055 A 
ATOM     13  C   UNL     1       4.245  -0.854   4.431  0.00  0.00    +0.163 A 
ATOM     14  C   UNL     1       4.331   0.487   4.069  0.00  0.00    +0.177 A 
ATOM     15  C   UNL     1       3.193   1.168   3.667  0.00  0.00    +0.086 A 
ATOM     16  C   UNL     1       1.974   0.513   3.626  0.00  0.00    +0.029 A 
ATOM     17 CL   UNL     1       3.296   2.840   3.213  0.00  0.00    -0.080 Cl
BRANCH  14  18
ATOM     18  O   UNL     1       5.530   1.128   4.109  0.00  0.00    -0.502 OA
ATOM     19  H   UNL     1       5.597   2.188   3.822  0.00  0.00    +0.292 HD
ENDBRANCH  14  18
BRANCH  13  20
ATOM     20  O   UNL     1       5.359  -1.526   4.827  0.00  0.00    -0.491 OA
ATOM     21  C   UNL     1       5.216  -2.924   5.085  0.00  0.00    +0.277 C 
ENDBRANCH  13  20
ENDBRANCH   4  11
BRANCH   3  22
ATOM     22  C   UNL     1       0.813  -2.020   1.449  0.00  0.00    +0.339 C 
ATOM     23  O   UNL     1       0.964  -2.817   0.542  0.00  0.00    -0.245 OA
BRANCH  22  24
ATOM     24  O   UNL     1       0.868  -0.695   1.200  0.00  0.00    -0.457 OA
BRANCH  24  25
ATOM     25  C   UNL     1       0.995  -0.297  -0.167  0.00  0.00    +0.268 C 
BRANCH  25  26
ATOM     26  C   UNL     1       1.153   1.200  -0.241  0.00  0.00    -0.010 A 
ATOM     27  C   UNL     1       0.045   2.002  -0.440  0.00  0.00    +0.007 A 
ATOM     28  C   UNL     1       0.188   3.376  -0.503  0.00  0.00    +0.000 A 
ATOM     29  C   UNL     1       1.441   3.946  -0.379  0.00  0.00    +0.000 A 
ATOM     30  C   UNL     1       2.550   3.143  -0.186  0.00  0.00    +0.000 A 
ATOM     31  C   UNL     1       2.406   1.770  -0.117  0.00  0.00    +0.007 A 
ENDBRANCH  25  26
ENDBRANCH  24  25
ENDBRANCH  22  24
ENDBRANCH   3  22
TORSDOF 7
