REMARK  Name = ZINC12902416
REMARK  17 active torsions:
REMARK  status: ('A' for Active; 'I' for Inactive)
REMARK    1  A    between atoms: C_1  and  C_2
REMARK    2  A    between atoms: C_2  and  C_3
REMARK    3  A    between atoms: C_3  and  C_4
REMARK    4  A    between atoms: C_4  and  N_5
REMARK    5  A    between atoms: C_6  and  N_36
REMARK    6  A    between atoms: C_7  and  N_14
REMARK    7  A    between atoms: N_14  and  C_15
REMARK    8  A    between atoms: C_15  and  C_16
REMARK    9  A    between atoms: C_16  and  O_17
REMARK   10  A    between atoms: O_17  and  C_18
REMARK   11  A    between atoms: C_19  and  C_21
REMARK   12  A    between atoms: C_21  and  O_22
REMARK   13  A    between atoms: O_22  and  C_23
REMARK   14  A    between atoms: C_23  and  C_25
REMARK   15  A    between atoms: C_25  and  C_27
REMARK   16  A    between atoms: C_25  and  O_28
REMARK   17  A    between atoms: O_28  and  C_29
REMARK                            x       y       z     vdW  Elec       q    Type
REMARK                         _______ _______ _______ _____ _____    ______ ____
ROOT
ATOM      1  N   UNL     1       0.440  -3.412  -6.082  0.00  0.00    -0.259 N 
ATOM      2  C   UNL     1      -0.809  -2.909  -6.173  0.00  0.00    +0.258 C 
ATOM      3  O   UNL     1      -1.367  -2.487  -5.182  0.00  0.00    -0.272 OA
ENDROOT
BRANCH   1   6
ATOM      4  N   UNL     1       2.913  -2.568  -3.498  0.00  0.00    -0.280 N 
ATOM      5  C   UNL     1       2.262  -2.591  -4.710  0.00  0.00    +0.127 A 
ATOM      6  C   UNL     1       1.130  -3.367  -4.852  0.00  0.00    +0.140 A 
ATOM      7  C   UNL     1       0.675  -4.114  -3.748  0.00  0.00    +0.277 A 
ATOM      8  O   UNL     1      -0.322  -4.808  -3.846  0.00  0.00    -0.266 OA
ATOM      9  N   UNL     1       1.350  -4.056  -2.583  0.00  0.00    -0.273 N 
ATOM     10  H   UNL     1       1.037  -4.570  -1.823  0.00  0.00    +0.173 HD
ATOM     11  C   UNL     1       2.454  -3.298  -2.465  0.00  0.00    +0.331 A 
ATOM     12  O   UNL     1       3.047  -3.268  -1.404  0.00  0.00    -0.246 OA
BRANCH   5  13
ATOM     13  N   UNL     1       2.733  -1.849  -5.767  0.00  0.00    -0.343 N 
ATOM     14  H   UNL     1       3.488  -1.254  -5.642  0.00  0.00    +0.144 HD
ATOM     15  H   UNL     1       2.311  -1.922  -6.637  0.00  0.00    +0.144 HD
ENDBRANCH   5  13
BRANCH   4  16
ATOM     16  C   UNL     1       4.116  -1.748  -3.334  0.00  0.00    +0.128 C 
BRANCH  16  17
ATOM     17  C   UNL     1       5.350  -2.575  -3.700  0.00  0.00    +0.021 C 
BRANCH  17  19
ATOM     18  C   UNL     1       7.841  -2.545  -3.894  0.00  0.00    +0.004 C 
ATOM     19  C   UNL     1       6.606  -1.719  -3.528  0.00  0.00    -0.002 C 
ENDBRANCH  17  19
ENDBRANCH  16  17
ENDBRANCH   4  16
ENDBRANCH   1   6
BRANCH   1  20
ATOM     20  C   UNL     1       1.079  -4.004  -7.259  0.00  0.00    +0.142 C 
BRANCH  20  21
ATOM     21  C   UNL     1       0.826  -5.513  -7.273  0.00  0.00    +0.178 C 
BRANCH  21  22
ATOM     22  O   UNL     1      -0.572  -5.760  -7.437  0.00  0.00    -0.381 OA
ATOM     23  C   UNL     1      -0.918  -7.146  -7.463  0.00  0.00    +0.194 C 
ENDBRANCH  21  22
ENDBRANCH  20  21
ENDBRANCH   1  20
BRANCH   2  24
ATOM     24  C   UNL     1      -1.511  -2.872  -7.506  0.00  0.00    +0.328 C 
BRANCH  24  25
ATOM     25  O   UNL     1      -2.810  -2.300  -7.345  0.00  0.00    -0.453 OA
BRANCH  25  26
ATOM     26  C   UNL     1      -3.571  -2.194  -8.446  0.00  0.00    +0.348 C 
ATOM     27  O   UNL     1      -3.147  -2.574  -9.512  0.00  0.00    -0.247 OA
BRANCH  26  28
ATOM     28  C   UNL     1      -4.953  -1.600  -8.353  0.00  0.00    +0.278 C 
ATOM     29  C   UNL     1      -4.849  -0.128  -7.950  0.00  0.00    +0.064 C 
BRANCH  28  30
ATOM     30  O   UNL     1      -5.601  -1.702  -9.623  0.00  0.00    -0.478 OA
BRANCH  30  31
ATOM     31  C   UNL     1      -6.960  -1.716  -9.622  0.00  0.00    +0.122 A 
ATOM     32  C   UNL     1      -7.653  -1.929 -10.805  0.00  0.00    +0.047 A 
ATOM     33  C   UNL     1      -9.034  -1.943 -10.802  0.00  0.00    +0.023 A 
ATOM     34  C   UNL     1      -9.727  -1.746  -9.620  0.00  0.00    +0.041 A 
ATOM     35  C   UNL     1      -9.037  -1.534  -8.440  0.00  0.00    +0.023 A 
ATOM     36  C   UNL     1      -7.656  -1.525  -8.437  0.00  0.00    +0.047 A 
ATOM     37 CL   UNL     1     -11.463  -1.764  -9.620  0.00  0.00    -0.084 Cl
ENDBRANCH  30  31
ENDBRANCH  28  30
ENDBRANCH  26  28
ENDBRANCH  25  26
ENDBRANCH  24  25
ENDBRANCH   2  24
TORSDOF 14
