REMARK  Name = ZINC36570511
REMARK  16 active torsions:
REMARK  status: ('A' for Active; 'I' for Inactive)
REMARK    1  A    between atoms: C_1  and  C_2
REMARK    2  A    between atoms: C_2  and  C_3
REMARK    3  A    between atoms: C_3  and  N_4
REMARK    4  A    between atoms: N_4  and  C_5
REMARK    5  A    between atoms: C_5  and  C_7
REMARK    6  A    between atoms: C_5  and  C_15
REMARK    7  A    between atoms: N_17  and  C_18
REMARK    8  A    between atoms: C_18  and  C_19
REMARK    9  A    between atoms: C_18  and  C_20
REMARK   10  A    between atoms: C_18  and  C_21
REMARK   11  A    between atoms: C_21  and  C_22
REMARK   12  A    between atoms: C_22  and  C_23
REMARK   13  A    between atoms: C_22  and  C_24
REMARK   14  A    between atoms: C_22  and  C_25
REMARK   15  A    between atoms: C_26  and  C_28
REMARK   16  A    between atoms: C_29  and  C_30
REMARK                            x       y       z     vdW  Elec       q    Type
REMARK                         _______ _______ _______ _____ _____    ______ ____
ROOT
ATOM      1  C   UNL     1      -1.262  -2.058  -0.963  0.00  0.00    +0.196 C 
ENDROOT
BRANCH   1   2
ATOM      2  C   UNL     1      -1.292  -1.384  -2.310  0.00  0.00    +0.018 A 
ATOM      3  C   UNL     1      -1.793  -0.100  -2.430  0.00  0.00    +0.048 A 
ATOM      4  C   UNL     1      -1.820   0.518  -3.668  0.00  0.00    +0.020 A 
ATOM      5  C   UNL     1      -1.349  -0.147  -4.784  0.00  0.00    +0.003 A 
ATOM      6  C   UNL     1      -0.848  -1.429  -4.664  0.00  0.00    +0.020 A 
ATOM      7  C   UNL     1      -0.814  -2.047  -3.426  0.00  0.00    +0.048 A 
ATOM      8 CL   UNL     1      -0.179  -3.655  -3.275  0.00  0.00    -0.083 Cl
ATOM      9 CL   UNL     1      -2.387   0.735  -1.029  0.00  0.00    -0.083 Cl
ENDBRANCH   1   2
BRANCH   1  10
ATOM     10  C   UNL     1      -2.664  -2.434  -0.557  0.00  0.00    +0.239 C 
ATOM     11  O   UNL     1      -3.151  -1.962   0.448  0.00  0.00    -0.273 OA
ATOM     12  N   UNL     1      -3.376  -3.294  -1.312  0.00  0.00    -0.308 N 
ATOM     13  H   UNL     1      -2.986  -3.671  -2.116  0.00  0.00    +0.149 HD
BRANCH  12  14
ATOM     14  C   UNL     1      -4.739  -3.659  -0.918  0.00  0.00    +0.030 C 
ATOM     15  C   UNL     1      -4.695  -4.464   0.382  0.00  0.00    +0.031 C 
ATOM     16  C   UNL     1      -5.565  -2.389  -0.704  0.00  0.00    +0.031 C 
BRANCH  14  17
ATOM     17  C   UNL     1      -5.379  -4.505  -2.020  0.00  0.00    +0.031 C 
BRANCH  17  18
ATOM     18  C   UNL     1      -4.941  -3.976  -3.388  0.00  0.00    -0.036 C 
ATOM     19  C   UNL     1      -3.607  -4.614  -3.777  0.00  0.00    +0.010 C 
ATOM     20  C   UNL     1      -6.000  -4.330  -4.434  0.00  0.00    +0.010 C 
ATOM     21  C   UNL     1      -4.779  -2.456  -3.319  0.00  0.00    +0.010 C 
ENDBRANCH  17  18
ENDBRANCH  14  17
ENDBRANCH  12  14
ENDBRANCH   1  10
BRANCH   1  22
ATOM     22  N   UNL     1      -0.696  -1.141   0.030  0.00  0.00    -0.275 N 
ATOM     23  C   UNL     1       0.599  -0.776  -0.051  0.00  0.00    +0.292 C 
ATOM     24  O   UNL     1       1.298  -1.209  -0.948  0.00  0.00    -0.260 OA
BRANCH  23  25
ATOM     25  C   UNL     1       1.153   0.120   0.919  0.00  0.00    -0.003 C 
ATOM     26  C   UNL     1       1.606   0.855   1.714  0.00  0.00    -0.057 C 
BRANCH  26  27
ATOM     27  C   UNL     1       2.160   1.752   2.684  0.00  0.00    +0.025 A 
ATOM     28  C   UNL     1       1.361   2.247   3.720  0.00  0.00    +0.017 A 
ATOM     29  C   UNL     1       1.901   3.109   4.650  0.00  0.00    +0.001 A 
ATOM     30  C   UNL     1       3.230   3.485   4.560  0.00  0.00    +0.000 A 
ATOM     31  C   UNL     1       4.027   3.000   3.538  0.00  0.00    +0.001 A 
ATOM     32  C   UNL     1       3.503   2.132   2.603  0.00  0.00    +0.017 A 
ENDBRANCH  26  27
ENDBRANCH  23  25
BRANCH  22  33
ATOM     33  C   UNL     1      -1.537  -0.620   1.110  0.00  0.00    +0.109 C 
BRANCH  33  35
ATOM     34  C   UNL     1      -2.363  -1.038   3.430  0.00  0.00    +0.005 C 
ATOM     35  C   UNL     1      -1.566  -1.624   2.264  0.00  0.00    +0.016 C 
ENDBRANCH  33  35
ENDBRANCH  22  33
ENDBRANCH   1  22
TORSDOF 10
