REMARK  Name = ZINC34830001
REMARK  6 active torsions:
REMARK  status: ('A' for Active; 'I' for Inactive)
REMARK    1  A    between atoms: C_1  and  C_2
REMARK    2  A    between atoms: C_5  and  C_8
REMARK    3  A    between atoms: N_17  and  C_18
REMARK    4  A    between atoms: C_18  and  C_19
REMARK    5  A    between atoms: C_19  and  C_20
REMARK    6  A    between atoms: C_26  and  C_29
REMARK                            x       y       z     vdW  Elec       q    Type
REMARK                         _______ _______ _______ _____ _____    ______ ____
ROOT
ATOM      1  C   UNL     1       0.059  -4.275  -0.021  0.00  0.00    -0.006 C 
ATOM      2  C   UNL     1       1.481  -4.770   0.225  0.00  0.00    -0.047 A 
ATOM      3  C   UNL     1       2.616  -4.189  -0.335  0.00  0.00    +0.010 A 
ATOM      4  C   UNL     1       3.842  -4.694  -0.058  0.00  0.00    +0.045 A 
ATOM      5  S   UNL     1       3.443  -6.051   1.035  0.00  0.00    -0.101 S 
ATOM      6  C   UNL     1       1.686  -5.844   1.039  0.00  0.00    -0.010 A 
ATOM      7  C   UNL     1       0.633  -6.634   1.746  0.00  0.00    +0.024 C 
ATOM      8  C   UNL     1      -0.725  -6.249   1.134  0.00  0.00    -0.072 C 
ATOM      9  N   UNL     1      -0.811  -4.785   1.044  0.00  0.00    +0.388 N 
ATOM     10  H   UNL     1      -0.528  -4.382   1.925  0.00  0.00    -0.080 HD
ENDROOT
BRANCH   1  15
ATOM     11  C   UNL     1      -0.018   1.503   0.010  0.00  0.00    +0.044 C 
ATOM     12  C   UNL     1       0.002  -0.004   0.002  0.00  0.00    -0.050 A 
ATOM     13  C   UNL     1       0.006  -0.689  -1.199  0.00  0.00    +0.003 A 
ATOM     14  C   UNL     1       0.025  -2.071  -1.206  0.00  0.00    +0.002 A 
ATOM     15  C   UNL     1       0.040  -2.768  -0.013  0.00  0.00    -0.057 A 
ATOM     16  C   UNL     1       0.037  -2.084   1.188  0.00  0.00    +0.002 A 
ATOM     17  C   UNL     1       0.023  -0.702   1.195  0.00  0.00    +0.003 A 
ENDBRANCH   1  15
BRANCH   9  18
ATOM     18  C   UNL     1      -2.200  -4.396   0.761  0.00  0.00    -0.068 C 
BRANCH  18  19
ATOM     19  C   UNL     1      -3.095  -4.815   1.929  0.00  0.00    +0.077 C 
BRANCH  19  20
ATOM     20  C   UNL     1      -4.519  -4.417   1.639  0.00  0.00    +0.214 C 
ATOM     21  O   UNL     1      -4.791  -3.853   0.600  0.00  0.00    -0.276 OA
ATOM     22  N   UNL     1      -5.490  -4.686   2.533  0.00  0.00    -0.305 N 
ATOM     23  C   UNL     1      -5.182  -5.364   3.803  0.00  0.00    +0.089 C 
ATOM     24  C   UNL     1      -5.801  -4.554   4.947  0.00  0.00    -0.063 C 
ATOM     25  N   UNL     1      -7.235  -4.366   4.693  0.00  0.00    +0.383 N 
ATOM     26  C   UNL     1      -7.426  -3.552   3.486  0.00  0.00    -0.057 C 
ATOM     27  C   UNL     1      -6.887  -4.307   2.271  0.00  0.00    +0.091 C 
ATOM     28  C   UNL     1      -8.917  -3.269   3.292  0.00  0.00    -0.012 C 
ATOM     29  H   UNL     1      -7.673  -5.266   4.564  0.00  0.00    -0.085 HD
ATOM     30  H   UNL     1      -7.657  -3.899   5.482  0.00  0.00    -0.085 HD
ENDBRANCH  19  20
ENDBRANCH  18  19
ENDBRANCH   9  18
TORSDOF 4
