REMARK  Name = ZINC39936751
REMARK  6 active torsions:
REMARK  status: ('A' for Active; 'I' for Inactive)
REMARK    1  A    between atoms: C_1  and  C_2
REMARK    2  A    between atoms: C_3  and  C_16
REMARK    3  A    between atoms: N_6  and  C_8
REMARK    4  A    between atoms: C_8  and  C_9
REMARK    5  A    between atoms: C_17  and  C_18
REMARK    6  A    between atoms: C_23  and  N_26
REMARK                            x       y       z     vdW  Elec       q    Type
REMARK                         _______ _______ _______ _____ _____    ______ ____
ROOT
ATOM      1  C   UNL     1      -4.795  -0.818   0.022  0.00  0.00    +0.239 C 
ATOM      2  O   UNL     1      -5.049   0.369   0.125  0.00  0.00    -0.271 OA
ATOM      3  N   UNL     1      -5.796  -1.715  -0.079  0.00  0.00    -0.298 N 
ATOM      4  C   UNL     1      -5.513  -3.156  -0.084  0.00  0.00    +0.110 C 
ATOM      5  C   UNL     1      -6.162  -3.782  -1.322  0.00  0.00    +0.044 C 
ATOM      6  C   UNL     1      -7.653  -3.435  -1.343  0.00  0.00    +0.095 C 
ATOM      7  C   UNL     1      -7.823  -1.916  -1.423  0.00  0.00    +0.044 C 
ATOM      8  C   UNL     1      -7.193  -1.269  -0.181  0.00  0.00    +0.110 C 
ENDROOT
BRANCH   6   9
ATOM      9  N   UNL     1      -8.284  -4.059  -2.508  0.00  0.00    -0.289 N 
ATOM     10  C   UNL     1      -9.329  -4.979  -2.473  0.00  0.00    +0.070 A 
ATOM     11  C   UNL     1     -10.053  -5.559  -1.443  0.00  0.00    +0.028 A 
ATOM     12  C   UNL     1     -11.058  -6.461  -1.731  0.00  0.00    +0.002 A 
ATOM     13  C   UNL     1     -11.344  -6.791  -3.045  0.00  0.00    +0.002 A 
ATOM     14  C   UNL     1     -10.628  -6.220  -4.078  0.00  0.00    +0.028 A 
ATOM     15  C   UNL     1      -9.618  -5.312  -3.798  0.00  0.00    +0.067 A 
ATOM     16  N   UNL     1      -8.739  -4.583  -4.597  0.00  0.00    -0.306 N 
ATOM     17  H   UNL     1      -8.701  -4.606  -5.566  0.00  0.00    +0.170 HD
ATOM     18  C   UNL     1      -7.956  -3.838  -3.795  0.00  0.00    +0.328 A 
ATOM     19  O   UNL     1      -7.082  -3.081  -4.175  0.00  0.00    -0.247 OA
ENDBRANCH   6   9
BRANCH   1  21
ATOM     20  C   UNL     1      -2.442  -0.345   0.005  0.00  0.00    +0.013 C 
ATOM     21  C   UNL     1      -3.454  -1.255   0.010  0.00  0.00    +0.068 C 
BRANCH  20  24
ATOM     22  C   UNL     1      -0.019   1.504  -0.008  0.00  0.00    +0.062 C 
ATOM     23  C   UNL     1       0.002  -0.003  -0.013  0.00  0.00    +0.022 C 
ATOM     24  C   UNL     1      -1.104  -0.780  -0.008  0.00  0.00    +0.004 C 
ATOM     25  C   UNL     1      -0.614  -2.213  -0.017  0.00  0.00    +0.198 C 
ATOM     26  N   UNL     1       0.857  -2.089  -0.028  0.00  0.00    -0.203 NA
ATOM     27  N   UNL     1       1.135  -0.753  -0.030  0.00  0.00    -0.280 N 
ATOM     28 CL   UNL     1      -1.167  -3.079   1.465  0.00  0.00    -0.098 Cl
ATOM     29  H   UNL     1       2.032  -0.384  -0.040  0.00  0.00    +0.166 HD
BRANCH  26  30
ATOM     30  C   UNL     1       1.432  -2.744  -1.210  0.00  0.00    +0.142 C 
BRANCH  30  31
ATOM     31  C   UNL     1       2.936  -2.704  -1.125  0.00  0.00    -0.032 A 
ATOM     32  C   UNL     1       3.630  -1.635  -1.660  0.00  0.00    +0.005 A 
ATOM     33  C   UNL     1       5.010  -1.599  -1.582  0.00  0.00    +0.000 A 
ATOM     34  C   UNL     1       5.695  -2.631  -0.969  0.00  0.00    +0.000 A 
ATOM     35  C   UNL     1       5.001  -3.700  -0.434  0.00  0.00    +0.000 A 
ATOM     36  C   UNL     1       3.621  -3.734  -0.508  0.00  0.00    +0.005 A 
ENDBRANCH  30  31
ENDBRANCH  26  30
ENDBRANCH  20  24
ENDBRANCH   1  21
TORSDOF 5
