REMARK  Name = ZINC02110309
REMARK  9 active torsions:
REMARK  status: ('A' for Active; 'I' for Inactive)
REMARK    1  A    between atoms: C_1  and  O_2
REMARK    2  A    between atoms: O_2  and  C_3
REMARK    3  A    between atoms: C_13  and  C_17
REMARK    4  A    between atoms: C_20  and  O_37
REMARK    5  A    between atoms: C_21  and  C_23
REMARK    6  A    between atoms: C_23  and  O_24
REMARK    7  A    between atoms: O_24  and  C_25
REMARK    8  A    between atoms: C_30  and  C_31
REMARK    9  A    between atoms: O_37  and  C_38
REMARK                            x       y       z     vdW  Elec       q    Type
REMARK                         _______ _______ _______ _____ _____    ______ ____
ROOT
ATOM      1  C   UNL     1      -1.220   1.750   0.017  0.00  0.00    -0.055 A 
ATOM      2  C   UNL     1      -0.013   1.076   0.008  0.00  0.00    +0.006 A 
ATOM      3  C   UNL     1       1.174   1.782   0.000  0.00  0.00    +0.046 A 
ATOM      4  C   UNL     1       1.155   3.169   0.008  0.00  0.00    +0.126 A 
ATOM      5  C   UNL     1      -0.057   3.844   0.023  0.00  0.00    +0.031 A 
ATOM      6  C   UNL     1      -1.242   3.132   0.031  0.00  0.00    +0.013 A 
ENDROOT
BRANCH   1  17
ATOM      7  C   UNL     1      -3.873  -1.647   5.305  0.00  0.00    +0.121 A 
ATOM      8  C   UNL     1      -3.506  -0.409   5.820  0.00  0.00    +0.047 A 
ATOM      9  C   UNL     1      -3.086   0.631   5.010  0.00  0.00    +0.030 A 
ATOM     10  C   UNL     1      -3.043   0.391   3.639  0.00  0.00    +0.047 A 
ATOM     11  C   UNL     1      -3.416  -0.872   3.110  0.00  0.00    +0.006 A 
ATOM     12  C   UNL     1      -3.839  -1.912   3.944  0.00  0.00    +0.056 A 
ATOM     13  C   UNL     1      -3.251  -0.767   1.677  0.00  0.00    -0.022 A 
ATOM     14  C   UNL     1      -2.811   0.488   1.417  0.00  0.00    +0.010 A 
ATOM     15  N   UNL     1      -2.682   1.184   2.584  0.00  0.00    -0.359 N 
ATOM     16  H   UNL     1      -2.383   2.104   2.654  0.00  0.00    +0.166 HD
ATOM     17  C   UNL     1      -2.513   0.977   0.019  0.00  0.00    +0.007 C 
ATOM     18  C   UNL     1      -3.555  -1.081  -0.746  0.00  0.00    -0.076 C 
ATOM     19  C   UNL     1      -3.501  -1.801   0.608  0.00  0.00    +0.018 C 
ATOM     20  N   UNL     1      -2.384  -0.191  -0.880  0.00  0.00    +0.387 N 
ATOM     21  H   UNL     1      -1.534  -0.712  -0.636  0.00  0.00    -0.084 HD
ATOM     22  H   UNL     1      -2.318   0.137  -1.851  0.00  0.00    -0.084 HD
BRANCH   7  24
ATOM     23  C   UNL     1      -4.296  -2.303   7.552  0.00  0.00    +0.277 C 
ATOM     24  O   UNL     1      -4.277  -2.625   6.159  0.00  0.00    -0.495 OA
ENDBRANCH   7  24
ENDBRANCH   1  17
BRANCH   4  25
ATOM     25  O   UNL     1       2.321   3.867   0.000  0.00  0.00    -0.495 OA
ATOM     26  C   UNL     1       3.531   3.107  -0.016  0.00  0.00    +0.277 C 
ENDBRANCH   4  25
BRANCH   5  27
ATOM     27  C   UNL     1      -0.082   5.350   0.031  0.00  0.00    +0.268 C 
BRANCH  27  28
ATOM     28  O   UNL     1      -1.437   5.804   0.047  0.00  0.00    -0.487 OA
BRANCH  28  29
ATOM     29  C   UNL     1      -1.637   7.149   0.055  0.00  0.00    +0.124 A 
ATOM     30  C   UNL     1      -0.552   8.013   0.049  0.00  0.00    +0.046 A 
ATOM     31  C   UNL     1      -0.758   9.379   0.058  0.00  0.00    +0.004 A 
ATOM     32  C   UNL     1      -2.045   9.885   0.073  0.00  0.00    +0.001 A 
ATOM     33  C   UNL     1      -3.128   9.026   0.079  0.00  0.00    +0.007 A 
ATOM     34  C   UNL     1      -2.927   7.659   0.065  0.00  0.00    -0.003 A 
BRANCH  34  35
ATOM     35  C   UNL     1      -4.108   6.723   0.065  0.00  0.00    +0.023 C 
ATOM     36  C   UNL     1      -4.962   6.979  -1.178  0.00  0.00    +0.008 C 
ATOM     37  C   UNL     1      -6.161   6.029  -1.178  0.00  0.00    +0.001 C 
ATOM     38  C   UNL     1      -7.003   6.270   0.077  0.00  0.00    +0.000 C 
ATOM     39  C   UNL     1      -6.149   6.014   1.321  0.00  0.00    +0.001 C 
ATOM     40  C   UNL     1      -4.950   6.964   1.320  0.00  0.00    +0.008 C 
ENDBRANCH  34  35
ENDBRANCH  28  29
ENDBRANCH  27  28
ENDBRANCH   5  27
TORSDOF 7
