REMARK  Name = ZINC33276664
REMARK  8 active torsions:
REMARK  status: ('A' for Active; 'I' for Inactive)
REMARK    1  A    between atoms: C_1  and  C_2
REMARK    2  A    between atoms: C_2  and  C_3
REMARK    3  A    between atoms: C_4  and  C_15
REMARK    4  A    between atoms: C_18  and  C_33
REMARK    5  A    between atoms: C_19  and  S_21
REMARK    6  A    between atoms: S_21  and  N_24
REMARK    7  A    between atoms: N_24  and  C_25
REMARK    8  A    between atoms: C_28  and  C_32
REMARK                            x       y       z     vdW  Elec       q    Type
REMARK                         _______ _______ _______ _____ _____    ______ ____
ROOT
ATOM      1  C   UNL     1      -1.159   3.113  -3.426  0.00  0.00    -0.011 A 
ATOM      2  C   UNL     1      -2.292   2.376  -3.768  0.00  0.00    +0.009 A 
ATOM      3  C   UNL     1      -2.721   1.355  -2.946  0.00  0.00    +0.006 A 
ATOM      4  C   UNL     1      -2.029   1.060  -1.785  0.00  0.00    -0.024 A 
ATOM      5  C   UNL     1      -0.904   1.788  -1.440  0.00  0.00    +0.112 A 
ATOM      6  C   UNL     1      -0.469   2.816  -2.252  0.00  0.00    +0.037 A 
ATOM      7  C   UNL     1      -2.503  -0.057  -0.891  0.00  0.00    +0.046 C 
ENDROOT
BRANCH   1   9
ATOM      8  C   UNL     1      -0.655   5.581  -3.979  0.00  0.00    +0.073 A 
ATOM      9  C   UNL     1      -0.692   4.212  -4.306  0.00  0.00    +0.045 A 
ATOM     10  C   UNL     1      -0.205   4.079  -5.601  0.00  0.00    +0.139 A 
ATOM     11  N   UNL     1       0.167   5.318  -6.012  0.00  0.00    -0.185 N 
ATOM     12  N   UNL     1      -0.169   6.232  -4.995  0.00  0.00    -0.167 NA
ATOM     13  C   UNL     1       0.790   5.696  -7.149  0.00  0.00    +0.250 C 
ATOM     14  O   UNL     1       0.945   6.877  -7.352  0.00  0.00    -0.271 OA
ATOM     15  C   UNL     1       1.291   4.740  -8.153  0.00  0.00    +0.110 C 
ATOM     16  C   UNL     1       1.791   3.438  -7.585  0.00  0.00    +0.105 C 
ATOM     17  C   UNL     1       0.667   2.520  -7.233  0.00  0.00    +0.219 C 
ATOM     18  O   UNL     1       0.557   1.451  -7.795  0.00  0.00    -0.275 OA
ATOM     19  N   UNL     1      -0.227   2.882  -6.290  0.00  0.00    -0.270 N 
ATOM     20  H   UNL     1      -1.015   2.143  -6.083  0.00  0.00    +0.156 HD
BRANCH   8  22
ATOM     21  C   UNL     1       0.075   6.231  -1.700  0.00  0.00    +0.010 C 
ATOM     22  C   UNL     1      -1.104   6.188  -2.675  0.00  0.00    +0.054 C 
ENDBRANCH   8  22
ENDBRANCH   1   9
BRANCH   5  23
ATOM     23  S   UNL     1      -0.030   1.406   0.041  0.00  0.00    +0.073 S 
ATOM     24  O   UNL     1       1.062   2.312   0.112  0.00  0.00    -0.150 OA
ATOM     25  O   UNL     1      -1.002   1.302   1.071  0.00  0.00    -0.150 OA
BRANCH  23  26
ATOM     26  N   UNL     1       0.621  -0.105  -0.150  0.00  0.00    -0.215 N 
ATOM     27  H   UNL     1       0.342  -0.915   0.539  0.00  0.00    +0.174 HD
BRANCH  26  28
ATOM     28  C   UNL     1       1.524  -0.350  -1.188  0.00  0.00    +0.066 A 
ATOM     29  C   UNL     1       2.428   0.632  -1.571  0.00  0.00    +0.026 A 
ATOM     30  C   UNL     1       3.320   0.386  -2.597  0.00  0.00    +0.005 A 
ATOM     31  C   UNL     1       3.313  -0.837  -3.243  0.00  0.00    -0.049 A 
ATOM     32  C   UNL     1       2.415  -1.818  -2.865  0.00  0.00    +0.025 A 
ATOM     33  C   UNL     1       1.524  -1.581  -1.835  0.00  0.00    +0.064 A 
ATOM     34 CL   UNL     1       0.401  -2.815  -1.356  0.00  0.00    -0.082 Cl
ATOM     35  C   UNL     1       4.288  -1.101  -4.361  0.00  0.00    +0.044 C 
ENDBRANCH  26  28
ENDBRANCH  23  26
ENDBRANCH   5  23
TORSDOF 5
