REMARK  Name = ZINC17640731
REMARK  7 active torsions:
REMARK  status: ('A' for Active; 'I' for Inactive)
REMARK    1  A    between atoms: C_1  and  C_2
REMARK    2  A    between atoms: C_3  and  C_32
REMARK    3  A    between atoms: C_11  and  C_13
REMARK    4  A    between atoms: C_13  and  S_14
REMARK    5  A    between atoms: S_14  and  C_15
REMARK    6  A    between atoms: C_15  and  C_17
REMARK    7  A    between atoms: C_15  and  C_18
REMARK                            x       y       z     vdW  Elec       q    Type
REMARK                         _______ _______ _______ _____ _____    ______ ____
ROOT
ATOM      1  C   UNL     1      -4.191   1.830   0.032  0.00  0.00    +0.130 C 
ATOM      2  C   UNL     1      -4.277   2.628  -1.271  0.00  0.00    +0.029 C 
ENDROOT
BRANCH   1   3
ATOM      3  C   UNL     1      -5.400   0.939   0.156  0.00  0.00    +0.228 C 
ATOM      4  O   UNL     1      -5.319  -0.237  -0.130  0.00  0.00    -0.274 OA
ATOM      5  N   UNL     1      -6.571   1.449   0.586  0.00  0.00    -0.298 N 
ATOM      6  C   UNL     1      -6.689   2.871   0.944  0.00  0.00    +0.127 C 
ATOM      7  C   UNL     1      -7.896   3.458   0.194  0.00  0.00    +0.127 C 
ATOM      8  N   UNL     1      -9.086   2.645   0.479  0.00  0.00    -0.297 N 
ATOM      9  C   UNL     1      -8.926   1.272  -0.021  0.00  0.00    +0.127 C 
ATOM     10  C   UNL     1      -7.763   0.597   0.715  0.00  0.00    +0.127 C 
ATOM     11  C   UNL     1     -10.225   3.233  -0.043  0.00  0.00    +0.218 A 
ATOM     12  N   UNL     1     -10.984   2.541  -0.880  0.00  0.00    -0.223 NA
ATOM     13  C   UNL     1     -12.082   3.071  -1.392  0.00  0.00    +0.116 A 
ATOM     14  C   UNL     1     -12.428   4.370  -1.053  0.00  0.00    +0.039 A 
ATOM     15  C   UNL     1     -11.608   5.067  -0.179  0.00  0.00    +0.116 A 
ATOM     16  N   UNL     1     -10.527   4.476   0.301  0.00  0.00    -0.223 NA
ENDBRANCH   1   3
BRANCH   1  17
ATOM     17  S   UNL     1      -2.689   0.813   0.019  0.00  0.00    -0.141 S 
BRANCH  17  18
ATOM     18  C   UNL     1      -1.338   2.024   0.019  0.00  0.00    +0.144 C 
BRANCH  18  29
ATOM     19  C   UNL     1       4.944  -0.317  -0.048  0.00  0.00    +0.045 C 
ATOM     20  C   UNL     1       3.551  -0.893  -0.037  0.00  0.00    -0.026 A 
ATOM     21  C   UNL     1       3.366  -2.222  -0.042  0.00  0.00    -0.008 A 
ATOM     22  S   UNL     1       1.591  -2.392  -0.026  0.00  0.00    -0.073 S 
ATOM     23  C   UNL     1       1.151  -0.673  -0.013  0.00  0.00    +0.116 A 
ATOM     24  C   UNL     1       2.395  -0.017  -0.021  0.00  0.00    +0.075 A 
ATOM     25  C   UNL     1       2.339   1.415  -0.012  0.00  0.00    +0.260 A 
ATOM     26  O   UNL     1       3.364   2.075  -0.018  0.00  0.00    -0.267 OA
ATOM     27  N   UNL     1       1.137   2.020   0.002  0.00  0.00    -0.310 N 
ATOM     28  H   UNL     1       1.092   2.989   0.008  0.00  0.00    +0.170 HD
ATOM     29  C   UNL     1      -0.016   1.302   0.009  0.00  0.00    +0.121 A 
ATOM     30  N   UNL     1       0.002  -0.004   0.002  0.00  0.00    -0.226 NA
ATOM     31  C   UNL     1       4.409  -3.311  -0.058  0.00  0.00    +0.052 C 
ENDBRANCH  18  29
ENDBRANCH  17  18
ENDBRANCH   1  17
TORSDOF 4
