REMARK  Name = ZINC62825251
REMARK  6 active torsions:
REMARK  status: ('A' for Active; 'I' for Inactive)
REMARK    1  A    between atoms: C_1  and  O_2
REMARK    2  A    between atoms: O_2  and  C_3
REMARK    3  A    between atoms: C_3  and  C_4
REMARK    4  A    between atoms: C_4  and  C_5
REMARK    5  A    between atoms: C_7  and  C_10
REMARK    6  A    between atoms: C_15  and  N_16
REMARK                            x       y       z     vdW  Elec       q    Type
REMARK                         _______ _______ _______ _____ _____    ______ ____
ROOT
ATOM      1  C   UNL     1       1.336  -3.950  -5.620  0.00  0.00    +0.062 A 
ATOM      2  C   UNL     1       0.468  -3.230  -6.443  0.00  0.00    +0.030 A 
ATOM      3  C   UNL     1       0.191  -3.683  -7.716  0.00  0.00    +0.020 A 
ATOM      4  C   UNL     1       0.771  -4.852  -8.184  0.00  0.00    +0.032 A 
ATOM      5  C   UNL     1       1.631  -5.574  -7.382  0.00  0.00    +0.040 A 
ATOM      6  C   UNL     1       1.926  -5.130  -6.099  0.00  0.00    +0.051 A 
ATOM      7 BR   UNL     1       2.416  -7.168  -8.032  0.00  0.00    -0.048 Br
ATOM      8 BR   UNL     1      -0.986  -2.706  -8.827  0.00  0.00    -0.050 Br
ENDROOT
BRANCH   1  11
ATOM      9  C   UNL     1       1.377  -2.698  -2.247  0.00  0.00    +0.174 A 
ATOM     10  N   UNL     1       0.756  -3.060  -3.371  0.00  0.00    -0.192 NA
ATOM     11  C   UNL     1       1.637  -3.470  -4.258  0.00  0.00    +0.260 A 
ATOM     12  O   UNL     1       2.859  -3.376  -3.705  0.00  0.00    -0.333 OA
ATOM     13  N   UNL     1       2.661  -2.864  -2.395  0.00  0.00    -0.061 NA
BRANCH   9  14
ATOM     14  C   UNL     1       0.702  -2.174  -1.005  0.00  0.00    +0.108 C 
BRANCH  14  15
ATOM     15  C   UNL     1       0.590  -0.650  -1.090  0.00  0.00    +0.167 C 
BRANCH  15  17
ATOM     16  C   UNL     1      -0.205   1.266   0.109  0.00  0.00    +0.194 C 
ATOM     17  O   UNL     1      -0.050  -0.154   0.087  0.00  0.00    -0.383 OA
ENDBRANCH  15  17
ENDBRANCH  14  15
ENDBRANCH   9  14
ENDBRANCH   1  11
BRANCH   6  18
ATOM     18  N   UNL     1       2.797  -5.853  -5.290  0.00  0.00    -0.357 N 
ATOM     19  H   UNL     1       2.926  -5.597  -4.364  0.00  0.00    +0.142 HD
ATOM     20  H   UNL     1       3.277  -6.615  -5.654  0.00  0.00    +0.142 HD
ENDBRANCH   6  18
TORSDOF 5
