REMARK  Name = ZINC14648481
REMARK  13 active torsions:
REMARK  status: ('A' for Active; 'I' for Inactive)
REMARK    1  A    between atoms: C_1  and  C_2
REMARK    2  A    between atoms: C_2  and  C_3
REMARK    3  A    between atoms: C_3  and  C_4
REMARK    4  A    between atoms: C_4  and  C_5
REMARK    5  A    between atoms: C_5  and  C_6
REMARK    6  A    between atoms: C_6  and  O_7
REMARK    7  A    between atoms: O_7  and  C_8
REMARK    8  A    between atoms: C_13  and  C_14
REMARK    9  A    between atoms: N_16  and  C_17
REMARK   10  A    between atoms: C_17  and  N_19
REMARK   11  A    between atoms: N_19  and  C_20
REMARK   12  A    between atoms: C_22  and  N_27
REMARK   13  A    between atoms: C_25  and  O_26
REMARK                            x       y       z     vdW  Elec       q    Type
REMARK                         _______ _______ _______ _____ _____    ______ ____
ROOT
ATOM      1  C   UNL     1       3.060  -5.574  -6.275  0.00  0.00    +0.253 C 
ATOM      2  O   UNL     1       2.762  -4.396  -6.250  0.00  0.00    -0.270 OA
ATOM      3  N   UNL     1       3.888  -6.039  -7.232  0.00  0.00    -0.263 N 
ATOM      4  H   UNL     1       4.126  -6.979  -7.253  0.00  0.00    +0.157 HD
ENDROOT
BRANCH   1  10
ATOM      5  C   UNL     1       1.656  -6.016  -4.263  0.00  0.00    +0.133 A 
ATOM      6  C   UNL     1       1.146  -6.891  -3.316  0.00  0.00    +0.047 A 
ATOM      7  C   UNL     1       1.490  -8.228  -3.352  0.00  0.00    +0.019 A 
ATOM      8  C   UNL     1       2.345  -8.705  -4.333  0.00  0.00    +0.019 A 
ATOM      9  C   UNL     1       2.862  -7.849  -5.282  0.00  0.00    +0.032 A 
ATOM     10  C   UNL     1       2.517  -6.495  -5.260  0.00  0.00    +0.080 A 
ATOM     11 BR   UNL     1       2.807 -10.539  -4.369  0.00  0.00    -0.050 Br
BRANCH   5  12
ATOM     12  O   UNL     1       1.318  -4.702  -4.228  0.00  0.00    -0.491 OA
BRANCH  12  13
ATOM     13  C   UNL     1       0.436  -4.287  -3.183  0.00  0.00    +0.229 C 
BRANCH  13  14
ATOM     14  C   UNL     1       0.172  -2.784  -3.306  0.00  0.00    +0.041 C 
BRANCH  14  15
ATOM     15  C   UNL     1      -0.772  -2.340  -2.187  0.00  0.00    +0.003 C 
BRANCH  15  16
ATOM     16  C   UNL     1      -1.036  -0.838  -2.310  0.00  0.00    -0.000 C 
BRANCH  16  18
ATOM     17  C   UNL     1      -2.244   1.109  -1.314  0.00  0.00    +0.004 C 
ATOM     18  C   UNL     1      -1.980  -0.393  -1.191  0.00  0.00    -0.003 C 
ENDBRANCH  16  18
ENDBRANCH  15  16
ENDBRANCH  14  15
ENDBRANCH  13  14
ENDBRANCH  12  13
ENDBRANCH   5  12
ENDBRANCH   1  10
BRANCH   3  19
ATOM     19  C   UNL     1       4.384  -5.198  -8.161  0.00  0.00    +0.141 C 
ATOM     20  S   UNL     1       3.964  -3.539  -8.124  0.00  0.00    -0.018 S 
BRANCH  19  21
ATOM     21  N   UNL     1       5.212  -5.663  -9.117  0.00  0.00    -0.294 N 
ATOM     22  H   UNL     1       5.500  -6.589  -9.101  0.00  0.00    +0.154 HD
BRANCH  21  23
ATOM     23  C   UNL     1       5.656  -4.808 -10.135  0.00  0.00    +0.077 A 
ATOM     24  C   UNL     1       6.144  -3.548  -9.821  0.00  0.00    +0.059 A 
ATOM     25  C   UNL     1       6.582  -2.707 -10.827  0.00  0.00    +0.128 A 
ATOM     26  C   UNL     1       6.535  -3.118 -12.146  0.00  0.00    +0.036 A 
ATOM     27  C   UNL     1       6.050  -4.372 -12.466  0.00  0.00    +0.049 A 
ATOM     28  C   UNL     1       5.615  -5.224 -11.464  0.00  0.00    +0.138 A 
BRANCH  25  29
ATOM     29  N   UNL     1       7.102  -1.363 -10.490  0.00  0.00    +0.056 N 
ATOM     30  O   UNL     1       7.144  -1.002  -9.337  0.00  0.00    -0.126 OA
ATOM     31  O   UNL     1       7.486  -0.626 -11.369  0.00  0.00    -0.126 OA
ENDBRANCH  25  29
BRANCH  28  32
ATOM     32  O   UNL     1       5.143  -6.460 -11.777  0.00  0.00    -0.505 OA
ATOM     33  H   UNL     1       4.191  -6.487 -11.945  0.00  0.00    +0.292 HD
ENDBRANCH  28  32
ENDBRANCH  21  23
ENDBRANCH  19  21
ENDBRANCH   3  19
TORSDOF 12
