REMARK  Name = ZINC65385991
REMARK  9 active torsions:
REMARK  status: ('A' for Active; 'I' for Inactive)
REMARK    1  A    between atoms: C_1  and  C_2
REMARK    2  A    between atoms: C_2  and  C_3
REMARK    3  A    between atoms: C_3  and  O_4
REMARK    4  A    between atoms: O_4  and  C_5
REMARK    5  A    between atoms: C_10  and  C_11
REMARK    6  A    between atoms: N_16  and  C_30
REMARK    7  A    between atoms: C_20  and  C_22
REMARK    8  A    between atoms: C_20  and  C_24
REMARK    9  A    between atoms: C_22  and  O_23
REMARK                            x       y       z     vdW  Elec       q    Type
REMARK                         _______ _______ _______ _____ _____    ______ ____
ROOT
ATOM      1  C   UNL     1       1.138  -4.868   1.223  0.00  0.00    +0.090 C 
ATOM      2  C   UNL     1      -0.378  -4.740   1.418  0.00  0.00    -0.003 C 
ATOM      3  C   UNL     1      -0.681  -4.085   2.774  0.00  0.00    -0.074 C 
ATOM      4  N   UNL     1      -1.457  -5.066   3.564  0.00  0.00    +0.378 N 
ATOM      5  C   UNL     1      -1.051  -6.401   3.058  0.00  0.00    -0.073 C 
ATOM      6  C   UNL     1      -0.915  -6.192   1.510  0.00  0.00    +0.002 C 
ATOM      7  C   UNL     1       0.248  -7.063   0.997  0.00  0.00    +0.070 C 
ATOM      8  N   UNL     1       1.479  -6.300   1.280  0.00  0.00    -0.298 NA
ATOM      9  C   UNL     1      -1.127  -4.943   4.990  0.00  0.00    -0.096 C 
ATOM     10  H   UNL     1       2.205  -6.525   0.616  0.00  0.00    +0.123 HD
ATOM     11  H   UNL     1      -2.446  -4.925   3.420  0.00  0.00    -0.082 HD
ENDROOT
BRANCH   1  17
ATOM     12  C   UNL     1       2.007  -2.750   2.246  0.00  0.00    +0.125 A 
ATOM     13  C   UNL     1       2.666  -2.071   3.260  0.00  0.00    +0.046 A 
ATOM     14  C   UNL     1       3.177  -2.767   4.338  0.00  0.00    +0.004 A 
ATOM     15  C   UNL     1       3.032  -4.141   4.407  0.00  0.00    +0.001 A 
ATOM     16  C   UNL     1       2.376  -4.820   3.397  0.00  0.00    +0.009 A 
ATOM     17  C   UNL     1       1.858  -4.128   2.320  0.00  0.00    +0.011 A 
BRANCH  12  18
ATOM     18  O   UNL     1       1.503  -2.067   1.184  0.00  0.00    -0.492 OA
BRANCH  18  19
ATOM     19  C   UNL     1       1.694  -0.651   1.174  0.00  0.00    +0.229 C 
BRANCH  19  21
ATOM     20  C   UNL     1       1.268   1.456  -0.099  0.00  0.00    +0.007 C 
ATOM     21  C   UNL     1       1.063  -0.060  -0.088  0.00  0.00    +0.038 C 
ENDBRANCH  19  21
ENDBRANCH  18  19
ENDBRANCH  12  18
ENDBRANCH   1  17
BRANCH   7  22
ATOM     22  C   UNL     1       0.109  -7.294  -0.485  0.00  0.00    -0.025 A 
ATOM     23  C   UNL     1       0.951  -6.643  -1.368  0.00  0.00    +0.005 A 
ATOM     24  C   UNL     1       0.824  -6.855  -2.728  0.00  0.00    +0.000 A 
ATOM     25  C   UNL     1      -0.145  -7.718  -3.206  0.00  0.00    +0.000 A 
ATOM     26  C   UNL     1      -0.986  -8.370  -2.323  0.00  0.00    +0.000 A 
ATOM     27  C   UNL     1      -0.856  -8.161  -0.963  0.00  0.00    +0.005 A 
ENDBRANCH   7  22
BRANCH   7  28
ATOM     28  C   UNL     1       0.274  -8.400   1.740  0.00  0.00    +0.183 C 
BRANCH  28  29
ATOM     29  O   UNL     1       1.423  -9.147   1.337  0.00  0.00    -0.393 OA
ATOM     30  H   UNL     1       1.504 -10.008   1.770  0.00  0.00    +0.209 HD
ENDBRANCH  28  29
ENDBRANCH   7  28
TORSDOF 7
