REMARK  Name = ZINC63165652
REMARK  12 active torsions:
REMARK  status: ('A' for Active; 'I' for Inactive)
REMARK    1  A    between atoms: C_1  and  N_2
REMARK    2  A    between atoms: N_2  and  C_3
REMARK    3  A    between atoms: C_4  and  C_6
REMARK    4  A    between atoms: C_9  and  C_12
REMARK    5  A    between atoms: C_12  and  N_13
REMARK    6  A    between atoms: C_14  and  C_16
REMARK    7  A    between atoms: C_16  and  C_18
REMARK    8  A    between atoms: C_16  and  N_28
REMARK    9  A    between atoms: C_18  and  C_19
REMARK   10  A    between atoms: C_29  and  O_31
REMARK   11  A    between atoms: O_31  and  C_32
REMARK   12  A    between atoms: C_32  and  C_33
REMARK                            x       y       z     vdW  Elec       q    Type
REMARK                         _______ _______ _______ _____ _____    ______ ____
ROOT
ATOM      1  C   UNL     1       2.076  -7.474   1.955  0.00  0.00    +0.166 C 
ENDROOT
BRANCH   1   3
ATOM      2  N   UNL     1       2.651  -5.705   0.325  0.00  0.00    -0.310 N 
ATOM      3  C   UNL     1       2.505  -7.019   0.584  0.00  0.00    +0.234 C 
ATOM      4  O   UNL     1       2.719  -7.837  -0.287  0.00  0.00    -0.274 OA
ATOM      5  H   UNL     1       2.480  -5.051   1.021  0.00  0.00    +0.149 HD
BRANCH   2   6
ATOM      6  C   UNL     1       3.068  -5.263  -1.009  0.00  0.00    +0.139 C 
BRANCH   6  10
ATOM      7  C   UNL     1       3.316  -0.995  -1.083  0.00  0.00    +0.037 A 
ATOM      8  C   UNL     1       4.431  -1.756  -0.730  0.00  0.00    +0.013 A 
ATOM      9  C   UNL     1       4.345  -3.132  -0.708  0.00  0.00    +0.006 A 
ATOM     10  C   UNL     1       3.155  -3.759  -1.035  0.00  0.00    -0.030 A 
ATOM     11  C   UNL     1       2.046  -3.011  -1.387  0.00  0.00    +0.006 A 
ATOM     12  C   UNL     1       2.118  -1.633  -1.407  0.00  0.00    +0.013 A 
BRANCH   7  16
ATOM     13  C   UNL     1       4.681   2.540  -1.356  0.00  0.00    +0.132 C 
ATOM     14  N   UNL     1       4.558   1.083  -1.450  0.00  0.00    -0.304 N 
ATOM     15  C   UNL     1       5.693   0.281  -1.914  0.00  0.00    +0.132 C 
ATOM     16  C   UNL     1       3.402   0.481  -1.109  0.00  0.00    +0.246 C 
ATOM     17  O   UNL     1       2.429   1.151  -0.823  0.00  0.00    -0.270 OA
ENDBRANCH   7  16
ENDBRANCH   6  10
ENDBRANCH   2   6
ENDBRANCH   1   3
BRANCH   1  18
ATOM     18  N   UNL     1       1.991  -8.936   1.980  0.00  0.00    -0.270 N 
ATOM     19  C   UNL     1       2.164  -9.601   3.140  0.00  0.00    +0.401 C 
ATOM     20  O   UNL     1       2.391  -8.988   4.164  0.00  0.00    -0.226 OA
ATOM     21  H   UNL     1       1.810  -9.426   1.163  0.00  0.00    +0.153 HD
BRANCH  19  22
ATOM     22  O   UNL     1       2.087 -10.945   3.163  0.00  0.00    -0.446 OA
BRANCH  22  23
ATOM     23  C   UNL     1       2.281 -11.584   4.426  0.00  0.00    +0.269 C 
BRANCH  23  24
ATOM     24  C   UNL     1       2.158 -13.077   4.258  0.00  0.00    -0.010 A 
ATOM     25  C   UNL     1       0.926 -13.689   4.393  0.00  0.00    +0.007 A 
ATOM     26  C   UNL     1       0.814 -15.058   4.239  0.00  0.00    +0.000 A 
ATOM     27  C   UNL     1       1.933 -15.815   3.949  0.00  0.00    +0.000 A 
ATOM     28  C   UNL     1       3.165 -15.203   3.814  0.00  0.00    +0.000 A 
ATOM     29  C   UNL     1       3.277 -13.833   3.964  0.00  0.00    +0.007 A 
ENDBRANCH  23  24
ENDBRANCH  22  23
ENDBRANCH  19  22
ENDBRANCH   1  18
BRANCH   1  30
ATOM     30  C   UNL     1       0.706  -6.878   2.285  0.00  0.00    +0.065 C 
BRANCH  30  31
ATOM     31  C   UNL     1      -0.310  -7.372   1.288  0.00  0.00    -0.039 C 
ATOM     32  C   UNL     1      -1.145  -8.427   1.432  0.00  0.00    -0.001 A 
ATOM     33  C   UNL     1      -1.347  -9.393   2.519  0.00  0.00    +0.010 A 
ATOM     34  C   UNL     1      -2.279 -10.362   2.370  0.00  0.00    +0.001 A 
ATOM     35  C   UNL     1      -3.053 -10.467   1.206  0.00  0.00    +0.002 A 
ATOM     36  C   UNL     1      -2.925  -9.617   0.165  0.00  0.00    +0.026 A 
ATOM     37  C   UNL     1      -1.976  -8.559   0.214  0.00  0.00    +0.043 A 
ATOM     38  N   UNL     1      -1.667  -7.623  -0.650  0.00  0.00    -0.380 N 
ATOM     39  C   UNL     1      -0.608  -6.786  -0.074  0.00  0.00    +0.144 C 
ATOM     40  H   UNL     1      -2.073  -7.501  -1.522  0.00  0.00    +0.160 HD
ENDBRANCH  30  31
ENDBRANCH   1  30
TORSDOF 10
