REMARK  Name = ZINC35556901
REMARK  12 active torsions:
REMARK  status: ('A' for Active; 'I' for Inactive)
REMARK    1  A    between atoms: C_1  and  N_2
REMARK    2  A    between atoms: N_2  and  C_3
REMARK    3  A    between atoms: N_2  and  C_4
REMARK    4  A    between atoms: C_4  and  C_5
REMARK    5  A    between atoms: C_5  and  N_6
REMARK    6  A    between atoms: N_6  and  C_7
REMARK    7  A    between atoms: C_7  and  C_8
REMARK    8  A    between atoms: C_14  and  C_16
REMARK    9  A    between atoms: C_16  and  C_17
REMARK   10  A    between atoms: C_17  and  C_19
REMARK   11  A    between atoms: C_17  and  C_29
REMARK   12  A    between atoms: C_24  and  C_25
REMARK                            x       y       z     vdW  Elec       q    Type
REMARK                         _______ _______ _______ _____ _____    ______ ____
ROOT
ATOM      1  C   UNL     1       4.074  -4.327  -1.379  0.00  0.00    +0.060 C 
ENDROOT
BRANCH   1   2
ATOM      2  C   UNL     1       3.977  -5.596  -0.571  0.00  0.00    -0.015 A 
ATOM      3  C   UNL     1       4.462  -5.795   0.665  0.00  0.00    +0.087 A 
ATOM      4  N   UNL     1       4.184  -7.070   1.075  0.00  0.00    -0.360 N 
ATOM      5  H   UNL     1       4.434  -7.446   1.934  0.00  0.00    +0.165 HD
ATOM      6  C   UNL     1       3.497  -7.740   0.088  0.00  0.00    +0.047 A 
ATOM      7  C   UNL     1       3.331  -6.844  -0.984  0.00  0.00    +0.003 A 
ATOM      8  C   UNL     1       2.656  -7.253  -2.135  0.00  0.00    +0.010 A 
ATOM      9  C   UNL     1       2.156  -8.522  -2.214  0.00  0.00    +0.001 A 
ATOM     10  C   UNL     1       2.312  -9.409  -1.157  0.00  0.00    +0.002 A 
ATOM     11  C   UNL     1       2.983  -9.029  -0.015  0.00  0.00    +0.026 A 
ENDBRANCH   1   2
BRANCH   1  12
ATOM     12  C   UNL     1       5.524  -3.983  -1.602  0.00  0.00    -0.028 A 
ATOM     13  C   UNL     1       6.313  -3.591  -0.537  0.00  0.00    +0.005 A 
ATOM     14  C   UNL     1       7.643  -3.275  -0.742  0.00  0.00    +0.000 A 
ATOM     15  C   UNL     1       8.184  -3.352  -2.012  0.00  0.00    +0.001 A 
ATOM     16  C   UNL     1       7.396  -3.746  -3.076  0.00  0.00    +0.012 A 
ATOM     17  C   UNL     1       6.066  -4.066  -2.871  0.00  0.00    +0.059 A 
BRANCH  17  18
ATOM     18  C   UNL     1       5.208  -4.500  -4.031  0.00  0.00    +0.418 C 
ATOM     19  F   UNL     1       5.992  -4.582  -5.186  0.00  0.00    -0.166 F 
ATOM     20  F   UNL     1       4.651  -5.753  -3.755  0.00  0.00    -0.166 F 
ATOM     21  F   UNL     1       4.184  -3.567  -4.228  0.00  0.00    -0.166 F 
ENDBRANCH  17  18
ENDBRANCH   1  12
BRANCH   1  22
ATOM     22  C   UNL     1       3.390  -3.187  -0.621  0.00  0.00    +0.109 C 
BRANCH  22  24
ATOM     23  N   UNL     1       2.742  -0.841  -1.059  0.00  0.00    -0.299 N 
ATOM     24  C   UNL     1       3.397  -1.944  -1.472  0.00  0.00    +0.217 C 
ATOM     25  O   UNL     1       3.991  -1.935  -2.530  0.00  0.00    -0.276 OA
BRANCH  23  26
ATOM     26  C   UNL     1       2.024  -0.851   0.218  0.00  0.00    +0.089 C 
BRANCH  26  27
ATOM     27  C   UNL     1       0.583  -1.309  -0.011  0.00  0.00    -0.060 C 
BRANCH  27  29
ATOM     28  C   UNL     1      -0.243   0.054   1.783  0.00  0.00    -0.097 C 
ATOM     29  N   UNL     1      -0.137  -1.319   1.270  0.00  0.00    +0.377 N 
ATOM     30  C   UNL     1      -1.484  -1.871   1.070  0.00  0.00    -0.097 C 
ATOM     31  H   UNL     1       0.365  -1.889   1.934  0.00  0.00    -0.083 HD
ENDBRANCH  27  29
ENDBRANCH  26  27
ENDBRANCH  23  26
BRANCH  23  32
ATOM     32  C   UNL     1       2.748   0.368  -1.886  0.00  0.00    +0.142 C 
BRANCH  32  33
ATOM     33  C   UNL     1       3.925   1.231  -1.506  0.00  0.00    -0.030 A 
ATOM     34  C   UNL     1       3.791   2.183  -0.514  0.00  0.00    +0.005 A 
ATOM     35  C   UNL     1       4.870   2.974  -0.165  0.00  0.00    +0.000 A 
ATOM     36  C   UNL     1       6.082   2.812  -0.809  0.00  0.00    +0.000 A 
ATOM     37  C   UNL     1       6.216   1.859  -1.801  0.00  0.00    +0.000 A 
ATOM     38  C   UNL     1       5.138   1.065  -2.147  0.00  0.00    +0.005 A 
ENDBRANCH  32  33
ENDBRANCH  23  32
ENDBRANCH  22  24
ENDBRANCH   1  22
TORSDOF 10
