REMARK  Name = ZINC55099885
REMARK  9 active torsions:
REMARK  status: ('A' for Active; 'I' for Inactive)
REMARK    1  A    between atoms: C_1  and  C_2
REMARK    2  A    between atoms: N_6  and  C_7
REMARK    3  A    between atoms: C_12  and  C_13
REMARK    4  A    between atoms: C_13  and  N_14
REMARK    5  A    between atoms: N_14  and  C_15
REMARK    6  A    between atoms: C_15  and  C_16
REMARK    7  A    between atoms: N_18  and  C_25
REMARK    8  A    between atoms: C_25  and  C_26
REMARK    9  A    between atoms: C_26  and  C_27
REMARK                            x       y       z     vdW  Elec       q    Type
REMARK                         _______ _______ _______ _____ _____    ______ ____
ROOT
ATOM      1  C   UNL     1      -4.263  -0.346   1.149  0.00  0.00    -0.044 C 
ENDROOT
BRANCH   1   2
ATOM      2  C   UNL     1      -5.121  -1.581   1.056  0.00  0.00    -0.039 A 
ATOM      3  C   UNL     1      -5.145  -2.463   0.045  0.00  0.00    +0.088 A 
ATOM      4  N   UNL     1      -6.048  -3.455   0.312  0.00  0.00    -0.346 N 
ATOM      5  C   UNL     1      -6.643  -3.231   1.534  0.00  0.00    +0.049 A 
ATOM      6  C   UNL     1      -6.083  -2.050   2.056  0.00  0.00    +0.001 A 
ATOM      7  C   UNL     1      -6.498  -1.575   3.302  0.00  0.00    +0.010 A 
ATOM      8  C   UNL     1      -7.443  -2.263   4.010  0.00  0.00    +0.001 A 
ATOM      9  C   UNL     1      -7.995  -3.430   3.501  0.00  0.00    +0.002 A 
ATOM     10  C   UNL     1      -7.607  -3.911   2.269  0.00  0.00    +0.026 A 
BRANCH   4  11
ATOM     11  C   UNL     1      -6.339  -4.589  -0.570  0.00  0.00    +0.131 C 
BRANCH  11  12
ATOM     12  C   UNL     1      -7.556  -4.260  -1.437  0.00  0.00    +0.117 C 
BRANCH  12  13
ATOM     13  C   UNL     1      -7.855  -5.426  -2.344  0.00  0.00    +0.212 C 
ATOM     14  O   UNL     1      -7.163  -6.421  -2.301  0.00  0.00    -0.276 OA
ATOM     15  N   UNL     1      -8.892  -5.362  -3.203  0.00  0.00    -0.329 N 
ATOM     16  H   UNL     1      -9.445  -4.566  -3.238  0.00  0.00    +0.145 HD
ATOM     17  H   UNL     1      -9.084  -6.113  -3.787  0.00  0.00    +0.145 HD
ENDBRANCH  12  13
ENDBRANCH  11  12
ENDBRANCH   4  11
ENDBRANCH   1   2
BRANCH   1  18
ATOM     18  N   UNL     1      -3.096  -0.623   1.998  0.00  0.00    +0.384 N 
ATOM     19  H   UNL     1      -2.559  -1.376   1.596  0.00  0.00    -0.085 HD
ATOM     20  H   UNL     1      -3.407  -0.886   2.921  0.00  0.00    -0.085 HD
BRANCH  18  21
ATOM     21  C   UNL     1      -2.259   0.581   2.088  0.00  0.00    -0.044 C 
BRANCH  21  27
ATOM     22  C   UNL     1       0.030  -0.381   2.438  0.00  0.00    +0.049 A 
ATOM     23  C   UNL     1       1.133  -0.636   3.242  0.00  0.00    +0.026 A 
ATOM     24  C   UNL     1       1.137  -0.220   4.559  0.00  0.00    +0.002 A 
ATOM     25  C   UNL     1       0.044   0.452   5.076  0.00  0.00    +0.000 A 
ATOM     26  C   UNL     1      -1.055   0.707   4.278  0.00  0.00    +0.004 A 
ATOM     27  C   UNL     1      -1.063   0.297   2.959  0.00  0.00    -0.041 A 
BRANCH  22  33
ATOM     28  C   UNL     1      -0.018   1.503   0.010  0.00  0.00    +0.086 C 
ATOM     29  C   UNL     1       0.002  -0.004   0.002  0.00  0.00    +0.111 A 
ATOM     30  N   UNL     1       0.008  -0.760  -1.062  0.00  0.00    -0.241 NA
ATOM     31  C   UNL     1       0.027  -2.049  -0.691  0.00  0.00    +0.131 A 
ATOM     32  C   UNL     1       0.033  -2.099   0.655  0.00  0.00    +0.112 A 
ATOM     33  N   UNL     1       0.023  -0.803   1.100  0.00  0.00    -0.303 N 
ENDBRANCH  22  33
ENDBRANCH  21  27
ENDBRANCH  18  21
ENDBRANCH   1  18
TORSDOF 8
