REMARK  Name = ZINC13495887
REMARK  14 active torsions:
REMARK  status: ('A' for Active; 'I' for Inactive)
REMARK    1  A    between atoms: C_1  and  C_2
REMARK    2  A    between atoms: C_2  and  C_3
REMARK    3  A    between atoms: C_3  and  C_5
REMARK    4  A    between atoms: C_3  and  N_75
REMARK    5  A    between atoms: N_9  and  C_10
REMARK    6  A    between atoms: C_10  and  C_11
REMARK    7  A    between atoms: C_11  and  C_12
REMARK    8  A    between atoms: C_18  and  C_19
REMARK    9  A    between atoms: C_18  and  N_75
REMARK   10  A    between atoms: C_19  and  C_20
REMARK   11  A    between atoms: C_25  and  C_26
REMARK   12  A    between atoms: C_27  and  C_28
REMARK   13  A    between atoms: C_27  and  N_75
REMARK   14  A    between atoms: C_34  and  C_40
REMARK                            x       y       z     vdW  Elec       q    Type
REMARK                         _______ _______ _______ _____ _____    ______ ____
ROOT
ATOM      1  N   UNL     1      -2.386   1.464  -1.313  0.00  0.00    +0.389 N 
ATOM      2  H   UNL     1      -2.960   0.617  -1.224  0.00  0.00    -0.080 HD
ENDROOT
BRANCH   1   3
ATOM      3  C   UNL     1      -1.235   1.363  -0.392  0.00  0.00    +0.003 C 
BRANCH   3   4
ATOM      4  C   UNL     1      -0.274   0.326  -0.913  0.00  0.00    +0.138 A 
ATOM      5  N   UNL     1      -0.582  -0.854  -1.395  0.00  0.00    -0.115 NA
ATOM      6  N   UNL     1       0.513  -1.440  -1.740  0.00  0.00    -0.023 NA
ATOM      7  N   UNL     1       1.510  -0.665  -1.491  0.00  0.00    -0.044 NA
ATOM      8  N   UNL     1       1.066   0.433  -0.981  0.00  0.00    -0.231 N 
BRANCH   8   9
ATOM      9  C   UNL     1       1.869   1.582  -0.554  0.00  0.00    +0.152 C 
BRANCH   9  10
ATOM     10  C   UNL     1       2.261   1.413   0.915  0.00  0.00    +0.058 C 
BRANCH  10  11
ATOM     11  C   UNL     1       3.087   2.595   1.353  0.00  0.00    -0.046 A 
ATOM     12  C   UNL     1       4.463   2.561   1.228  0.00  0.00    +0.004 A 
ATOM     13  C   UNL     1       5.221   3.647   1.625  0.00  0.00    +0.000 A 
ATOM     14  C   UNL     1       4.603   4.763   2.158  0.00  0.00    +0.000 A 
ATOM     15  C   UNL     1       3.227   4.795   2.288  0.00  0.00    +0.000 A 
ATOM     16  C   UNL     1       2.469   3.711   1.886  0.00  0.00    +0.004 A 
ENDBRANCH  10  11
ENDBRANCH   9  10
ENDBRANCH   8   9
ENDBRANCH   3   4
BRANCH   3  18
ATOM     17  C   UNL     1      -2.409  -0.436   0.884  0.00  0.00    +0.002 C 
ATOM     18  C   UNL     1      -1.744   0.938   0.987  0.00  0.00    -0.011 C 
ENDBRANCH   3  18
ENDBRANCH   1   3
BRANCH   1  19
ATOM     19  C   UNL     1      -1.909   1.576  -2.708  0.00  0.00    -0.073 C 
BRANCH  19  20
ATOM     20  C   UNL     1      -3.101   1.413  -3.652  0.00  0.00    +0.017 C 
BRANCH  20  21
ATOM     21  C   UNL     1      -2.614   1.392  -5.078  0.00  0.00    -0.046 A 
ATOM     22  C   UNL     1      -2.599   2.559  -5.819  0.00  0.00    +0.004 A 
ATOM     23  C   UNL     1      -2.147   2.541  -7.126  0.00  0.00    +0.000 A 
ATOM     24  C   UNL     1      -1.721   1.355  -7.694  0.00  0.00    +0.000 A 
ATOM     25  C   UNL     1      -1.742   0.188  -6.954  0.00  0.00    +0.003 A 
ATOM     26  C   UNL     1      -2.188   0.206  -5.646  0.00  0.00    -0.047 A 
ATOM     27  C   UNL     1      -2.211  -1.066  -4.839  0.00  0.00    +0.044 C 
ENDBRANCH  20  21
ENDBRANCH  19  20
ENDBRANCH   1  19
BRANCH   1  28
ATOM     28  C   UNL     1      -3.210   2.641  -0.965  0.00  0.00    -0.037 C 
BRANCH  28  29
ATOM     29  C   UNL     1      -2.433   3.913  -1.186  0.00  0.00    +0.001 A 
ATOM     30  C   UNL     1      -2.539   4.574  -2.365  0.00  0.00    +0.017 A 
ATOM     31  C   UNL     1      -1.775   5.809  -2.546  0.00  0.00    -0.001 A 
ATOM     32  C   UNL     1      -1.848   6.537  -3.739  0.00  0.00    +0.010 A 
ATOM     33  C   UNL     1      -1.119   7.684  -3.878  0.00  0.00    +0.001 A 
ATOM     34  C   UNL     1      -0.306   8.133  -2.846  0.00  0.00    +0.005 A 
ATOM     35  C   UNL     1      -0.218   7.433  -1.663  0.00  0.00    -0.026 A 
ATOM     36  C   UNL     1      -0.952   6.262  -1.498  0.00  0.00    +0.052 A 
ATOM     37  N   UNL     1      -0.884   5.541  -0.325  0.00  0.00    -0.322 N 
ATOM     38  H   UNL     1      -0.316   5.854   0.396  0.00  0.00    +0.169 HD
ATOM     39  C   UNL     1      -1.593   4.410  -0.166  0.00  0.00    +0.251 A 
ATOM     40  O   UNL     1      -1.509   3.799   0.885  0.00  0.00    -0.268 OA
ATOM     41  C   UNL     1       0.669   7.932  -0.552  0.00  0.00    +0.046 C 
ENDBRANCH  28  29
ENDBRANCH   1  28
TORSDOF 11
