REMARK  Name = ZINC39693525
REMARK  10 active torsions:
REMARK  status: ('A' for Active; 'I' for Inactive)
REMARK    1  A    between atoms: C_1  and  C_2
REMARK    2  A    between atoms: C_2  and  C_3
REMARK    3  A    between atoms: C_2  and  C_4
REMARK    4  A    between atoms: C_2  and  O_5
REMARK    5  A    between atoms: O_5  and  C_6
REMARK    6  A    between atoms: N_8  and  C_9
REMARK    7  A    between atoms: C_9  and  C_10
REMARK    8  A    between atoms: C_10  and  N_11
REMARK    9  A    between atoms: C_12  and  C_14
REMARK   10  A    between atoms: C_25  and  C_27
REMARK                            x       y       z     vdW  Elec       q    Type
REMARK                         _______ _______ _______ _____ _____    ______ ____
ROOT
ATOM      1  C   UNL     1       8.163  -0.175  -5.343  0.00  0.00    +0.100 C 
ATOM      2  C   UNL     1       8.991  -0.663  -4.133  0.00  0.00    +0.121 C 
ATOM      3  N   UNL     1       9.568  -1.956  -4.571  0.00  0.00    -0.297 N 
ATOM      4  C   UNL     1       9.939  -1.732  -5.989  0.00  0.00    +0.115 C 
ATOM      5  C   UNL     1       8.791  -0.876  -6.559  0.00  0.00    -0.004 C 
ATOM      6  C   UNL     1       7.760  -1.768  -7.245  0.00  0.00    -0.010 C 
ATOM      7  C   UNL     1       8.391  -2.409  -8.484  0.00  0.00    -0.082 C 
ATOM      8  N   UNL     1       8.848  -1.359  -9.402  0.00  0.00    +0.379 N 
ATOM      9  C   UNL     1       9.905  -0.564  -8.767  0.00  0.00    -0.082 C 
ATOM     10  C   UNL     1       9.339   0.156  -7.540  0.00  0.00    -0.010 C 
ATOM     11  C   UNL     1       9.721  -3.081  -3.845  0.00  0.00    +0.260 C 
ATOM     12  O   UNL     1       9.277  -3.140  -2.718  0.00  0.00    -0.271 OA
ATOM     13  H   UNL     1       9.207  -1.784 -10.244  0.00  0.00    -0.086 HD
ATOM     14  H   UNL     1       8.072  -0.759  -9.637  0.00  0.00    -0.086 HD
ENDROOT
BRANCH  11  15
ATOM     15  C   UNL     1      10.444  -4.265  -4.433  0.00  0.00    +0.296 C 
ATOM     16  C   UNL     1      11.934  -3.936  -4.591  0.00  0.00    +0.283 C 
ATOM     17  O   UNL     1      12.592  -5.084  -5.137  0.00  0.00    -0.484 OA
ATOM     18  C   UNL     1      12.293  -6.286  -4.574  0.00  0.00    +0.162 A 
ATOM     19  C   UNL     1      13.133  -7.368  -4.790  0.00  0.00    +0.049 A 
ATOM     20  C   UNL     1      12.841  -8.596  -4.228  0.00  0.00    +0.004 A 
ATOM     21  C   UNL     1      11.710  -8.749  -3.448  0.00  0.00    +0.004 A 
ATOM     22  C   UNL     1      10.868  -7.676  -3.227  0.00  0.00    +0.049 A 
ATOM     23  C   UNL     1      11.157  -6.440  -3.788  0.00  0.00    +0.163 A 
ATOM     24  O   UNL     1      10.323  -5.390  -3.555  0.00  0.00    -0.473 OA
ENDBRANCH  11  15
BRANCH   1  26
ATOM     25  N   UNL     1       5.746   0.180  -5.726  0.00  0.00    -0.314 N 
ATOM     26  C   UNL     1       6.720  -0.581  -5.189  0.00  0.00    +0.218 C 
ATOM     27  O   UNL     1       6.436  -1.593  -4.584  0.00  0.00    -0.275 OA
ATOM     28  H   UNL     1       5.973   0.989  -6.210  0.00  0.00    +0.149 HD
BRANCH  25  29
ATOM     29  C   UNL     1       4.343  -0.215  -5.577  0.00  0.00    +0.123 C 
BRANCH  29  30
ATOM     30  C   UNL     1       3.447   0.812  -6.272  0.00  0.00    +0.126 C 
BRANCH  30  33
ATOM     31  C   UNL     1       1.070   1.178  -6.660  0.00  0.00    +0.401 C 
ATOM     32  O   UNL     1       1.354   2.192  -7.267  0.00  0.00    -0.226 OA
ATOM     33  N   UNL     1       2.044   0.417  -6.123  0.00  0.00    -0.280 N 
ATOM     34  H   UNL     1       1.817  -0.392  -5.639  0.00  0.00    +0.152 HD
BRANCH  31  35
ATOM     35  O   UNL     1      -0.220   0.815  -6.523  0.00  0.00    -0.445 OA
BRANCH  35  37
ATOM     36  C   UNL     1      -0.955   1.755  -8.624  0.00  0.00    +0.055 C 
ATOM     37  C   UNL     1      -1.200   1.669  -7.117  0.00  0.00    +0.107 C 
ATOM     38  C   UNL     1      -1.099   3.066  -6.503  0.00  0.00    +0.055 C 
ATOM     39  C   UNL     1      -2.596   1.098  -6.859  0.00  0.00    +0.055 C 
ENDBRANCH  35  37
ENDBRANCH  31  35
ENDBRANCH  30  33
ENDBRANCH  29  30
ENDBRANCH  25  29
ENDBRANCH   1  26
TORSDOF 7
