REMARK  Name = ZINC35208851
REMARK  4 active torsions:
REMARK  status: ('A' for Active; 'I' for Inactive)
REMARK    1  A    between atoms: C_1  and  C_2
REMARK    2  A    between atoms: C_10  and  C_11
REMARK    3  A    between atoms: C_18  and  C_20
REMARK    4  A    between atoms: C_20  and  O_21
REMARK                            x       y       z     vdW  Elec       q    Type
REMARK                         _______ _______ _______ _____ _____    ______ ____
ROOT
ATOM      1  C   UNL     1      -1.041   1.382   0.034  0.00  0.00    +0.048 C 
ATOM      2  C   UNL     1      -0.868  -0.115   0.033  0.00  0.00    +0.008 A 
ATOM      3  C   UNL     1      -0.958  -1.010  -1.120  0.00  0.00    +0.027 A 
ATOM      4  C   UNL     1      -1.208  -0.822  -2.482  0.00  0.00    +0.012 A 
ATOM      5  C   UNL     1      -1.225  -1.897  -3.323  0.00  0.00    +0.004 A 
ATOM      6  C   UNL     1      -0.995  -3.177  -2.835  0.00  0.00    +0.042 A 
ATOM      7  C   UNL     1      -0.746  -3.385  -1.494  0.00  0.00    +0.166 A 
ATOM      8  C   UNL     1      -0.724  -2.303  -0.618  0.00  0.00    +0.171 A 
ATOM      9  O   UNL     1      -0.514  -2.193   0.709  0.00  0.00    -0.447 OA
ATOM     10  C   UNL     1      -0.592  -0.905   1.103  0.00  0.00    +0.194 A 
ATOM     11  F   UNL     1      -0.524  -4.635  -1.032  0.00  0.00    -0.202 F 
ENDROOT
BRANCH  10  12
ATOM     12  C   UNL     1      -0.409  -0.429   2.482  0.00  0.00    +0.283 C 
ATOM     13  O   UNL     1      -0.357   0.764   2.711  0.00  0.00    -0.267 OA
ATOM     14  N   UNL     1      -0.300  -1.316   3.491  0.00  0.00    -0.290 N 
ATOM     15  C   UNL     1      -0.319  -2.760   3.225  0.00  0.00    +0.108 C 
ATOM     16  C   UNL     1      -1.399  -3.408   4.098  0.00  0.00    +0.019 C 
ATOM     17  C   UNL     1      -1.152  -3.043   5.563  0.00  0.00    +0.003 C 
ATOM     18  C   UNL     1      -1.239  -1.524   5.734  0.00  0.00    +0.025 C 
ATOM     19  C   UNL     1      -0.153  -0.855   4.879  0.00  0.00    +0.102 C 
BRANCH  19  20
ATOM     20  C   UNL     1      -0.317   0.665   4.935  0.00  0.00    +0.178 C 
BRANCH  20  21
ATOM     21  O   UNL     1       0.816   1.289   4.328  0.00  0.00    -0.393 OA
ATOM     22  H   UNL     1       0.780   2.256   4.328  0.00  0.00    +0.209 HD
ENDBRANCH  20  21
ENDBRANCH  19  20
ENDBRANCH  10  12
TORSDOF 3
