REMARK  Name = ZINC40485572
REMARK  9 active torsions:
REMARK  status: ('A' for Active; 'I' for Inactive)
REMARK    1  A    between atoms: C_1  and  C_2
REMARK    2  A    between atoms: C_2  and  C_3
REMARK    3  A    between atoms: C_2  and  C_4
REMARK    4  A    between atoms: C_7  and  C_10
REMARK    5  A    between atoms: C_12  and  C_26
REMARK    6  A    between atoms: C_13  and  O_25
REMARK    7  A    between atoms: N_16  and  C_17
REMARK    8  A    between atoms: C_17  and  C_18
REMARK    9  A    between atoms: C_18  and  C_19
REMARK                            x       y       z     vdW  Elec       q    Type
REMARK                         _______ _______ _______ _____ _____    ______ ____
ROOT
ATOM      1  C   UNL     1       2.707  -1.868  -4.752  0.00  0.00    +0.141 C 
ATOM      2  C   UNL     1       2.368  -3.318  -5.009  0.00  0.00    +0.031 C 
ATOM      3  C   UNL     1       3.531  -4.004  -4.959  0.00  0.00    +0.185 C 
ATOM      4  C   UNL     1       4.631  -3.077  -4.682  0.00  0.00    +0.282 C 
ATOM      5  O   UNL     1       5.801  -3.396  -4.578  0.00  0.00    -0.267 OA
ATOM      6  N   UNL     1       4.161  -1.821  -4.559  0.00  0.00    -0.283 N 
ENDROOT
BRANCH   1  10
ATOM      7  C   UNL     1       0.707  -0.490  -1.238  0.00  0.00    -0.045 A 
ATOM      8  C   UNL     1       0.222  -0.151  -2.487  0.00  0.00    +0.004 A 
ATOM      9  C   UNL     1       0.869  -0.597  -3.624  0.00  0.00    +0.006 A 
ATOM     10  C   UNL     1       2.002  -1.381  -3.513  0.00  0.00    -0.022 A 
ATOM     11  C   UNL     1       2.488  -1.720  -2.263  0.00  0.00    +0.006 A 
ATOM     12  C   UNL     1       1.843  -1.270  -1.126  0.00  0.00    +0.004 A 
BRANCH   7  14
ATOM     13  C   UNL     1      -0.019   1.526   0.010  0.00  0.00    +0.012 C 
ATOM     14  C   UNL     1       0.002  -0.004   0.002  0.00  0.00    +0.013 C 
ATOM     15  C   UNL     1      -1.433  -0.534   0.013  0.00  0.00    +0.012 C 
ENDBRANCH   7  14
ENDBRANCH   1  10
BRANCH   2  16
ATOM     16  C   UNL     1       1.030  -3.876  -5.262  0.00  0.00    -0.016 A 
ATOM     17  C   UNL     1       0.328  -3.522  -6.419  0.00  0.00    +0.008 A 
ATOM     18  C   UNL     1      -0.925  -4.049  -6.649  0.00  0.00    +0.001 A 
ATOM     19  C   UNL     1      -1.489  -4.926  -5.739  0.00  0.00    +0.000 A 
ATOM     20  C   UNL     1      -0.802  -5.281  -4.592  0.00  0.00    +0.001 A 
ATOM     21  C   UNL     1       0.455  -4.768  -4.350  0.00  0.00    +0.008 A 
ENDBRANCH   2  16
BRANCH   3  22
ATOM     22  O   UNL     1       3.660  -5.345  -5.139  0.00  0.00    -0.502 OA
ATOM     23  H   UNL     1       4.570  -5.665  -5.069  0.00  0.00    +0.292 HD
ENDBRANCH   3  22
BRANCH   6  24
ATOM     24  C   UNL     1       4.957  -0.622  -4.283  0.00  0.00    +0.114 C 
BRANCH  24  25
ATOM     25  C   UNL     1       5.053  -0.411  -2.771  0.00  0.00    +0.054 C 
BRANCH  25  26
ATOM     26  C   UNL     1       5.871   0.822  -2.487  0.00  0.00    -0.046 A 
ATOM     27  C   UNL     1       7.241   0.722  -2.332  0.00  0.00    +0.004 A 
ATOM     28  C   UNL     1       7.992   1.853  -2.071  0.00  0.00    +0.000 A 
ATOM     29  C   UNL     1       7.373   3.084  -1.966  0.00  0.00    +0.000 A 
ATOM     30  C   UNL     1       6.004   3.185  -2.122  0.00  0.00    +0.000 A 
ATOM     31  C   UNL     1       5.253   2.055  -2.387  0.00  0.00    +0.004 A 
ENDBRANCH  25  26
ENDBRANCH  24  25
ENDBRANCH   6  24
TORSDOF 7
