REMARK  Name = ZINC59105690
REMARK  4 active torsions:
REMARK  status: ('A' for Active; 'I' for Inactive)
REMARK    1  A    between atoms: C_6  and  N_7
REMARK    2  A    between atoms: C_13  and  C_14
REMARK    3  A    between atoms: C_17  and  O_21
REMARK    4  A    between atoms: C_19  and  O_20
REMARK                            x       y       z     vdW  Elec       q    Type
REMARK                         _______ _______ _______ _____ _____    ______ ____
ROOT
ATOM      1  N   UNL     1      -1.040  -0.880   0.199  0.00  0.00    -0.226 NA
ATOM      2  C   UNL     1      -1.196  -1.903  -0.611  0.00  0.00    +0.166 C 
ATOM      3  N   UNL     1      -2.134  -2.911  -0.549  0.00  0.00    -0.260 N 
ATOM      4  C   UNL     1      -2.149  -3.874  -1.455  0.00  0.00    +0.256 C 
ATOM      5  O   UNL     1      -2.970  -4.772  -1.415  0.00  0.00    -0.269 OA
ATOM      6  C   UNL     1      -1.128  -3.811  -2.516  0.00  0.00    +0.078 C 
ATOM      7  C   UNL     1      -0.916  -4.655  -3.560  0.00  0.00    +0.032 C 
ATOM      8  S   UNL     1      -0.250  -2.321  -2.067  0.00  0.00    -0.049 S 
ATOM      9  H   UNL     1      -2.788  -2.915   0.167  0.00  0.00    +0.157 HD
ENDROOT
BRANCH   1  15
ATOM     10  C   UNL     1      -0.310   1.398   0.061  0.00  0.00    +0.030 A 
ATOM     11  C   UNL     1       0.697   2.311  -0.172  0.00  0.00    +0.040 A 
ATOM     12  C   UNL     1       1.970   1.874  -0.498  0.00  0.00    +0.124 A 
ATOM     13  C   UNL     1       2.240   0.518  -0.592  0.00  0.00    +0.040 A 
ATOM     14  C   UNL     1       1.241  -0.405  -0.360  0.00  0.00    +0.030 A 
ATOM     15  C   UNL     1      -0.044   0.030  -0.032  0.00  0.00    +0.067 A 
ATOM     16  F   UNL     1       2.953   2.772  -0.726  0.00  0.00    -0.205 F 
ENDBRANCH   1  15
BRANCH   7  17
ATOM     17  C   UNL     1      -1.874  -5.729  -3.840  0.00  0.00    +0.019 A 
ATOM     18  C   UNL     1      -3.251  -5.484  -3.758  0.00  0.00    +0.030 A 
ATOM     19  C   UNL     1      -4.146  -6.496  -4.022  0.00  0.00    +0.060 A 
ATOM     20  C   UNL     1      -3.687  -7.764  -4.370  0.00  0.00    +0.134 A 
ATOM     21  C   UNL     1      -2.326  -8.018  -4.453  0.00  0.00    +0.092 A 
ATOM     22  C   UNL     1      -1.415  -7.009  -4.197  0.00  0.00    +0.128 A 
ATOM     23 BR   UNL     1      -6.004  -6.164  -3.912  0.00  0.00    -0.047 Br
BRANCH  22  24
ATOM     24  O   UNL     1      -0.083  -7.255  -4.284  0.00  0.00    -0.506 OA
ATOM     25  H   UNL     1       0.316  -7.560  -3.457  0.00  0.00    +0.292 HD
ENDBRANCH  22  24
BRANCH  20  26
ATOM     26  O   UNL     1      -4.577  -8.757  -4.628  0.00  0.00    -0.506 OA
ATOM     27  H   UNL     1      -4.844  -8.814  -5.556  0.00  0.00    +0.292 HD
ENDBRANCH  20  26
ENDBRANCH   7  17
TORSDOF 4
