REMARK  Name = ZINC07235802
REMARK  7 active torsions:
REMARK  status: ('A' for Active; 'I' for Inactive)
REMARK    1  A    between atoms: C_1  and  C_2
REMARK    2  A    between atoms: C_2  and  C_4
REMARK    3  A    between atoms: C_2  and  S_17
REMARK    4  A    between atoms: N_6  and  C_7
REMARK    5  A    between atoms: S_17  and  C_18
REMARK    6  A    between atoms: C_21  and  C_24
REMARK    7  A    between atoms: N_22  and  C_23
REMARK                            x       y       z     vdW  Elec       q    Type
REMARK                         _______ _______ _______ _____ _____    ______ ____
ROOT
ATOM      1  C   UNL     1       6.831   6.071   0.725  0.00  0.00    +0.029 C 
ATOM      2  C   UNL     1       6.402   6.533  -0.670  0.00  0.00    +0.137 C 
ENDROOT
BRANCH   2   3
ATOM      3  C   UNL     1       7.265   7.689  -1.103  0.00  0.00    +0.227 C 
ATOM      4  O   UNL     1       6.886   8.828  -0.927  0.00  0.00    -0.275 OA
ATOM      5  N   UNL     1       8.457   7.459  -1.688  0.00  0.00    -0.309 N 
ATOM      6  H   UNL     1       8.760   6.548  -1.829  0.00  0.00    +0.149 HD
BRANCH   5   7
ATOM      7  C   UNL     1       9.296   8.583  -2.109  0.00  0.00    +0.035 C 
ATOM      8  C   UNL     1       9.641   9.446  -0.894  0.00  0.00    +0.029 C 
ATOM      9  C   UNL     1      10.517  10.620  -1.334  0.00  0.00    -0.008 C 
ATOM     10  C   UNL     1      11.806  10.088  -1.964  0.00  0.00    +0.007 C 
ATOM     11  C   UNL     1      11.461   9.225  -3.179  0.00  0.00    -0.008 C 
ATOM     12  C   UNL     1      10.585   8.050  -2.739  0.00  0.00    +0.029 C 
ATOM     13  C   UNL     1      10.704  10.069  -4.206  0.00  0.00    +0.007 C 
ATOM     14  C   UNL     1       9.415  10.602  -3.576  0.00  0.00    -0.008 C 
ATOM     15  C   UNL     1       9.760  11.465  -2.361  0.00  0.00    +0.007 C 
ATOM     16  C   UNL     1       8.539   9.428  -3.136  0.00  0.00    +0.029 C 
ENDBRANCH   5   7
ENDBRANCH   2   3
BRANCH   2  17
ATOM     17  S   UNL     1       4.670   7.055  -0.626  0.00  0.00    -0.074 S 
BRANCH  17  18
ATOM     18  C   UNL     1       3.895   5.518  -0.250  0.00  0.00    +0.192 A 
ATOM     19  N   UNL     1       4.499   4.364  -0.070  0.00  0.00    -0.122 NA
ATOM     20  N   UNL     1       3.635   3.450   0.188  0.00  0.00    -0.128 NA
ATOM     21  C   UNL     1       2.426   3.962   0.190  0.00  0.00    +0.167 A 
ATOM     22  N   UNL     1       2.555   5.302  -0.096  0.00  0.00    -0.305 N 
ATOM     23  C   UNL     1       1.480   6.290  -0.210  0.00  0.00    +0.153 C 
BRANCH  21  24
ATOM     24  C   UNL     1       1.164   3.236   0.444  0.00  0.00    +0.054 A 
ATOM     25  C   UNL     1       0.216   3.764   1.321  0.00  0.00    +0.014 A 
ATOM     26  C   UNL     1      -0.960   3.082   1.555  0.00  0.00    +0.001 A 
ATOM     27  C   UNL     1      -1.199   1.872   0.927  0.00  0.00    +0.003 A 
ATOM     28  C   UNL     1      -0.268   1.343   0.052  0.00  0.00    +0.039 A 
ATOM     29  C   UNL     1       0.915   2.017  -0.192  0.00  0.00    +0.134 A 
ATOM     30  F   UNL     1       1.827   1.498  -1.043  0.00  0.00    -0.205 F 
ENDBRANCH  21  24
ENDBRANCH  17  18
ENDBRANCH   2  17
TORSDOF 5
