REMARK  Name = ZINC63738763
REMARK  9 active torsions:
REMARK  status: ('A' for Active; 'I' for Inactive)
REMARK    1  A    between atoms: C_1  and  C_2
REMARK    2  A    between atoms: C_2  and  C_4
REMARK    3  A    between atoms: C_2  and  C_24
REMARK    4  A    between atoms: C_10  and  C_12
REMARK    5  A    between atoms: C_18  and  O_22
REMARK    6  A    between atoms: O_22  and  C_23
REMARK    7  A    between atoms: N_26  and  C_27
REMARK    8  A    between atoms: C_27  and  C_28
REMARK    9  A    between atoms: C_28  and  C_29
REMARK                            x       y       z     vdW  Elec       q    Type
REMARK                         _______ _______ _______ _____ _____    ______ ____
ROOT
ATOM      1  C   UNL     1      -1.433  -0.534   0.013  0.00  0.00    +0.004 C 
ATOM      2  C   UNL     1      -1.412  -2.064   0.006  0.00  0.00    +0.023 C 
ATOM      3  C   UNL     1      -2.850  -2.591   0.052  0.00  0.00    +0.108 C 
ATOM      4  N   UNL     1      -3.608  -1.993  -1.055  0.00  0.00    -0.300 N 
ATOM      5  C   UNL     1      -3.620  -0.530  -1.195  0.00  0.00    +0.108 C 
ATOM      6  C   UNL     1      -2.173  -0.026  -1.227  0.00  0.00    +0.023 C 
ATOM      7  C   UNL     1      -4.280  -2.771  -1.927  0.00  0.00    +0.242 C 
ATOM      8  O   UNL     1      -4.263  -3.977  -1.801  0.00  0.00    -0.273 OA
ENDROOT
BRANCH   7   9
ATOM      9  C   UNL     1      -5.053  -2.143  -3.057  0.00  0.00    +0.190 C 
ATOM     10  C   UNL     1      -6.158  -1.267  -2.510  0.00  0.00    +0.016 C 
ATOM     11  C   UNL     1      -7.315  -1.789  -2.972  0.00  0.00    -0.003 A 
ATOM     12  C   UNL     1      -8.720  -1.400  -2.795  0.00  0.00    +0.013 A 
ATOM     13  C   UNL     1      -9.685  -2.132  -3.393  0.00  0.00    +0.046 A 
ATOM     14  C   UNL     1      -9.376  -3.258  -4.179  0.00  0.00    +0.122 A 
ATOM     15  C   UNL     1      -8.101  -3.677  -4.386  0.00  0.00    +0.071 A 
ATOM     16  C   UNL     1      -7.015  -2.977  -3.804  0.00  0.00    +0.047 A 
ATOM     17  N   UNL     1      -5.717  -3.180  -3.854  0.00  0.00    -0.370 N 
ATOM     18  H   UNL     1      -5.273  -3.896  -4.336  0.00  0.00    +0.161 HD
BRANCH  14  19
ATOM     19  O   UNL     1     -10.391  -3.951  -4.753  0.00  0.00    -0.495 OA
ATOM     20  C   UNL     1     -11.717  -3.479  -4.511  0.00  0.00    +0.277 C 
ENDBRANCH  14  19
ENDBRANCH   7   9
BRANCH   1  22
ATOM     21  C   UNL     1      -0.019   1.526   0.010  0.00  0.00    +0.017 C 
ATOM     22  C   UNL     1       0.002  -0.004   0.002  0.00  0.00    +0.075 C 
BRANCH  22  23
ATOM     23  C   UNL     1       0.731  -0.503   1.223  0.00  0.00    +0.216 C 
ATOM     24  O   UNL     1       0.159  -1.213   2.023  0.00  0.00    -0.276 OA
ATOM     25  N   UNL     1       2.019  -0.161   1.426  0.00  0.00    -0.315 N 
ATOM     26  H   UNL     1       2.476   0.406   0.786  0.00  0.00    +0.149 HD
BRANCH  25  27
ATOM     27  C   UNL     1       2.727  -0.647   2.613  0.00  0.00    +0.108 C 
BRANCH  27  28
ATOM     28  C   UNL     1       4.163  -0.117   2.602  0.00  0.00    +0.049 C 
BRANCH  28  29
ATOM     29  C   UNL     1       4.891  -0.616   3.823  0.00  0.00    -0.072 C 
ATOM     30  C   UNL     1       5.607  -1.688   3.706  0.00  0.00    -0.028 C 
ATOM     31  C   UNL     1       6.380  -2.311   4.832  0.00  0.00    +0.027 C 
ATOM     32  C   UNL     1       6.549  -1.305   5.973  0.00  0.00    +0.004 C 
ATOM     33  C   UNL     1       5.178  -0.694   6.290  0.00  0.00    +0.005 C 
ATOM     34  C   UNL     1       4.747   0.164   5.096  0.00  0.00    +0.030 C 
ENDBRANCH  28  29
ENDBRANCH  27  28
ENDBRANCH  25  27
ENDBRANCH  22  23
ENDBRANCH   1  22
TORSDOF 7
