REMARK  Name = ZINC67371656
REMARK  1 active torsions:
REMARK  status: ('A' for Active; 'I' for Inactive)
REMARK    1  A    between atoms: C_3  and  C_11
REMARK                            x       y       z     vdW  Elec       q    Type
REMARK                         _______ _______ _______ _____ _____    ______ ____
ROOT
ATOM      1  C   UNL     1       3.670   2.195  -0.023  0.00  0.00    +0.110 C 
ATOM      2  C   UNL     1       4.165   2.372  -1.474  0.00  0.00    +0.029 C 
ATOM      3  C   UNL     1       4.736   3.815  -1.472  0.00  0.00    +0.021 C 
ATOM      4  C   UNL     1       3.757   4.535  -0.512  0.00  0.00    +0.108 C 
ATOM      5  N   UNL     1       3.449   3.538   0.533  0.00  0.00    -0.292 N 
ATOM      6  C   UNL     1       3.022   3.818   1.820  0.00  0.00    +0.218 A 
ATOM      7  N   UNL     1       2.787   2.816   2.655  0.00  0.00    -0.222 NA
ATOM      8  C   UNL     1       2.378   3.049   3.892  0.00  0.00    +0.131 A 
ATOM      9  C   UNL     1       2.198   4.359   4.309  0.00  0.00    +0.054 A 
ATOM     10  C   UNL     1       2.454   5.383   3.409  0.00  0.00    +0.131 A 
ATOM     11  N   UNL     1       2.865   5.080   2.189  0.00  0.00    -0.222 NA
ATOM     12 BR   UNL     1       1.615   4.741   6.067  0.00  0.00    -0.047 Br
ENDROOT
BRANCH   1  15
ATOM     13  C   UNL     1      -0.017   1.378   0.010  0.00  0.00    +0.004 A 
ATOM     14  C   UNL     1       1.170   2.088   0.002  0.00  0.00    +0.009 A 
ATOM     15  C   UNL     1       2.378   1.418  -0.014  0.00  0.00    +0.018 A 
ATOM     16  C   UNL     1       2.404   0.031  -0.023  0.00  0.00    +0.167 A 
ATOM     17  C   UNL     1       1.212  -0.683  -0.013  0.00  0.00    +0.162 A 
ATOM     18  C   UNL     1       0.002  -0.004   0.002  0.00  0.00    +0.049 A 
ATOM     19  O   UNL     1       1.214  -2.044  -0.013  0.00  0.00    -0.485 OA
ATOM     20  C   UNL     1       2.434  -2.685  -0.404  0.00  0.00    +0.270 C 
ATOM     21  C   UNL     1       3.594  -1.997   0.328  0.00  0.00    +0.270 C 
ATOM     22  O   UNL     1       3.602  -0.615  -0.043  0.00  0.00    -0.485 OA
ENDBRANCH   1  15
TORSDOF 1
