REMARK  Name = ZINC66303914
REMARK  9 active torsions:
REMARK  status: ('A' for Active; 'I' for Inactive)
REMARK    1  A    between atoms: C_1  and  C_2
REMARK    2  A    between atoms: C_2  and  C_4
REMARK    3  A    between atoms: C_2  and  N_10
REMARK    4  A    between atoms: C_4  and  C_5
REMARK    5  A    between atoms: C_11  and  C_13
REMARK    6  A    between atoms: C_13  and  C_14
REMARK    7  A    between atoms: C_14  and  C_16
REMARK    8  A    between atoms: C_14  and  N_17
REMARK    9  A    between atoms: C_18  and  C_20
REMARK                            x       y       z     vdW  Elec       q    Type
REMARK                         _______ _______ _______ _____ _____    ______ ____
ROOT
ATOM      1  C   UNL     1      -3.442  -1.177   1.191  0.00  0.00    +0.117 C 
ENDROOT
BRANCH   1   3
ATOM      2  N   UNL     1      -1.372  -0.511   0.012  0.00  0.00    -0.312 N 
ATOM      3  C   UNL     1      -2.029  -0.655   1.181  0.00  0.00    +0.215 C 
ATOM      4  O   UNL     1      -1.481  -0.365   2.224  0.00  0.00    -0.276 OA
ATOM      5  H   UNL     1      -1.810  -0.743  -0.822  0.00  0.00    +0.149 HD
BRANCH   2   7
ATOM      6  C   UNL     1      -0.019   1.526   0.010  0.00  0.00    +0.028 C 
ATOM      7  C   UNL     1       0.002  -0.004   0.002  0.00  0.00    +0.075 C 
BRANCH   7   8
ATOM      8  C   UNL     1       0.718  -0.497  -1.257  0.00  0.00    +0.064 C 
BRANCH   8   9
ATOM      9  C   UNL     1       0.847  -1.998  -1.206  0.00  0.00    -0.008 A 
ATOM     10  C   UNL     1      -0.004  -2.944  -1.671  0.00  0.00    +0.011 A 
ATOM     11  C   UNL     1       0.324  -4.278  -1.513  0.00  0.00    +0.008 A 
ATOM     12  C   UNL     1       1.488  -4.600  -0.897  0.00  0.00    +0.045 A 
ATOM     13  S   UNL     1       2.165  -2.991  -0.523  0.00  0.00    -0.102 S 
ENDBRANCH   8   9
ENDBRANCH   7   8
ENDBRANCH   2   7
ENDBRANCH   1   3
BRANCH   1  14
ATOM     14  C   UNL     1      -3.951  -1.243   2.633  0.00  0.00    +0.079 C 
ATOM     15  C   UNL     1      -5.425  -1.653   2.636  0.00  0.00    +0.028 C 
BRANCH  14  16
ATOM     16  N   UNL     1      -3.168  -2.229   3.382  0.00  0.00    -0.312 N 
ATOM     17  C   UNL     1      -3.060  -2.128   4.721  0.00  0.00    +0.216 C 
ATOM     18  O   UNL     1      -3.611  -1.220   5.307  0.00  0.00    -0.276 OA
ATOM     19  H   UNL     1      -2.727  -2.956   2.914  0.00  0.00    +0.149 HD
BRANCH  17  20
ATOM     20  C   UNL     1      -2.255  -3.142   5.492  0.00  0.00    +0.075 C 
ATOM     21  C   UNL     1      -2.848  -4.536   5.273  0.00  0.00    +0.013 C 
ATOM     22  C   UNL     1      -2.030  -5.566   6.056  0.00  0.00    +0.001 C 
ATOM     23  C   UNL     1      -2.070  -5.223   7.546  0.00  0.00    +0.000 C 
ATOM     24  C   UNL     1      -1.477  -3.829   7.764  0.00  0.00    +0.001 C 
ATOM     25  C   UNL     1      -2.294  -2.799   6.982  0.00  0.00    +0.013 C 
ENDBRANCH  17  20
ENDBRANCH  14  16
ENDBRANCH   1  14
TORSDOF 7
