REMARK  Name = ZINC36597120
REMARK  9 active torsions:
REMARK  status: ('A' for Active; 'I' for Inactive)
REMARK    1  A    between atoms: C_1  and  C_2
REMARK    2  A    between atoms: C_2  and  C_3
REMARK    3  A    between atoms: C_3  and  C_5
REMARK    4  A    between atoms: C_3  and  C_6
REMARK    5  A    between atoms: C_6  and  C_8
REMARK    6  A    between atoms: C_6  and  N_12
REMARK    7  A    between atoms: C_8  and  O_10
REMARK    8  A    between atoms: O_10  and  C_11
REMARK    9  A    between atoms: N_27  and  C_30
REMARK                            x       y       z     vdW  Elec       q    Type
REMARK                         _______ _______ _______ _____ _____    ______ ____
ROOT
ATOM      1  N   UNL     1      -2.255   1.125  -1.997  0.00  0.00    -0.286 N 
ATOM      2  C   UNL     1      -1.041   1.709  -2.028  0.00  0.00    +0.304 C 
ATOM      3  O   UNL     1      -0.038   1.034  -1.894  0.00  0.00    -0.253 OA
ATOM      4  N   UNL     1      -0.938   3.040  -2.209  0.00  0.00    -0.274 N 
ATOM      5  C   UNL     1      -1.958   3.954  -1.671  0.00  0.00    +0.116 C 
ATOM      6  C   UNL     1      -1.311   4.865  -0.619  0.00  0.00    +0.074 C 
ATOM      7  C   UNL     1       0.001   5.373  -1.154  0.00  0.00    +0.040 A 
ATOM      8  C   UNL     1       0.679   4.822  -2.185  0.00  0.00    +0.060 A 
ATOM      9  N   UNL     1       1.793   5.531  -2.375  0.00  0.00    -0.348 N 
ATOM     10  C   UNL     1       1.835   6.505  -1.504  0.00  0.00    +0.171 A 
ATOM     11  N   UNL     1       0.732   6.439  -0.724  0.00  0.00    -0.349 N 
ATOM     12  H   UNL     1       0.504   7.038   0.004  0.00  0.00    +0.166 HD
ATOM     13  C   UNL     1       0.200   3.615  -2.943  0.00  0.00    +0.077 C 
ATOM     14  C   UNL     1      -0.247   4.028  -4.344  0.00  0.00    +0.014 C 
ATOM     15  C   UNL     1      -0.663   2.783  -5.132  0.00  0.00    -0.077 C 
ATOM     16  N   UNL     1       0.472   1.856  -5.222  0.00  0.00    +0.378 N 
ATOM     17  C   UNL     1       0.846   1.395  -3.880  0.00  0.00    -0.077 C 
ATOM     18  C   UNL     1       1.323   2.584  -3.042  0.00  0.00    +0.014 C 
ATOM     19  C   UNL     1       0.094   0.702  -6.048  0.00  0.00    -0.096 C 
ATOM     20  H   UNL     1      -3.049   1.647  -2.191  0.00  0.00    +0.151 HD
ATOM     21  H   UNL     1       1.257   2.327  -5.646  0.00  0.00    -0.082 HD
ATOM     22  H   UNL     1       2.465   5.353  -3.052  0.00  0.00    +0.166 HD
ENDROOT
BRANCH   1  23
ATOM     23  C   UNL     1      -2.375  -0.298  -1.671  0.00  0.00    +0.186 C 
BRANCH  23  24
ATOM     24  C   UNL     1      -2.759  -0.453  -0.198  0.00  0.00    +0.017 C 
ATOM     25  C   UNL     1      -2.787  -1.938   0.169  0.00  0.00    +0.010 C 
BRANCH  24  27
ATOM     26  C   UNL     1      -2.062   1.761   0.726  0.00  0.00    +0.004 C 
ATOM     27  C   UNL     1      -1.731   0.268   0.675  0.00  0.00    +0.002 C 
ENDBRANCH  24  27
ENDBRANCH  23  24
BRANCH  23  28
ATOM     28  C   UNL     1      -3.439  -0.924  -2.535  0.00  0.00    +0.328 C 
ATOM     29  O   UNL     1      -4.036  -0.250  -3.342  0.00  0.00    -0.249 OA
BRANCH  28  30
ATOM     30  O   UNL     1      -3.724  -2.230  -2.410  0.00  0.00    -0.467 OA
ATOM     31  C   UNL     1      -4.744  -2.756  -3.262  0.00  0.00    +0.280 C 
ENDBRANCH  28  30
ENDBRANCH  23  28
ENDBRANCH   1  23
TORSDOF 5
