REMARK  Name = ZINC64380729
REMARK  6 active torsions:
REMARK  status: ('A' for Active; 'I' for Inactive)
REMARK    1  A    between atoms: C_4  and  C_7
REMARK    2  A    between atoms: C_7  and  N_8
REMARK    3  A    between atoms: C_9  and  C_11
REMARK    4  A    between atoms: N_22  and  C_24
REMARK    5  A    between atoms: C_24  and  C_25
REMARK    6  A    between atoms: C_25  and  C_26
REMARK                            x       y       z     vdW  Elec       q    Type
REMARK                         _______ _______ _______ _____ _____    ______ ____
ROOT
ATOM      1  C   UNL     1       5.764  -1.853   2.984  0.00  0.00    +0.122 C 
ATOM      2  C   UNL     1       6.060  -0.508   3.724  0.00  0.00    +0.155 C 
ATOM      3  C   UNL     1       7.026   0.285   2.838  0.00  0.00    +0.004 C 
ATOM      4  C   UNL     1       8.223  -0.310   2.921  0.00  0.00    +0.008 C 
ATOM      5  C   UNL     1       7.976  -1.473   3.813  0.00  0.00    +0.116 C 
ATOM      6  C   UNL     1       7.143  -2.536   3.006  0.00  0.00    +0.127 C 
ATOM      7  C   UNL     1       7.237  -3.743   3.897  0.00  0.00    +0.223 C 
ATOM      8  O   UNL     1       6.437  -4.654   3.931  0.00  0.00    -0.275 OA
ATOM      9  N   UNL     1       8.357  -3.652   4.658  0.00  0.00    -0.298 N 
ATOM     10  C   UNL     1       9.048  -2.327   4.416  0.00  0.00    +0.147 C 
ATOM     11  O   UNL     1       6.973  -0.993   4.774  0.00  0.00    -0.359 OA
ENDROOT
BRANCH   1  13
ATOM     12  N   UNL     1       4.152  -0.952   1.338  0.00  0.00    -0.311 N 
ATOM     13  C   UNL     1       5.311  -1.601   1.569  0.00  0.00    +0.220 C 
ATOM     14  O   UNL     1       5.989  -1.981   0.638  0.00  0.00    -0.275 OA
ATOM     15  H   UNL     1       3.610  -0.648   2.082  0.00  0.00    +0.149 HD
BRANCH  12  16
ATOM     16  C   UNL     1       3.711  -0.707  -0.038  0.00  0.00    +0.139 C 
BRANCH  16  20
ATOM     17  C   UNL     1      -0.017   1.378   0.010  0.00  0.00    +0.000 A 
ATOM     18  C   UNL     1       1.171   2.086   0.002  0.00  0.00    +0.000 A 
ATOM     19  C   UNL     1       2.377   1.411  -0.013  0.00  0.00    +0.005 A 
ATOM     20  C   UNL     1       2.396   0.029  -0.020  0.00  0.00    -0.030 A 
ATOM     21  C   UNL     1       1.208  -0.679  -0.012  0.00  0.00    +0.005 A 
ATOM     22  C   UNL     1       0.002  -0.004   0.002  0.00  0.00    +0.000 A 
ENDBRANCH  16  20
ENDBRANCH  12  16
ENDBRANCH   1  13
BRANCH   9  23
ATOM     23  C   UNL     1       8.838  -4.702   5.559  0.00  0.00    +0.112 C 
BRANCH  23  24
ATOM     24  C   UNL     1       9.782  -5.635   4.797  0.00  0.00    +0.052 C 
BRANCH  24  25
ATOM     25  C   UNL     1      10.277  -6.715   5.723  0.00  0.00    -0.040 C 
ATOM     26  C   UNL     1       9.762  -7.957   5.873  0.00  0.00    -0.001 A 
ATOM     27  C   UNL     1       8.630  -8.647   5.242  0.00  0.00    +0.010 A 
ATOM     28  C   UNL     1       8.351  -9.919   5.606  0.00  0.00    +0.001 A 
ATOM     29  C   UNL     1       9.114 -10.594   6.569  0.00  0.00    +0.002 A 
ATOM     30  C   UNL     1      10.169 -10.027   7.192  0.00  0.00    +0.026 A 
ATOM     31  C   UNL     1      10.552  -8.692   6.886  0.00  0.00    +0.043 A 
ATOM     32  N   UNL     1      11.518  -7.934   7.345  0.00  0.00    -0.380 N 
ATOM     33  C   UNL     1      11.453  -6.633   6.670  0.00  0.00    +0.144 C 
ATOM     34  H   UNL     1      12.169  -8.192   8.017  0.00  0.00    +0.160 HD
ENDBRANCH  24  25
ENDBRANCH  23  24
ENDBRANCH   9  23
TORSDOF 6
