REMARK  Name = ZINC23408579
REMARK  7 active torsions:
REMARK  status: ('A' for Active; 'I' for Inactive)
REMARK    1  A    between atoms: C_1  and  C_2
REMARK    2  A    between atoms: C_2  and  C_27
REMARK    3  A    between atoms: N_5  and  C_9
REMARK    4  A    between atoms: C_9  and  N_10
REMARK    5  A    between atoms: N_13  and  S_16
REMARK    6  A    between atoms: S_16  and  C_19
REMARK    7  A    between atoms: C_24  and  C_25
REMARK                            x       y       z     vdW  Elec       q    Type
REMARK                         _______ _______ _______ _____ _____    ______ ____
ROOT
ATOM      1  C   UNL     1       1.732   2.998   0.962  0.00  0.00    +0.047 C 
ATOM      2  C   UNL     1       1.405   2.108  -0.239  0.00  0.00    +0.135 C 
ATOM      3  C   UNL     1      -0.046   1.673  -0.202  0.00  0.00    +0.252 C 
ATOM      4  O   UNL     1      -1.026   2.386  -0.246  0.00  0.00    -0.272 OA
ATOM      5  N   UNL     1      -0.021   0.328  -0.115  0.00  0.00    -0.210 N 
ATOM      6  C   UNL     1       1.232  -0.141  -0.092  0.00  0.00    +0.311 C 
ATOM      7  O   UNL     1       1.509  -1.322  -0.018  0.00  0.00    -0.252 OA
ATOM      8  N   UNL     1       2.150   0.840  -0.162  0.00  0.00    -0.281 N 
ATOM      9  H   UNL     1       3.249   0.846  -0.169  0.00  0.00    +0.152 HD
ENDROOT
BRANCH   2  10
ATOM     10  C   UNL     1       1.711   2.825  -1.529  0.00  0.00    -0.012 A 
ATOM     11  C   UNL     1       0.717   3.536  -2.176  0.00  0.00    +0.010 A 
ATOM     12  C   UNL     1       0.994   4.198  -3.357  0.00  0.00    +0.050 A 
ATOM     13  C   UNL     1       2.266   4.142  -3.902  0.00  0.00    +0.166 A 
ATOM     14  C   UNL     1       3.266   3.421  -3.254  0.00  0.00    +0.167 A 
ATOM     15  C   UNL     1       2.983   2.764  -2.067  0.00  0.00    +0.055 A 
ATOM     16  O   UNL     1       4.416   3.518  -3.982  0.00  0.00    -0.453 OA
ATOM     17  C   UNL     1       4.218   4.638  -4.865  0.00  0.00    +0.466 C 
ATOM     18  O   UNL     1       2.790   4.691  -5.037  0.00  0.00    -0.453 OA
ENDBRANCH   2  10
BRANCH   5  19
ATOM     19  C   UNL     1      -1.217  -0.515  -0.053  0.00  0.00    +0.205 C 
BRANCH  19  20
ATOM     20  N   UNL     1      -1.625  -0.886  -1.415  0.00  0.00    -0.284 NA
ATOM     21  C   UNL     1      -2.382   0.199  -2.052  0.00  0.00    +0.103 C 
ATOM     22  C   UNL     1      -2.631  -0.151  -3.523  0.00  0.00    +0.125 C 
ATOM     23  N   UNL     1      -3.269  -1.475  -3.587  0.00  0.00    -0.174 NA
ATOM     24  C   UNL     1      -2.641  -2.586  -2.856  0.00  0.00    +0.125 C 
ATOM     25  C   UNL     1      -2.392  -2.140  -1.411  0.00  0.00    +0.103 C 
BRANCH  23  26
ATOM     26  S   UNL     1      -4.658  -1.708  -4.458  0.00  0.00    +0.062 S 
ATOM     27  O   UNL     1      -4.785  -0.590  -5.327  0.00  0.00    -0.153 OA
ATOM     28  O   UNL     1      -4.617  -3.045  -4.937  0.00  0.00    -0.153 OA
BRANCH  26  29
ATOM     29  C   UNL     1      -6.005  -1.620  -3.325  0.00  0.00    +0.123 A 
ATOM     30  C   UNL     1      -6.752  -2.746  -3.050  0.00  0.00    +0.030 A 
ATOM     31  C   UNL     1      -7.807  -2.680  -2.158  0.00  0.00    +0.002 A 
ATOM     32  C   UNL     1      -8.126  -1.483  -1.541  0.00  0.00    +0.001 A 
ATOM     33  C   UNL     1      -7.391  -0.347  -1.811  0.00  0.00    +0.021 A 
ATOM     34  C   UNL     1      -6.321  -0.408  -2.707  0.00  0.00    +0.078 A 
BRANCH  34  35
ATOM     35  C   UNL     1      -5.554   0.766  -2.991  0.00  0.00    +0.101 C 
ATOM     36  N   UNL     1      -4.945   1.698  -3.217  0.00  0.00    -0.191 NA
ENDBRANCH  34  35
ENDBRANCH  26  29
ENDBRANCH  23  26
ENDBRANCH  19  20
ENDBRANCH   5  19
TORSDOF 6
