REMARK  Name = ZINC08997540
REMARK  7 active torsions:
REMARK  status: ('A' for Active; 'I' for Inactive)
REMARK    1  A    between atoms: C_1  and  C_2
REMARK    2  A    between atoms: C_3  and  C_22
REMARK    3  A    between atoms: C_4  and  C_16
REMARK    4  A    between atoms: C_22  and  O_24
REMARK    5  A    between atoms: O_24  and  C_25
REMARK    6  A    between atoms: C_25  and  C_26
REMARK    7  A    between atoms: C_25  and  C_27
REMARK                            x       y       z     vdW  Elec       q    Type
REMARK                         _______ _______ _______ _____ _____    ______ ____
ROOT
ATOM      1  C   UNL     1      -0.018   1.503   0.010  0.00  0.00    +0.061 C 
ATOM      2  C   UNL     1       0.002  -0.004   0.002  0.00  0.00    +0.020 C 
ATOM      3  C   UNL     1      -1.164  -0.667   0.004  0.00  0.00    +0.080 C 
ATOM      4  C   UNL     1      -1.259  -2.168   0.007  0.00  0.00    +0.161 C 
ATOM      5  N   UNL     1       0.052  -2.744  -0.296  0.00  0.00    -0.301 N 
ATOM      6  C   UNL     1       0.387  -4.026  -0.621  0.00  0.00    +0.069 A 
ATOM      7  C   UNL     1      -0.360  -5.187  -0.781  0.00  0.00    +0.028 A 
ATOM      8  C   UNL     1       0.329  -6.340  -1.122  0.00  0.00    +0.002 A 
ATOM      9  C   UNL     1       1.702  -6.348  -1.299  0.00  0.00    +0.002 A 
ATOM     10  C   UNL     1       2.468  -5.207  -1.147  0.00  0.00    +0.028 A 
ATOM     11  C   UNL     1       1.793  -4.030  -0.803  0.00  0.00    +0.066 A 
ATOM     12  N   UNL     1       2.230  -2.773  -0.587  0.00  0.00    -0.327 N 
ATOM     13  C   UNL     1       1.215  -2.007  -0.291  0.00  0.00    +0.179 A 
ATOM     14  N   UNL     1       1.213  -0.649  -0.013  0.00  0.00    -0.290 N 
ATOM     15  H   UNL     1       2.038  -0.173   0.168  0.00  0.00    +0.155 HD
ATOM     16  H   UNL     1       3.154  -2.484  -0.642  0.00  0.00    +0.169 HD
ENDROOT
BRANCH   4  17
ATOM     17  C   UNL     1      -1.711  -2.639   1.366  0.00  0.00    -0.002 A 
ATOM     18  C   UNL     1      -2.883  -3.368   1.502  0.00  0.00    +0.009 A 
ATOM     19  C   UNL     1      -3.260  -3.780   2.771  0.00  0.00    +0.020 A 
ATOM     20  C   UNL     1      -2.460  -3.453   3.850  0.00  0.00    +0.111 A 
ATOM     21  N   UNL     1      -1.353  -2.758   3.683  0.00  0.00    -0.263 NA
ATOM     22  C   UNL     1      -0.960  -2.354   2.490  0.00  0.00    +0.116 A 
ENDBRANCH   4  17
BRANCH   3  23
ATOM     23  C   UNL     1      -2.362   0.082   0.004  0.00  0.00    +0.339 C 
ATOM     24  O   UNL     1      -2.319   1.299   0.001  0.00  0.00    -0.245 OA
BRANCH  23  25
ATOM     25  O   UNL     1      -3.554  -0.551   0.005  0.00  0.00    -0.459 OA
BRANCH  25  26
ATOM     26  C   UNL     1      -4.724   0.269   0.005  0.00  0.00    +0.171 C 
ATOM     27  C   UNL     1      -5.143   0.559  -1.438  0.00  0.00    +0.052 C 
ATOM     28  C   UNL     1      -5.858  -0.460   0.728  0.00  0.00    +0.052 C 
ENDBRANCH  25  26
ENDBRANCH  23  25
ENDBRANCH   3  23
TORSDOF 4
