REMARK  Name = ZINC06108691
REMARK  8 active torsions:
REMARK  status: ('A' for Active; 'I' for Inactive)
REMARK    1  A    between atoms: C_1  and  C_2
REMARK    2  A    between atoms: C_3  and  C_27
REMARK    3  A    between atoms: C_4  and  C_26
REMARK    4  A    between atoms: C_7  and  C_8
REMARK    5  A    between atoms: C_8  and  C_10
REMARK    6  A    between atoms: C_10  and  S_11
REMARK    7  A    between atoms: S_11  and  C_12
REMARK    8  A    between atoms: C_27  and  C_29
REMARK                            x       y       z     vdW  Elec       q    Type
REMARK                         _______ _______ _______ _____ _____    ______ ____
ROOT
ATOM      1  C   UNL     1       2.745   5.733  -1.208  0.00  0.00    +0.191 A 
ATOM      2  N   UNL     1       1.432   5.572  -1.145  0.00  0.00    -0.207 NA
ATOM      3  C   UNL     1       0.839   4.517  -0.592  0.00  0.00    +0.129 A 
ATOM      4  C   UNL     1       1.708   3.527  -0.049  0.00  0.00    +0.051 A 
ATOM      5  C   UNL     1       1.323   2.287   0.606  0.00  0.00    -0.025 A 
ATOM      6  C   UNL     1       2.327   1.495   1.045  0.00  0.00    -0.004 A 
ATOM      7  S   UNL     1       3.821   2.352   0.615  0.00  0.00    -0.073 S 
ATOM      8  C   UNL     1       3.101   3.768  -0.152  0.00  0.00    +0.115 A 
ATOM      9  N   UNL     1       3.612   4.844  -0.718  0.00  0.00    -0.215 NA
ATOM     10  C   UNL     1       2.202   0.177   1.745  0.00  0.00    +0.043 C 
ATOM     11  C   UNL     1       0.753   0.016   2.227  0.00  0.00    +0.005 C 
ATOM     12  C   UNL     1      -0.189   0.369   1.072  0.00  0.00    +0.005 C 
ATOM     13  C   UNL     1      -0.133   1.872   0.800  0.00  0.00    +0.037 C 
ATOM     14  N   UNL     1      -0.537   4.389  -0.548  0.00  0.00    -0.343 N 
ATOM     15  H   UNL     1      -1.094   4.935  -1.124  0.00  0.00    +0.144 HD
ATOM     16  H   UNL     1      -0.946   3.752   0.060  0.00  0.00    +0.144 HD
ENDROOT
BRANCH   1  17
ATOM     17  S   UNL     1       3.378   7.189  -1.973  0.00  0.00    -0.078 S 
BRANCH  17  18
ATOM     18  C   UNL     1       1.827   8.001  -2.434  0.00  0.00    +0.158 C 
BRANCH  18  19
ATOM     19  C   UNL     1       2.129   9.306  -3.125  0.00  0.00    +0.190 C 
ATOM     20  O   UNL     1       3.281   9.653  -3.290  0.00  0.00    -0.290 OA
BRANCH  19  27
ATOM     21  C   UNL     1       2.497  12.036  -4.562  0.00  0.00    +0.047 C 
ATOM     22  C   UNL     1       1.205  11.340  -4.220  0.00  0.00    -0.012 A 
ATOM     23  C   UNL     1      -0.101  11.804  -4.496  0.00  0.00    +0.041 A 
ATOM     24  C   UNL     1      -0.984  10.853  -4.005  0.00  0.00    +0.024 A 
ATOM     25  N   UNL     1      -0.278   9.854  -3.459  0.00  0.00    -0.355 N 
ATOM     26  H   UNL     1      -0.654   9.062  -3.044  0.00  0.00    +0.166 HD
ATOM     27  C   UNL     1       1.070  10.127  -3.582  0.00  0.00    +0.087 A 
ATOM     28  C   UNL     1      -2.488  10.932  -4.072  0.00  0.00    +0.064 C 
BRANCH  23  29
ATOM     29  C   UNL     1      -0.457  13.057  -5.170  0.00  0.00    +0.162 C 
ATOM     30  O   UNL     1      -0.635  14.066  -4.521  0.00  0.00    -0.292 OA
ATOM     31  C   UNL     1      -0.600  13.091  -6.670  0.00  0.00    +0.091 C 
ENDBRANCH  23  29
ENDBRANCH  19  27
ENDBRANCH  18  19
ENDBRANCH  17  18
ENDBRANCH   1  17
TORSDOF 5
