REMARK  Name = ZINC01175997
REMARK  7 active torsions:
REMARK  status: ('A' for Active; 'I' for Inactive)
REMARK    1  A    between atoms: C_1  and  C_2
REMARK    2  A    between atoms: C_5  and  S_8
REMARK    3  A    between atoms: S_8  and  N_11
REMARK    4  A    between atoms: N_11  and  C_12
REMARK    5  A    between atoms: C_17  and  C_18
REMARK    6  A    between atoms: C_18  and  N_19
REMARK    7  A    between atoms: N_19  and  C_20
REMARK                            x       y       z     vdW  Elec       q    Type
REMARK                         _______ _______ _______ _____ _____    ______ ____
ROOT
ATOM      1  C   UNL     1       1.786  -4.795  -1.152  0.00  0.00    +0.053 A 
ATOM      2  C   UNL     1       1.507  -6.151  -1.037  0.00  0.00    +0.025 A 
ATOM      3  C   UNL     1       1.470  -6.743   0.209  0.00  0.00    +0.002 A 
ATOM      4  C   UNL     1       1.716  -5.989   1.343  0.00  0.00    +0.000 A 
ATOM      5  C   UNL     1       2.000  -4.641   1.231  0.00  0.00    +0.007 A 
ATOM      6  C   UNL     1       2.038  -4.042  -0.013  0.00  0.00    -0.008 A 
ENDROOT
BRANCH   1   7
ATOM      7  N   UNL     1       1.818  -4.191  -2.412  0.00  0.00    -0.216 N 
ATOM      8  H   UNL     1       2.455  -3.483  -2.594  0.00  0.00    +0.174 HD
BRANCH   7   9
ATOM      9  S   UNL     1       0.769  -4.685  -3.594  0.00  0.00    +0.072 S 
ATOM     10  O   UNL     1       0.954  -3.806  -4.694  0.00  0.00    -0.150 OA
ATOM     11  O   UNL     1       0.922  -6.093  -3.710  0.00  0.00    -0.150 OA
BRANCH   9  16
ATOM     12  C   UNL     1      -4.820  -3.722  -1.536  0.00  0.00    +0.044 C 
ATOM     13  C   UNL     1      -3.424  -3.963  -2.050  0.00  0.00    -0.050 A 
ATOM     14  C   UNL     1      -2.768  -2.973  -2.759  0.00  0.00    +0.005 A 
ATOM     15  C   UNL     1      -1.488  -3.194  -3.230  0.00  0.00    +0.029 A 
ATOM     16  C   UNL     1      -0.863  -4.404  -2.993  0.00  0.00    +0.109 A 
ATOM     17  C   UNL     1      -1.521  -5.395  -2.289  0.00  0.00    +0.029 A 
ATOM     18  C   UNL     1      -2.800  -5.173  -1.813  0.00  0.00    +0.005 A 
ENDBRANCH   9  16
ENDBRANCH   7   9
ENDBRANCH   1   7
BRANCH   6  19
ATOM     19  C   UNL     1       2.345  -2.571  -0.133  0.00  0.00    +0.138 C 
BRANCH  19  20
ATOM     20  N   UNL     1       1.098  -1.825  -0.314  0.00  0.00    -0.340 N 
ATOM     21  H   UNL     1       0.250  -2.295  -0.339  0.00  0.00    +0.146 HD
BRANCH  20  22
ATOM     22  C   UNL     1       1.130  -0.434  -0.449  0.00  0.00    +0.027 A 
ATOM     23  C   UNL     1      -0.052   0.275  -0.621  0.00  0.00    +0.024 A 
ATOM     24  C   UNL     1      -0.018   1.649  -0.754  0.00  0.00    +0.017 A 
ATOM     25  C   UNL     1       1.192   2.319  -0.718  0.00  0.00    +0.018 A 
ATOM     26  C   UNL     1       2.371   1.615  -0.547  0.00  0.00    +0.017 A 
ATOM     27  C   UNL     1       2.343   0.241  -0.413  0.00  0.00    +0.024 A 
ATOM     28 BR   UNL     1       1.235   4.201  -0.901  0.00  0.00    -0.050 Br
ENDBRANCH  20  22
ENDBRANCH  19  20
ENDBRANCH   6  19
TORSDOF 6
