REMARK  Name = ZINC48599100
REMARK  4 active torsions:
REMARK  status: ('A' for Active; 'I' for Inactive)
REMARK    1  A    between atoms: C_6  and  C_7
REMARK    2  A    between atoms: N_12  and  C_13
REMARK    3  A    between atoms: C_13  and  C_14
REMARK    4  A    between atoms: C_14  and  C_15
REMARK                            x       y       z     vdW  Elec       q    Type
REMARK                         _______ _______ _______ _____ _____    ______ ____
ROOT
ATOM      1  C   UNL     1      -1.293  -0.775   0.010  0.00  0.00    -0.038 C 
ATOM      2  C   UNL     1      -1.579  -1.305   1.431  0.00  0.00    -0.013 C 
ATOM      3  C   UNL     1      -2.181  -2.710   1.165  0.00  0.00    -0.020 C 
ATOM      4  C   UNL     1      -1.367  -3.170  -0.070  0.00  0.00    -0.078 C 
ATOM      5  N   UNL     1      -1.186  -1.944  -0.882  0.00  0.00    +0.385 N 
ATOM      6  H   UNL     1      -0.277  -1.956  -1.319  0.00  0.00    -0.081 HD
ENDROOT
BRANCH   1  12
ATOM      7  C   UNL     1      -0.017   1.378   0.010  0.00  0.00    +0.003 A 
ATOM      8  C   UNL     1       1.171   2.086   0.002  0.00  0.00    +0.015 A 
ATOM      9  C   UNL     1       2.378   1.411  -0.013  0.00  0.00    +0.018 A 
ATOM     10  C   UNL     1       2.396   0.027  -0.021  0.00  0.00    +0.015 A 
ATOM     11  C   UNL     1       1.208  -0.679  -0.013  0.00  0.00    +0.003 A 
ATOM     12  C   UNL     1       0.002  -0.004   0.002  0.00  0.00    -0.061 A 
ATOM     13 BR   UNL     1       4.003   2.378  -0.024  0.00  0.00    -0.050 Br
ENDBRANCH   1  12
BRANCH   5  14
ATOM     14  C   UNL     1      -2.228  -1.873  -1.916  0.00  0.00    -0.069 C 
BRANCH  14  15
ATOM     15  C   UNL     1      -2.037  -3.019  -2.911  0.00  0.00    +0.078 C 
BRANCH  15  16
ATOM     16  C   UNL     1      -3.106  -2.947  -3.971  0.00  0.00    +0.219 C 
ATOM     17  O   UNL     1      -3.938  -2.066  -3.934  0.00  0.00    -0.275 OA
ATOM     18  N   UNL     1      -3.136  -3.861  -4.961  0.00  0.00    -0.240 N 
ATOM     19  C   UNL     1      -4.092  -3.797  -5.909  0.00  0.00    +0.303 C 
ATOM     20  O   UNL     1      -4.926  -2.914  -5.872  0.00  0.00    -0.253 OA
ATOM     21  N   UNL     1      -4.122  -4.711  -6.899  0.00  0.00    -0.313 N 
ATOM     22  H   UNL     1      -2.470  -4.566  -4.991  0.00  0.00    +0.159 HD
ATOM     23  H   UNL     1      -3.457  -5.416  -6.928  0.00  0.00    +0.146 HD
ATOM     24  H   UNL     1      -4.810  -4.665  -7.581  0.00  0.00    +0.146 HD
ENDBRANCH  15  16
ENDBRANCH  14  15
ENDBRANCH   5  14
TORSDOF 4
