REMARK  Name = ZINC36047235
REMARK  4 active torsions:
REMARK  status: ('A' for Active; 'I' for Inactive)
REMARK    1  A    between atoms: C_1  and  C_2
REMARK    2  A    between atoms: C_11  and  C_13
REMARK    3  A    between atoms: C_15  and  C_22
REMARK    4  A    between atoms: C_16  and  C_18
REMARK                            x       y       z     vdW  Elec       q    Type
REMARK                         _______ _______ _______ _____ _____    ______ ____
ROOT
ATOM      1  C   UNL     1       0.087  -5.557   2.324  0.00  0.00    +0.040 A 
ATOM      2  C   UNL     1       0.107  -6.828   1.823  0.00  0.00    +0.026 A 
ATOM      3  C   UNL     1       0.125  -7.894   2.710  0.00  0.00    +0.002 A 
ATOM      4  C   UNL     1       0.121  -7.630   4.053  0.00  0.00    +0.100 A 
ATOM      5  S   UNL     1       0.100  -5.846   4.085  0.00  0.00    -0.082 S 
ENDROOT
BRANCH   1  16
ATOM      6  C   UNL     1      -0.018   1.503   0.010  0.00  0.00    +0.063 C 
ATOM      7  C   UNL     1       0.002  -0.004   0.002  0.00  0.00    +0.020 A 
ATOM      8  C   UNL     1       0.006  -0.674  -1.173  0.00  0.00    +0.093 A 
ATOM      9  C   UNL     1       0.025  -2.083  -1.177  0.00  0.00    +0.275 A 
ATOM     10  O   UNL     1       0.028  -2.691  -2.233  0.00  0.00    -0.266 OA
ATOM     11  N   UNL     1       0.039  -2.758  -0.010  0.00  0.00    -0.180 N 
ATOM     12  C   UNL     1       0.036  -2.075   1.173  0.00  0.00    +0.139 A 
ATOM     13  N   UNL     1       0.023  -0.692   1.178  0.00  0.00    -0.343 N 
ATOM     14  H   UNL     1       0.024  -0.210   2.020  0.00  0.00    +0.167 HD
ATOM     15  C   UNL     1       0.052  -2.991   2.178  0.00  0.00    +0.077 A 
ATOM     16  C   UNL     1       0.066  -4.271   1.594  0.00  0.00    +0.102 A 
ATOM     17  N   UNL     1       0.059  -4.127   0.282  0.00  0.00    -0.161 NA
ENDBRANCH   1  16
BRANCH   3  18
ATOM     18  C   UNL     1       0.146  -9.292   2.213  0.00  0.00    -0.017 A 
ATOM     19  C   UNL     1       1.080 -10.198   2.713  0.00  0.00    +0.008 A 
ATOM     20  C   UNL     1       1.096 -11.497   2.247  0.00  0.00    +0.001 A 
ATOM     21  C   UNL     1       0.187 -11.900   1.286  0.00  0.00    +0.000 A 
ATOM     22  C   UNL     1      -0.742 -11.006   0.786  0.00  0.00    +0.001 A 
ATOM     23  C   UNL     1      -0.771  -9.706   1.250  0.00  0.00    +0.008 A 
ENDBRANCH   3  18
BRANCH   4  24
ATOM     24  C   UNL     1       0.137  -8.598   5.209  0.00  0.00    +0.424 C 
ATOM     25  F   UNL     1       1.461  -8.877   5.565  0.00  0.00    -0.165 F 
ATOM     26  F   UNL     1      -0.530  -8.032   6.300  0.00  0.00    -0.165 F 
ATOM     27  F   UNL     1      -0.504  -9.783   4.833  0.00  0.00    -0.165 F 
ENDBRANCH   4  24
TORSDOF 3
