REMARK  Name = ZINC15946097
REMARK  8 active torsions:
REMARK  status: ('A' for Active; 'I' for Inactive)
REMARK    1  A    between atoms: C_1  and  C_2
REMARK    2  A    between atoms: C_2  and  C_3
REMARK    3  A    between atoms: C_3  and  C_4
REMARK    4  A    between atoms: C_3  and  C_5
REMARK    5  A    between atoms: C_3  and  C_6
REMARK    6  A    between atoms: C_15  and  O_32
REMARK    7  A    between atoms: C_17  and  C_20
REMARK    8  A    between atoms: C_23  and  C_25
REMARK                            x       y       z     vdW  Elec       q    Type
REMARK                         _______ _______ _______ _____ _____    ______ ____
ROOT
ATOM      1  C   UNL     1       0.739  -2.027  -1.265  0.00  0.00    -0.000 C 
ATOM      2  C   UNL     1       1.461  -2.524  -2.521  0.00  0.00    +0.009 C 
ATOM      3  C   UNL     1       1.274  -4.035  -2.666  0.00  0.00    +0.037 C 
ATOM      4  C   UNL     1       1.676  -4.705  -1.360  0.00  0.00    -0.023 A 
ATOM      5  C   UNL     1       1.760  -3.999  -0.209  0.00  0.00    -0.004 A 
ATOM      6  S   UNL     1       2.254  -5.184   1.013  0.00  0.00    -0.078 S 
ATOM      7  C   UNL     1       2.351  -6.537   0.060  0.00  0.00    +0.080 A 
ATOM      8  C   UNL     1       1.998  -6.114  -1.227  0.00  0.00    +0.068 A 
ATOM      9  C   UNL     1       1.983  -7.138  -2.304  0.00  0.00    +0.220 C 
ATOM     10  N   UNL     1       2.532  -8.294  -2.049  0.00  0.00    -0.220 NA
ATOM     11  C   UNL     1       3.215  -8.628  -0.805  0.00  0.00    +0.260 C 
ATOM     12  N   UNL     1       2.693  -7.843   0.329  0.00  0.00    -0.311 N 
ATOM     13  C   UNL     1       1.487  -2.538  -0.025  0.00  0.00    +0.046 C 
ATOM     14  H   UNL     1       2.596  -8.226   1.215  0.00  0.00    +0.149 HD
ENDROOT
BRANCH  11  15
ATOM     15  C   UNL     1       4.687  -8.346  -0.960  0.00  0.00    +0.148 A 
ATOM     16  C   UNL     1       5.382  -8.413  -2.112  0.00  0.00    +0.049 A 
ATOM     17  C   UNL     1       6.716  -8.075  -1.810  0.00  0.00    +0.050 A 
ATOM     18  C   UNL     1       6.762  -7.817  -0.475  0.00  0.00    +0.135 A 
ATOM     19  O   UNL     1       5.522  -7.980   0.025  0.00  0.00    -0.456 OA
BRANCH  18  20
ATOM     20  C   UNL     1       7.962  -7.421   0.291  0.00  0.00    +0.017 A 
ATOM     21  C   UNL     1       9.190  -7.276  -0.356  0.00  0.00    +0.012 A 
ATOM     22  C   UNL     1      10.307  -6.906   0.365  0.00  0.00    +0.016 A 
ATOM     23  C   UNL     1      10.211  -6.679   1.727  0.00  0.00    +0.018 A 
ATOM     24  C   UNL     1       8.995  -6.822   2.375  0.00  0.00    +0.016 A 
ATOM     25  C   UNL     1       7.870  -7.185   1.664  0.00  0.00    +0.012 A 
ATOM     26 BR   UNL     1      11.746  -6.174   2.708  0.00  0.00    -0.050 Br
ENDBRANCH  18  20
ENDBRANCH  11  15
BRANCH   1  27
ATOM     27  C   UNL     1       0.718  -0.497  -1.257  0.00  0.00    -0.032 C 
ATOM     28  C   UNL     1      -0.022   0.009  -2.496  0.00  0.00    +0.011 C 
ATOM     29  C   UNL     1       2.154   0.032  -1.268  0.00  0.00    +0.011 C 
BRANCH  27  31
ATOM     30  C   UNL     1      -0.019   1.526   0.010  0.00  0.00    +0.004 C 
ATOM     31  C   UNL     1       0.002  -0.004   0.002  0.00  0.00    +0.003 C 
ENDBRANCH  27  31
ENDBRANCH   1  27
BRANCH   9  32
ATOM     32  O   UNL     1       1.420  -6.880  -3.507  0.00  0.00    -0.492 OA
ATOM     33  H   UNL     1       1.468  -7.618  -4.130  0.00  0.00    +0.294 HD
ENDBRANCH   9  32
TORSDOF 5
