REMARK  Name = ZINC49915929
REMARK  4 active torsions:
REMARK  status: ('A' for Active; 'I' for Inactive)
REMARK    1  A    between atoms: C_1  and  C_2
REMARK    2  A    between atoms: N_8  and  S_9
REMARK    3  A    between atoms: S_9  and  C_12
REMARK    4  A    between atoms: C_14  and  C_19
REMARK                            x       y       z     vdW  Elec       q    Type
REMARK                         _______ _______ _______ _____ _____    ______ ____
ROOT
ATOM      1  S   UNL     1       1.660   0.565   2.077  0.00  0.00    +0.064 S 
ATOM      2  O   UNL     1       1.007   1.825   2.162  0.00  0.00    -0.153 OA
ATOM      3  O   UNL     1       1.936  -0.229   3.223  0.00  0.00    -0.153 OA
ENDROOT
BRANCH   1  10
ATOM      4  C   UNL     1       0.189   1.749  -0.031  0.00  0.00    +0.026 C 
ATOM      5  C   UNL     1       0.053   0.226  -0.086  0.00  0.00    +0.077 C 
ATOM      6  C   UNL     1      -1.428  -0.160  -0.023  0.00  0.00    +0.020 C 
ATOM      7  C   UNL     1      -1.551  -1.683   0.062  0.00  0.00    +0.003 C 
ATOM      8  C   UNL     1      -0.867  -2.181   1.337  0.00  0.00    +0.017 C 
ATOM      9  C   UNL     1       0.620  -1.818   1.289  0.00  0.00    +0.110 C 
ATOM     10  N   UNL     1       0.750  -0.372   1.060  0.00  0.00    -0.174 NA
ENDBRANCH   1  10
BRANCH   1  11
ATOM     11  C   UNL     1       3.205   0.852   1.279  0.00  0.00    +0.141 A 
ATOM     12  C   UNL     1       3.558   2.132   0.897  0.00  0.00    +0.036 A 
ATOM     13  C   UNL     1       4.770   2.357   0.271  0.00  0.00    -0.031 A 
ATOM     14  C   UNL     1       5.629   1.302   0.026  0.00  0.00    +0.008 A 
ATOM     15  C   UNL     1       5.278   0.021   0.407  0.00  0.00    +0.040 A 
ATOM     16  C   UNL     1       4.067  -0.204   1.039  0.00  0.00    +0.150 A 
ATOM     17  F   UNL     1       3.724  -1.456   1.417  0.00  0.00    -0.203 F 
BRANCH  13  18
ATOM     18  C   UNL     1       5.154   3.754  -0.146  0.00  0.00    +0.143 C 
ATOM     19 CL   UNL     1       6.043   4.559   1.200  0.00  0.00    -0.120 Cl
ENDBRANCH  13  18
ENDBRANCH   1  11
TORSDOF 3
