REMARK  Name = ZINC39699351
REMARK  13 active torsions:
REMARK  status: ('A' for Active; 'I' for Inactive)
REMARK    1  A    between atoms: C_1  and  C_2
REMARK    2  A    between atoms: C_2  and  N_3
REMARK    3  A    between atoms: N_6  and  C_9
REMARK    4  A    between atoms: C_9  and  C_11
REMARK    5  A    between atoms: C_9  and  C_27
REMARK    6  A    between atoms: C_16  and  O_25
REMARK    7  A    between atoms: C_17  and  O_23
REMARK    8  A    between atoms: O_23  and  C_24
REMARK    9  A    between atoms: O_25  and  C_26
REMARK   10  A    between atoms: N_32  and  C_33
REMARK   11  A    between atoms: C_33  and  C_34
REMARK   12  A    between atoms: C_33  and  C_35
REMARK   13  A    between atoms: C_33  and  C_36
REMARK                            x       y       z     vdW  Elec       q    Type
REMARK                         _______ _______ _______ _____ _____    ______ ____
ROOT
ATOM      1  C   UNL     1      -4.853  -2.639  -1.111  0.00  0.00    +0.115 C 
ENDROOT
BRANCH   1   2
ATOM      2  C   UNL     1      -5.510  -2.275  -2.444  0.00  0.00    +0.119 C 
ATOM      3  C   UNL     1      -6.976  -2.649  -2.357  0.00  0.00    -0.003 C 
ATOM      4  C   UNL     1      -7.453  -3.526  -3.280  0.00  0.00    -0.003 A 
ATOM      5  C   UNL     1      -8.859  -3.938  -3.263  0.00  0.00    +0.059 A 
ATOM      6  C   UNL     1      -9.300  -4.816  -4.200  0.00  0.00    +0.162 A 
ATOM      7  C   UNL     1      -8.433  -5.333  -5.181  0.00  0.00    +0.163 A 
ATOM      8  C   UNL     1      -7.104  -4.981  -5.245  0.00  0.00    +0.073 A 
ATOM      9  C   UNL     1      -6.562  -4.080  -4.317  0.00  0.00    +0.044 A 
ATOM     10  N   UNL     1      -5.271  -3.748  -4.390  0.00  0.00    -0.284 N 
ATOM     11  C   UNL     1      -4.695  -2.907  -3.550  0.00  0.00    +0.226 C 
ATOM     12  O   UNL     1      -3.513  -2.642  -3.666  0.00  0.00    -0.275 OA
ATOM     13  H   UNL     1      -4.731  -4.143  -5.093  0.00  0.00    +0.155 HD
BRANCH   7  14
ATOM     14  O   UNL     1      -8.922  -6.206  -6.094  0.00  0.00    -0.491 OA
ATOM     15  C   UNL     1      -8.007  -6.705  -7.071  0.00  0.00    +0.277 C 
ENDBRANCH   7  14
BRANCH   6  16
ATOM     16  O   UNL     1     -10.604  -5.204  -4.191  0.00  0.00    -0.491 OA
ATOM     17  C   UNL     1     -11.438  -4.648  -3.172  0.00  0.00    +0.277 C 
ENDBRANCH   6  16
ENDBRANCH   1   2
BRANCH   1  21
ATOM     18  N   UNL     1      -1.376  -0.512   0.012  0.00  0.00    +0.381 N 
ATOM     19  C   UNL     1      -2.050  -0.124  -1.234  0.00  0.00    -0.063 C 
ATOM     20  C   UNL     1      -3.492  -0.638  -1.215  0.00  0.00    +0.066 C 
ATOM     21  N   UNL     1      -3.486  -2.101  -1.076  0.00  0.00    -0.299 NA
ATOM     22  C   UNL     1      -2.792  -2.506   0.155  0.00  0.00    +0.066 C 
ATOM     23  C   UNL     1      -1.357  -1.977   0.125  0.00  0.00    -0.063 C 
ATOM     24  H   UNL     1      -1.873  -0.121   0.799  0.00  0.00    -0.082 HD
BRANCH  18  26
ATOM     25  C   UNL     1      -0.019   1.526   0.010  0.00  0.00    -0.017 C 
ATOM     26  C   UNL     1       0.002  -0.004   0.002  0.00  0.00    -0.082 C 
ENDBRANCH  18  26
ENDBRANCH   1  21
BRANCH   1  27
ATOM     27  C   UNL     1      -4.806  -4.161  -0.964  0.00  0.00    +0.236 C 
ATOM     28  N   UNL     1      -4.092  -4.764  -2.097  0.00  0.00    -0.148 NA
ATOM     29  N   UNL     1      -4.862  -5.514  -2.700  0.00  0.00    -0.069 NA
ATOM     30  N   UNL     1      -6.135  -5.555  -2.133  0.00  0.00    -0.179 N 
ATOM     31  N   UNL     1      -6.169  -4.728  -1.037  0.00  0.00    -0.179 NA
ATOM     32  H   UNL     1      -6.880  -6.083  -2.460  0.00  0.00    +0.191 HD
BRANCH  31  33
ATOM     33  C   UNL     1      -6.492  -5.480   0.183  0.00  0.00    +0.035 C 
ATOM     34  C   UNL     1      -6.413  -4.547   1.393  0.00  0.00    +0.029 C 
ATOM     35  C   UNL     1      -7.907  -6.051   0.070  0.00  0.00    +0.029 C 
ATOM     36  C   UNL     1      -5.492  -6.625   0.356  0.00  0.00    +0.029 C 
ENDBRANCH  31  33
ENDBRANCH   1  27
TORSDOF 7
