REMARK  Name = ZINC13606663
REMARK  5 active torsions:
REMARK  status: ('A' for Active; 'I' for Inactive)
REMARK    1  A    between atoms: C_1  and  C_2
REMARK    2  A    between atoms: C_2  and  C_4
REMARK    3  A    between atoms: C_2  and  O_23
REMARK    4  A    between atoms: C_15  and  C_18
REMARK    5  A    between atoms: O_23  and  C_24
REMARK                            x       y       z     vdW  Elec       q    Type
REMARK                         _______ _______ _______ _____ _____    ______ ____
ROOT
ATOM      1  C   UNL     1       0.017  -0.004   0.030  0.00  0.00    +0.256 C 
ATOM      2  O   UNL     1       1.075  -0.589   0.129  0.00  0.00    -0.272 OA
ATOM      3  N   UNL     1      -0.001   1.333  -0.136  0.00  0.00    -0.295 N 
ATOM      4  C   UNL     1      -1.266   2.049  -0.357  0.00  0.00    +0.127 C 
ATOM      5  C   UNL     1      -1.344   3.212   0.645  0.00  0.00    +0.125 C 
ATOM      6  N   UNL     1      -0.134   4.037   0.524  0.00  0.00    -0.311 N 
ATOM      7  C   UNL     1       1.069   3.274   0.880  0.00  0.00    +0.125 C 
ATOM      8  C   UNL     1       1.245   2.114  -0.107  0.00  0.00    +0.127 C 
ATOM      9  C   UNL     1      -0.239   5.190   1.294  0.00  0.00    +0.144 A 
ATOM     10  C   UNL     1      -1.315   6.061   1.107  0.00  0.00    +0.048 A 
ATOM     11  C   UNL     1      -1.381   7.192   1.898  0.00  0.00    +0.037 A 
ATOM     12  C   UNL     1      -0.357   7.400   2.833  0.00  0.00    +0.128 A 
ATOM     13  N   UNL     1       0.631   6.518   2.936  0.00  0.00    -0.144 NA
ATOM     14  N   UNL     1       0.685   5.466   2.203  0.00  0.00    -0.134 NA
ENDROOT
BRANCH  12  15
ATOM     15  C   UNL     1      -0.376   8.596   3.699  0.00  0.00    +0.155 A 
ATOM     16  C   UNL     1       0.549   8.912   4.644  0.00  0.00    +0.051 A 
ATOM     17  C   UNL     1       0.140  10.130   5.222  0.00  0.00    +0.042 A 
ATOM     18  C   UNL     1      -1.008  10.490   4.613  0.00  0.00    +0.196 A 
ATOM     19  O   UNL     1      -1.316   9.561   3.694  0.00  0.00    -0.461 OA
ENDBRANCH  12  15
BRANCH   1  21
ATOM     20  C   UNL     1      -2.026  -0.409   1.375  0.00  0.00    +0.062 C 
ATOM     21  C   UNL     1      -1.277  -0.774   0.091  0.00  0.00    +0.256 C 
BRANCH  21  22
ATOM     22  O   UNL     1      -0.999  -2.175   0.083  0.00  0.00    -0.477 OA
BRANCH  22  23
ATOM     23  C   UNL     1      -1.992  -2.999  -0.344  0.00  0.00    +0.157 A 
ATOM     24  C   UNL     1      -3.183  -2.466  -0.815  0.00  0.00    +0.048 A 
ATOM     25  C   UNL     1      -4.191  -3.305  -1.249  0.00  0.00    +0.004 A 
ATOM     26  C   UNL     1      -4.015  -4.676  -1.215  0.00  0.00    +0.003 A 
ATOM     27  C   UNL     1      -2.829  -5.212  -0.747  0.00  0.00    +0.042 A 
ATOM     28  C   UNL     1      -1.815  -4.377  -0.315  0.00  0.00    +0.165 A 
ATOM     29  F   UNL     1      -0.654  -4.900   0.138  0.00  0.00    -0.202 F 
ENDBRANCH  22  23
ENDBRANCH  21  22
ENDBRANCH   1  21
TORSDOF 4
