REMARK  Name = ZINC51397634
REMARK  5 active torsions:
REMARK  status: ('A' for Active; 'I' for Inactive)
REMARK    1  A    between atoms: C_1  and  N_2
REMARK    2  A    between atoms: N_2  and  C_3
REMARK    3  A    between atoms: C_3  and  C_4
REMARK    4  A    between atoms: C_14  and  C_17
REMARK    5  A    between atoms: C_17  and  N_18
REMARK                            x       y       z     vdW  Elec       q    Type
REMARK                         _______ _______ _______ _____ _____    ______ ____
ROOT
ATOM      1  C   UNL     1       0.013   1.464   0.001  0.00  0.00    +0.131 C 
ATOM      2  N   UNL     1       0.031  -0.001   0.007  0.00  0.00    -0.312 N 
ATOM      3  C   UNL     1       0.077  -0.701  -1.193  0.00  0.00    +0.144 A 
ATOM      4  C   UNL     1       0.298  -0.024  -2.392  0.00  0.00    +0.047 A 
ATOM      5  C   UNL     1       0.335  -0.767  -3.560  0.00  0.00    +0.026 A 
ATOM      6  C   UNL     1       0.150  -2.140  -3.466  0.00  0.00    +0.046 A 
ATOM      7  N   UNL     1      -0.054  -2.699  -2.290  0.00  0.00    -0.154 NA
ATOM      8  N   UNL     1      -0.084  -2.016  -1.203  0.00  0.00    -0.134 NA
ENDROOT
BRANCH   2   9
ATOM      9  C   UNL     1       0.001  -0.728   1.279  0.00  0.00    +0.142 C 
BRANCH   9  10
ATOM     10  C   UNL     1      -1.428  -0.892   1.730  0.00  0.00    -0.016 A 
ATOM     11  C   UNL     1      -2.463  -0.480   0.912  0.00  0.00    +0.006 A 
ATOM     12  C   UNL     1      -3.773  -0.631   1.325  0.00  0.00    +0.000 A 
ATOM     13  C   UNL     1      -4.049  -1.193   2.558  0.00  0.00    +0.001 A 
ATOM     14  C   UNL     1      -3.015  -1.605   3.377  0.00  0.00    +0.015 A 
ATOM     15  C   UNL     1      -1.704  -1.459   2.961  0.00  0.00    +0.023 A 
ATOM     16 BR   UNL     1      -0.288  -2.029   4.078  0.00  0.00    -0.050 Br
ENDBRANCH   9  10
ENDBRANCH   2   9
BRANCH   6  17
ATOM     17  C   UNL     1       0.182  -2.991  -4.709  0.00  0.00    -0.028 C 
BRANCH  17  18
ATOM     18  N   UNL     1       1.532  -3.540  -4.893  0.00  0.00    +0.382 N 
ATOM     19  H   UNL     1       2.192  -2.783  -4.987  0.00  0.00    -0.090 HD
ATOM     20  H   UNL     1       1.778  -4.103  -4.093  0.00  0.00    -0.090 HD
ATOM     21  H   UNL     1       1.553  -4.110  -5.725  0.00  0.00    -0.090 HD
ENDBRANCH  17  18
ENDBRANCH   6  17
TORSDOF 4
