REMARK  Name = ZINC19959549
REMARK  5 active torsions:
REMARK  status: ('A' for Active; 'I' for Inactive)
REMARK    1  A    between atoms: C_1  and  C_2
REMARK    2  A    between atoms: C_2  and  S_3
REMARK    3  A    between atoms: S_3  and  C_4
REMARK    4  A    between atoms: C_9  and  C_21
REMARK    5  A    between atoms: C_15  and  C_20
REMARK                            x       y       z     vdW  Elec       q    Type
REMARK                         _______ _______ _______ _____ _____    ______ ____
ROOT
ATOM      1  C   UNL     1       0.792  -2.345  -1.354  0.00  0.00    +0.210 A 
ATOM      2  N   UNL     1       0.226  -3.029  -0.349  0.00  0.00    -0.187 NA
ATOM      3  C   UNL     1       0.359  -4.309  -0.564  0.00  0.00    +0.219 A 
ATOM      4  N   UNL     1       1.032  -4.474  -1.730  0.00  0.00    -0.220 N 
ATOM      5  N   UNL     1       1.292  -3.196  -2.224  0.00  0.00    -0.141 NA
ATOM      6  C   UNL     1       1.371  -5.779  -2.283  0.00  0.00    +0.175 C 
ATOM      7  C   UNL     1       0.587  -6.861  -1.575  0.00  0.00    +0.041 C 
ATOM      8  C   UNL     1      -0.063  -6.633  -0.413  0.00  0.00    +0.020 C 
ATOM      9  N   UNL     1      -0.066  -5.395   0.184  0.00  0.00    -0.287 N 
ATOM     10  C   UNL     1      -0.818  -7.740   0.284  0.00  0.00    +0.055 C 
ATOM     11  C   UNL     1      -1.375  -8.715  -0.755  0.00  0.00    -0.001 C 
ATOM     12  C   UNL     1      -0.203  -9.274  -1.569  0.00  0.00    +0.083 C 
ATOM     13  C   UNL     1       0.558  -8.130  -2.179  0.00  0.00    +0.163 C 
ATOM     14  O   UNL     1       1.162  -8.306  -3.220  0.00  0.00    -0.292 OA
ATOM     15  C   UNL     1      -2.105  -9.859  -0.049  0.00  0.00    +0.008 C 
ATOM     16  H   UNL     1      -0.356  -5.285   1.103  0.00  0.00    +0.155 HD
ENDROOT
BRANCH   6  17
ATOM     17  C   UNL     1       2.846  -6.031  -2.100  0.00  0.00    -0.018 A 
ATOM     18  C   UNL     1       3.389  -6.059  -0.829  0.00  0.00    +0.009 A 
ATOM     19  C   UNL     1       4.741  -6.290  -0.660  0.00  0.00    +0.039 A 
ATOM     20  C   UNL     1       5.551  -6.495  -1.764  0.00  0.00    +0.123 A 
ATOM     21  C   UNL     1       5.006  -6.467  -3.036  0.00  0.00    +0.039 A 
ATOM     22  C   UNL     1       3.653  -6.240  -3.203  0.00  0.00    +0.009 A 
ATOM     23  F   UNL     1       6.873  -6.721  -1.600  0.00  0.00    -0.205 F 
ENDBRANCH   6  17
BRANCH   1  24
ATOM     24  S   UNL     1       0.851  -0.589  -1.490  0.00  0.00    -0.085 S 
BRANCH  24  26
ATOM     25  C   UNL     1      -0.019   1.526   0.010  0.00  0.00    +0.016 C 
ATOM     26  C   UNL     1       0.002  -0.004   0.002  0.00  0.00    +0.074 C 
ENDBRANCH  24  26
ENDBRANCH   1  24
TORSDOF 3
