REMARK  Name = ZINC09310308
REMARK  11 active torsions:
REMARK  status: ('A' for Active; 'I' for Inactive)
REMARK    1  A    between atoms: C_1  and  C_2
REMARK    2  A    between atoms: C_2  and  O_3
REMARK    3  A    between atoms: O_3  and  C_4
REMARK    4  A    between atoms: C_6  and  C_24
REMARK    5  A    between atoms: C_9  and  O_10
REMARK    6  A    between atoms: O_10  and  C_11
REMARK    7  A    between atoms: C_14  and  C_20
REMARK    8  A    between atoms: C_16  and  N_17
REMARK    9  A    between atoms: N_25  and  N_26
REMARK   10  A    between atoms: N_26  and  C_27
REMARK   11  A    between atoms: C_27  and  N_29
REMARK                            x       y       z     vdW  Elec       q    Type
REMARK                         _______ _______ _______ _____ _____    ______ ____
ROOT
ATOM      1  C   UNL     1       3.425   5.968  -0.212  0.00  0.00    +0.163 A 
ATOM      2  C   UNL     1       3.360   7.345  -0.311  0.00  0.00    +0.059 A 
ATOM      3  C   UNL     1       2.118   7.985  -0.295  0.00  0.00    -0.002 A 
ATOM      4  C   UNL     1       0.948   7.229  -0.178  0.00  0.00    +0.013 A 
ATOM      5  C   UNL     1       1.021   5.856  -0.086  0.00  0.00    +0.050 A 
ATOM      6  C   UNL     1       2.255   5.221  -0.097  0.00  0.00    +0.170 A 
ENDROOT
BRANCH   3   7
ATOM      7  C   UNL     1       2.042   9.453  -0.400  0.00  0.00    +0.138 C 
ATOM      8  N   UNL     1       0.887  10.046  -0.384  0.00  0.00    -0.188 NA
BRANCH   8   9
ATOM      9  N   UNL     1       0.815  11.442  -0.483  0.00  0.00    -0.219 N 
ATOM     10  H   UNL     1       1.628  11.965  -0.564  0.00  0.00    +0.176 HD
BRANCH   9  11
ATOM     11  C   UNL     1      -0.384  12.057  -0.467  0.00  0.00    +0.147 C 
ATOM     12  S   UNL     1      -0.472  13.763  -0.589  0.00  0.00    -0.017 S 
BRANCH  11  13
ATOM     13  N   UNL     1      -1.513  11.330  -0.356  0.00  0.00    -0.339 N 
ATOM     14  H   UNL     1      -1.463  10.364  -0.287  0.00  0.00    +0.144 HD
ATOM     15  H   UNL     1      -2.376  11.773  -0.344  0.00  0.00    +0.144 HD
ENDBRANCH  11  13
ENDBRANCH   9  11
ENDBRANCH   8   9
ENDBRANCH   3   7
BRANCH   1  16
ATOM     16  O   UNL     1       4.633   5.341  -0.228  0.00  0.00    -0.489 OA
BRANCH  16  18
ATOM     17  C   UNL     1       7.046   5.294  -0.348  0.00  0.00    +0.048 C 
ATOM     18  C   UNL     1       5.791   6.169  -0.349  0.00  0.00    +0.226 C 
ENDBRANCH  16  18
ENDBRANCH   1  16
BRANCH   6  19
ATOM     19  O   UNL     1       2.321   3.867   0.001  0.00  0.00    -0.450 OA
BRANCH  19  20
ATOM     20  C   UNL     1       1.156   3.168  -0.006  0.00  0.00    +0.159 A 
ATOM     21  C   UNL     1       0.536   2.839   1.191  0.00  0.00    +0.049 A 
ATOM     22  C   UNL     1      -0.649   2.129   1.181  0.00  0.00    +0.016 A 
ATOM     23  C   UNL     1      -1.220   1.751  -0.020  0.00  0.00    +0.057 A 
ATOM     24  C   UNL     1      -0.602   2.073  -1.214  0.00  0.00    +0.048 A 
ATOM     25  C   UNL     1       0.584   2.783  -1.210  0.00  0.00    +0.169 A 
BRANCH  23  26
ATOM     26  C   UNL     1      -2.516   0.982  -0.028  0.00  0.00    +0.417 C 
ATOM     27  F   UNL     1      -2.244  -0.390   0.013  0.00  0.00    -0.166 F 
ATOM     28  F   UNL     1      -3.277   1.339   1.090  0.00  0.00    -0.166 F 
ATOM     29  F   UNL     1      -3.229   1.282  -1.193  0.00  0.00    -0.166 F 
ENDBRANCH  23  26
BRANCH  25  30
ATOM     30  N   UNL     1       1.242   3.132  -2.489  0.00  0.00    +0.060 N 
ATOM     31  O   UNL     1       0.740   2.793  -3.545  0.00  0.00    -0.126 OA
ATOM     32  O   UNL     1       2.287   3.758  -2.485  0.00  0.00    -0.126 OA
ENDBRANCH  25  30
ENDBRANCH  19  20
ENDBRANCH   6  19
TORSDOF 10
