REMARK  Name = ZINC45437844
REMARK  4 active torsions:
REMARK  status: ('A' for Active; 'I' for Inactive)
REMARK    1  A    between atoms: C_1  and  C_2
REMARK    2  A    between atoms: N_14  and  C_15
REMARK    3  A    between atoms: C_15  and  C_16
REMARK    4  A    between atoms: C_15  and  C_19
REMARK                            x       y       z     vdW  Elec       q    Type
REMARK                         _______ _______ _______ _____ _____    ______ ____
ROOT
ATOM      1  C   UNL     1      -0.187   1.511   0.164  0.00  0.00    +0.033 C 
ATOM      2  C   UNL     1      -0.107  -0.016   0.103  0.00  0.00    +0.105 C 
ATOM      3  C   UNL     1      -1.498  -0.615   0.300  0.00  0.00    -0.017 A 
ATOM      4  C   UNL     1      -2.628  -0.163  -0.381  0.00  0.00    +0.013 A 
ATOM      5  C   UNL     1      -3.829  -0.745  -0.159  0.00  0.00    +0.046 A 
ATOM      6  S   UNL     1      -3.417  -1.990   1.053  0.00  0.00    -0.101 S 
ATOM      7  C   UNL     1      -1.682  -1.641   1.175  0.00  0.00    -0.004 A 
ATOM      8  C   UNL     1      -0.659  -2.310   2.034  0.00  0.00    +0.062 C 
ATOM      9  C   UNL     1       0.739  -1.947   1.509  0.00  0.00    +0.115 C 
ATOM     10  N   UNL     1       0.754  -0.513   1.185  0.00  0.00    -0.278 N 
ATOM     11  C   UNL     1       1.546   0.335   1.872  0.00  0.00    +0.303 C 
ATOM     12  O   UNL     1       1.489   1.530   1.656  0.00  0.00    -0.253 OA
ATOM     13  N   UNL     1       2.402  -0.143   2.797  0.00  0.00    -0.296 N 
ATOM     14  H   UNL     1       2.505  -1.101   2.913  0.00  0.00    +0.151 HD
ENDROOT
BRANCH  13  15
ATOM     15  C   UNL     1       3.177   0.783   3.626  0.00  0.00    +0.081 C 
BRANCH  15  16
ATOM     16  C   UNL     1       3.375   0.179   5.017  0.00  0.00    +0.010 C 
ATOM     17  C   UNL     1       2.568   0.779   6.170  0.00  0.00    +0.006 C 
ATOM     18  C   UNL     1       4.072   1.043   6.070  0.00  0.00    +0.006 C 
ENDBRANCH  15  16
BRANCH  15  19
ATOM     19  C   UNL     1       4.540   1.030   2.977  0.00  0.00    +0.010 C 
ATOM     20  C   UNL     1       4.974   2.483   2.775  0.00  0.00    +0.006 C 
ATOM     21  C   UNL     1       4.556   1.635   1.572  0.00  0.00    +0.006 C 
ENDBRANCH  15  19
ENDBRANCH  13  15
TORSDOF 3
