REMARK  Name = ZINC09631642
REMARK  11 active torsions:
REMARK  status: ('A' for Active; 'I' for Inactive)
REMARK    1  A    between atoms: C_1  and  C_2
REMARK    2  A    between atoms: C_2  and  N_3
REMARK    3  A    between atoms: C_7  and  S_27
REMARK    4  A    between atoms: C_11  and  C_15
REMARK    5  A    between atoms: C_15  and  C_16
REMARK    6  A    between atoms: N_18  and  C_19
REMARK    7  A    between atoms: C_20  and  C_26
REMARK    8  A    between atoms: C_24  and  C_25
REMARK    9  A    between atoms: S_27  and  N_30
REMARK   10  A    between atoms: N_30  and  C_31
REMARK   11  A    between atoms: N_30  and  C_32
REMARK                            x       y       z     vdW  Elec       q    Type
REMARK                         _______ _______ _______ _____ _____    ______ ____
ROOT
ATOM      1  N   UNL     1      -2.501   3.034   1.739  0.00  0.00    -0.268 N 
ATOM      2  C   UNL     1      -3.758   3.558   2.063  0.00  0.00    +0.057 A 
ATOM      3  C   UNL     1      -4.790   2.722   2.458  0.00  0.00    +0.027 A 
ATOM      4  C   UNL     1      -6.024   3.257   2.784  0.00  0.00    +0.030 A 
ATOM      5  C   UNL     1      -6.233   4.622   2.718  0.00  0.00    +0.107 A 
ATOM      6  C   UNL     1      -5.210   5.464   2.321  0.00  0.00    +0.053 A 
ATOM      7  C   UNL     1      -3.975   4.935   1.989  0.00  0.00    +0.051 A 
ATOM      8  N   UNL     1      -2.927   5.763   1.562  0.00  0.00    -0.331 N 
ATOM      9  C   UNL     1      -1.548   5.324   1.818  0.00  0.00    +0.166 C 
ATOM     10  C   UNL     1      -1.444   3.844   1.549  0.00  0.00    +0.241 C 
ATOM     11  O   UNL     1      -0.396   3.380   1.154  0.00  0.00    -0.273 OA
ATOM     12  H   UNL     1      -3.108   6.603   1.111  0.00  0.00    +0.147 HD
ENDROOT
BRANCH   5  13
ATOM     13  S   UNL     1      -7.807   5.291   3.141  0.00  0.00    +0.060 S 
ATOM     14  O   UNL     1      -8.430   4.349   4.003  0.00  0.00    -0.153 OA
ATOM     15  O   UNL     1      -7.585   6.642   3.522  0.00  0.00    -0.153 OA
BRANCH  13  16
ATOM     16  N   UNL     1      -8.710   5.332   1.754  0.00  0.00    -0.183 NA
ATOM     17  C   UNL     1      -9.540   4.183   1.385  0.00  0.00    +0.131 C 
ATOM     18  C   UNL     1      -8.679   6.519   0.895  0.00  0.00    +0.131 C 
ENDBRANCH  13  16
ENDBRANCH   5  13
BRANCH   1  20
ATOM     19  C   UNL     1      -2.601   1.167   0.163  0.00  0.00    +0.025 C 
ATOM     20  C   UNL     1      -2.334   1.585   1.610  0.00  0.00    +0.110 C 
ENDBRANCH   1  20
BRANCH   9  21
ATOM     21  C   UNL     1      -1.185   5.603   3.278  0.00  0.00    +0.127 C 
BRANCH  21  22
ATOM     22  C   UNL     1      -1.179   7.090   3.519  0.00  0.00    +0.219 C 
ATOM     23  O   UNL     1      -1.440   7.852   2.612  0.00  0.00    -0.275 OA
ATOM     24  N   UNL     1      -0.884   7.574   4.742  0.00  0.00    -0.285 N 
ATOM     25  H   UNL     1      -0.727   6.964   5.479  0.00  0.00    +0.155 HD
BRANCH  24  26
ATOM     26  C   UNL     1      -0.804   8.956   4.947  0.00  0.00    +0.039 A 
ATOM     27  C   UNL     1       0.001   9.736   4.128  0.00  0.00    -0.029 A 
ATOM     28  C   UNL     1       0.074  11.100   4.331  0.00  0.00    +0.005 A 
ATOM     29  C   UNL     1      -0.646  11.688   5.354  0.00  0.00    +0.001 A 
ATOM     30  C   UNL     1      -1.445  10.913   6.175  0.00  0.00    +0.005 A 
ATOM     31  C   UNL     1      -1.526   9.549   5.974  0.00  0.00    -0.029 A 
ATOM     32  C   UNL     1      -2.398   8.706   6.869  0.00  0.00    +0.045 C 
ATOM     33  C   UNL     1       0.791   9.095   3.016  0.00  0.00    +0.045 C 
ENDBRANCH  24  26
ENDBRANCH  21  22
ENDBRANCH   9  21
TORSDOF 6
