REMARK  Name = ZINC00885838
REMARK  10 active torsions:
REMARK  status: ('A' for Active; 'I' for Inactive)
REMARK    1  A    between atoms: C_1  and  C_2
REMARK    2  A    between atoms: C_5  and  C_7
REMARK    3  A    between atoms: C_7  and  C_9
REMARK    4  A    between atoms: C_7  and  N_19
REMARK    5  A    between atoms: N_11  and  C_12
REMARK    6  A    between atoms: C_12  and  C_13
REMARK    7  A    between atoms: N_19  and  C_20
REMARK    8  A    between atoms: C_20  and  C_21
REMARK    9  A    between atoms: C_26  and  C_28
REMARK   10  A    between atoms: C_31  and  C_34
REMARK                            x       y       z     vdW  Elec       q    Type
REMARK                         _______ _______ _______ _____ _____    ______ ____
ROOT
ATOM      1  N   UNL     1      -5.263   1.205   3.783  0.00  0.00    -0.273 N 
ATOM      2  C   UNL     1      -6.463   1.813   3.871  0.00  0.00    +0.264 C 
ATOM      3  O   UNL     1      -7.068   2.114   2.859  0.00  0.00    -0.268 OA
ENDROOT
BRANCH   2   4
ATOM      4  C   UNL     1      -7.038   2.113   5.186  0.00  0.00    +0.102 A 
ATOM      5  C   UNL     1      -8.323   2.554   5.428  0.00  0.00    +0.033 A 
ATOM      6  C   UNL     1      -8.458   2.711   6.806  0.00  0.00    +0.028 A 
ATOM      7  C   UNL     1      -7.254   2.373   7.385  0.00  0.00    +0.047 A 
ATOM      8  N   UNL     1      -6.389   2.008   6.396  0.00  0.00    -0.351 N 
ATOM      9  H   UNL     1      -5.471   1.723   6.523  0.00  0.00    +0.166 HD
BRANCH   7  10
ATOM     10  C   UNL     1      -6.952   2.401   8.832  0.00  0.00    -0.002 A 
ATOM     11  C   UNL     1      -5.688   2.027   9.291  0.00  0.00    +0.010 A 
ATOM     12  C   UNL     1      -5.410   2.062  10.642  0.00  0.00    +0.001 A 
ATOM     13  C   UNL     1      -6.385   2.454  11.542  0.00  0.00    +0.000 A 
ATOM     14  C   UNL     1      -7.642   2.820  11.094  0.00  0.00    +0.001 A 
ATOM     15  C   UNL     1      -7.931   2.796   9.745  0.00  0.00    +0.010 A 
ENDBRANCH   7  10
ENDBRANCH   2   4
BRANCH   1  16
ATOM     16  C   UNL     1      -4.624   1.032   2.476  0.00  0.00    +0.229 C 
BRANCH  16  21
ATOM     17  C   UNL     1      -3.047  -3.667   3.412  0.00  0.00    +0.086 C 
ATOM     18  C   UNL     1      -3.587  -2.463   2.683  0.00  0.00    +0.102 A 
ATOM     19  C   UNL     1      -3.956  -2.426   1.390  0.00  0.00    +0.045 A 
ATOM     20  C   UNL     1      -4.403  -1.110   1.129  0.00  0.00    +0.047 A 
ATOM     21  C   UNL     1      -4.272  -0.419   2.276  0.00  0.00    +0.135 A 
ATOM     22  O   UNL     1      -3.780  -1.245   3.215  0.00  0.00    -0.462 OA
ENDBRANCH  16  21
BRANCH  16  23
ATOM     23  C   UNL     1      -3.369   1.866   2.417  0.00  0.00    +0.241 C 
ATOM     24  O   UNL     1      -3.137   2.675   3.291  0.00  0.00    -0.273 OA
ATOM     25  N   UNL     1      -2.506   1.713   1.394  0.00  0.00    -0.311 N 
ATOM     26  H   UNL     1      -2.692   1.066   0.695  0.00  0.00    +0.149 HD
BRANCH  25  27
ATOM     27  C   UNL     1      -1.287   2.523   1.336  0.00  0.00    +0.135 C 
BRANCH  27  28
ATOM     28  C   UNL     1      -0.488   2.155   0.084  0.00  0.00    +0.135 C 
ATOM     29  C   UNL     1       0.844   2.935   0.047  0.00  0.00    +0.035 C 
ATOM     30  C   UNL     1       1.046   3.262  -1.449  0.00  0.00    +0.031 C 
ATOM     31  C   UNL     1      -0.188   2.641  -2.139  0.00  0.00    +0.160 C 
ATOM     32  O   UNL     1      -1.194   2.572  -1.105  0.00  0.00    -0.375 OA
ENDBRANCH  27  28
ENDBRANCH  25  27
ENDBRANCH  16  23
ENDBRANCH   1  16
BRANCH   1  33
ATOM     33  C   UNL     1      -4.599   0.715   4.994  0.00  0.00    +0.151 C 
BRANCH  33  34
ATOM     34  C   UNL     1      -3.594   1.736   5.463  0.00  0.00    +0.007 A 
ATOM     35  C   UNL     1      -3.793   2.848   6.211  0.00  0.00    +0.013 A 
ATOM     36  C   UNL     1      -2.709   3.646   6.528  0.00  0.00    +0.008 A 
ATOM     37  C   UNL     1      -1.482   3.297   6.072  0.00  0.00    +0.045 A 
ATOM     38  S   UNL     1      -1.834   1.797   5.170  0.00  0.00    -0.100 S 
ENDBRANCH  33  34
ENDBRANCH   1  33
TORSDOF 9
