REMARK  Name = ZINC00173544
REMARK  7 active torsions:
REMARK  status: ('A' for Active; 'I' for Inactive)
REMARK    1  A    between atoms: C_1  and  C_2
REMARK    2  A    between atoms: C_5  and  N_16
REMARK    3  A    between atoms: C_9  and  O_14
REMARK    4  A    between atoms: O_14  and  C_15
REMARK    5  A    between atoms: N_16  and  C_17
REMARK    6  A    between atoms: C_20  and  O_23
REMARK    7  A    between atoms: O_23  and  C_24
REMARK                            x       y       z     vdW  Elec       q    Type
REMARK                         _______ _______ _______ _____ _____    ______ ____
ROOT
ATOM      1  C   UNL     1      -0.019   1.526   0.010  0.00  0.00    +0.028 C 
ATOM      2  C   UNL     1       0.002  -0.004   0.002  0.00  0.00    +0.069 C 
ATOM      3  C   UNL     1       0.725  -0.521   1.253  0.00  0.00    +0.049 C 
ATOM      4  C   UNL     1       0.037   0.050   2.492  0.00  0.00    +0.104 C 
ATOM      5  C   UNL     1      -1.447  -0.201   2.435  0.00  0.00    -0.003 A 
ATOM      6  C   UNL     1      -2.178  -0.162   3.611  0.00  0.00    +0.053 A 
ATOM      7  C   UNL     1      -3.545  -0.386   3.591  0.00  0.00    +0.121 A 
ATOM      8  C   UNL     1      -4.188  -0.649   2.390  0.00  0.00    +0.047 A 
ATOM      9  C   UNL     1      -3.462  -0.689   1.216  0.00  0.00    +0.027 A 
ATOM     10  C   UNL     1      -2.090  -0.467   1.237  0.00  0.00    +0.033 A 
ATOM     11  N   UNL     1      -1.373  -0.521   0.032  0.00  0.00    -0.341 N 
ATOM     12  H   UNL     1      -1.777  -0.893  -0.767  0.00  0.00    +0.146 HD
ENDROOT
BRANCH   7  13
ATOM     13  O   UNL     1      -4.257  -0.347   4.749  0.00  0.00    -0.495 OA
ATOM     14  C   UNL     1      -5.662  -0.587   4.654  0.00  0.00    +0.277 C 
ENDBRANCH   7  13
BRANCH   4  15
ATOM     15  N   UNL     1       0.590  -0.589   3.689  0.00  0.00    -0.337 N 
ATOM     16  H   UNL     1       0.988  -1.471   3.628  0.00  0.00    +0.147 HD
BRANCH  15  17
ATOM     17  C   UNL     1       0.543   0.074   4.921  0.00  0.00    +0.028 A 
ATOM     18  C   UNL     1      -0.022   1.339   5.008  0.00  0.00    +0.026 A 
ATOM     19  C   UNL     1      -0.073   1.990   6.225  0.00  0.00    +0.047 A 
ATOM     20  C   UNL     1       0.449   1.385   7.358  0.00  0.00    +0.120 A 
ATOM     21  C   UNL     1       1.019   0.123   7.271  0.00  0.00    +0.047 A 
ATOM     22  C   UNL     1       1.066  -0.532   6.056  0.00  0.00    +0.026 A 
BRANCH  20  23
ATOM     23  O   UNL     1       0.404   2.028   8.555  0.00  0.00    -0.495 OA
ATOM     24  C   UNL     1      -0.197   3.325   8.572  0.00  0.00    +0.277 C 
ENDBRANCH  20  23
ENDBRANCH  15  17
ENDBRANCH   4  15
TORSDOF 4
