REMARK  Name = ZINC46767727
REMARK  4 active torsions:
REMARK  status: ('A' for Active; 'I' for Inactive)
REMARK    1  A    between atoms: C_8  and  C_11
REMARK    2  A    between atoms: C_11  and  O_13
REMARK    3  A    between atoms: O_13  and  C_14
REMARK    4  A    between atoms: C_14  and  C_15
REMARK                            x       y       z     vdW  Elec       q    Type
REMARK                         _______ _______ _______ _____ _____    ______ ____
ROOT
ATOM      1  C   UNL     1       3.713  -3.382  -0.053  0.00  0.00    +0.357 C 
ATOM      2  O   UNL     1       3.143  -4.456  -0.052  0.00  0.00    -0.243 OA
ENDROOT
BRANCH   1  10
ATOM      3  C   UNL     1      -0.016   1.360   0.009  0.00  0.00    +0.001 A 
ATOM      4  C   UNL     1       1.170   2.084   0.002  0.00  0.00    +0.002 A 
ATOM      5  C   UNL     1       2.385   1.438  -0.013  0.00  0.00    +0.026 A 
ATOM      6  C   UNL     1       2.430   0.047  -0.021  0.00  0.00    +0.048 A 
ATOM      7  C   UNL     1       1.227  -0.684  -0.013  0.00  0.00    +0.014 A 
ATOM      8  C   UNL     1       0.002  -0.004   0.002  0.00  0.00    +0.011 A 
ATOM      9  C   UNL     1       1.576  -2.057  -0.025  0.00  0.00    +0.057 A 
ATOM     10  C   UNL     1       2.934  -2.138  -0.039  0.00  0.00    +0.140 A 
ATOM     11  N   UNL     1       3.463  -0.860  -0.037  0.00  0.00    -0.348 N 
ATOM     12  H   UNL     1       4.408  -0.640  -0.045  0.00  0.00    +0.166 HD
ATOM     13 BR   UNL     1       0.371  -3.515  -0.019  0.00  0.00    -0.047 Br
ENDBRANCH   1  10
BRANCH   1  14
ATOM     14  O   UNL     1       5.060  -3.334  -0.066  0.00  0.00    -0.453 OA
BRANCH  14  15
ATOM     15  C   UNL     1       5.754  -4.583  -0.079  0.00  0.00    +0.295 C 
BRANCH  15  16
ATOM     16  C   UNL     1       7.240  -4.333  -0.093  0.00  0.00    +0.117 A 
ATOM     17  N   UNL     1       8.038  -4.211   0.927  0.00  0.00    -0.241 NA
ATOM     18  C   UNL     1       9.360  -3.987   0.783  0.00  0.00    +0.079 A 
ATOM     19  C   UNL     1      10.364  -3.830   1.762  0.00  0.00    +0.029 A 
ATOM     20  C   UNL     1      11.656  -3.607   1.399  0.00  0.00    +0.002 A 
ATOM     21  C   UNL     1      12.034  -3.528   0.065  0.00  0.00    +0.001 A 
ATOM     22  C   UNL     1      11.078  -3.677  -0.923  0.00  0.00    +0.017 A 
ATOM     23  C   UNL     1       9.771  -3.902  -0.566  0.00  0.00    +0.039 A 
ATOM     24  S   UNL     1       8.244  -4.155  -1.432  0.00  0.00    -0.069 S 
ENDBRANCH  15  16
ENDBRANCH  14  15
ENDBRANCH   1  14
TORSDOF 4
