REMARK  Name = ZINC15867034
REMARK  2 active torsions:
REMARK  status: ('A' for Active; 'I' for Inactive)
REMARK    1  A    between atoms: C_5  and  N_7
REMARK    2  A    between atoms: C_16  and  C_18
REMARK                            x       y       z     vdW  Elec       q    Type
REMARK                         _______ _______ _______ _____ _____    ______ ____
ROOT
ATOM      1  N   UNL     1       3.708   5.090  -2.021  0.00  0.00    -0.268 N 
ATOM      2  C   UNL     1       4.261   4.082  -1.317  0.00  0.00    +0.307 C 
ATOM      3  O   UNL     1       3.803   2.959  -1.401  0.00  0.00    -0.252 OA
ATOM      4  N   UNL     1       5.321   4.319  -0.520  0.00  0.00    -0.278 N 
ATOM      5  C   UNL     1       5.805   5.707  -0.380  0.00  0.00    +0.110 C 
ATOM      6  C   UNL     1       6.166   6.051   1.076  0.00  0.00    +0.019 C 
ATOM      7  C   UNL     1       5.146   5.459   2.017  0.00  0.00    +0.002 C 
ATOM      8  C   UNL     1       5.610   4.075   2.460  0.00  0.00    +0.002 C 
ATOM      9  C   UNL     1       5.251   2.990   1.534  0.00  0.00    +0.028 C 
ATOM     10  C   UNL     1       5.934   3.205   0.168  0.00  0.00    +0.114 C 
ATOM     11  H   UNL     1       4.122   5.967  -2.019  0.00  0.00    +0.156 HD
ENDROOT
BRANCH   1  16
ATOM     12  C   UNL     1       0.519   3.628  -3.126  0.00  0.00    +0.002 A 
ATOM     13  C   UNL     1       0.223   4.434  -4.210  0.00  0.00    +0.001 A 
ATOM     14  C   UNL     1       1.077   5.462  -4.565  0.00  0.00    +0.017 A 
ATOM     15  C   UNL     1       2.234   5.682  -3.842  0.00  0.00    +0.039 A 
ATOM     16  C   UNL     1       2.537   4.871  -2.755  0.00  0.00    +0.049 A 
ATOM     17  C   UNL     1       1.674   3.842  -2.399  0.00  0.00    +0.024 A 
ATOM     18 BR   UNL     1       3.405   7.084  -4.332  0.00  0.00    -0.048 Br
ENDBRANCH   1  16
BRANCH  10  19
ATOM     19  C   UNL     1       5.782   1.957  -0.664  0.00  0.00    +0.010 A 
ATOM     20  C   UNL     1       6.615   1.452  -1.606  0.00  0.00    +0.013 A 
ATOM     21  C   UNL     1       6.269   0.277  -2.247  0.00  0.00    +0.008 A 
ATOM     22  C   UNL     1       5.102  -0.330  -1.921  0.00  0.00    +0.045 A 
ATOM     23  S   UNL     1       4.453   0.765  -0.669  0.00  0.00    -0.100 S 
ENDBRANCH  10  19
TORSDOF 2
