REMARK  Name = ZINC22536925
REMARK  14 active torsions:
REMARK  status: ('A' for Active; 'I' for Inactive)
REMARK    1  A    between atoms: C_1  and  C_2
REMARK    2  A    between atoms: C_4  and  C_35
REMARK    3  A    between atoms: C_6  and  N_8
REMARK    4  A    between atoms: N_8  and  S_9
REMARK    5  A    between atoms: S_9  and  C_12
REMARK    6  A    between atoms: C_15  and  O_18
REMARK    7  A    between atoms: O_18  and  C_19
REMARK    8  A    between atoms: C_19  and  C_20
REMARK    9  A    between atoms: N_22  and  C_23
REMARK   10  A    between atoms: C_23  and  C_25
REMARK   11  A    between atoms: C_23  and  C_26
REMARK   12  A    between atoms: C_28  and  C_34
REMARK   13  A    between atoms: C_29  and  C_33
REMARK   14  A    between atoms: C_31  and  C_32
REMARK                            x       y       z     vdW  Elec       q    Type
REMARK                         _______ _______ _______ _____ _____    ______ ____
ROOT
ATOM      1  C   UNL     1      -0.470   4.628   0.677  0.00  0.00    +0.109 A 
ATOM      2  C   UNL     1       0.843   4.671   1.111  0.00  0.00    +0.032 A 
ATOM      3  C   UNL     1       1.654   5.731   0.756  0.00  0.00    +0.047 A 
ATOM      4  C   UNL     1       1.149   6.758  -0.026  0.00  0.00    +0.121 A 
ATOM      5  C   UNL     1      -0.170   6.716  -0.455  0.00  0.00    +0.047 A 
ATOM      6  C   UNL     1      -0.976   5.652  -0.102  0.00  0.00    +0.032 A 
ENDROOT
BRANCH   1   7
ATOM      7  S   UNL     1      -1.501   3.271   1.126  0.00  0.00    +0.072 S 
ATOM      8  O   UNL     1      -2.842   3.720   0.992  0.00  0.00    -0.150 OA
ATOM      9  O   UNL     1      -0.987   2.757   2.346  0.00  0.00    -0.150 OA
BRANCH   7  10
ATOM     10  N   UNL     1      -1.280   2.091  -0.015  0.00  0.00    -0.216 N 
ATOM     11  H   UNL     1      -2.119   1.783  -0.657  0.00  0.00    +0.174 HD
BRANCH  10  17
ATOM     12  C   UNL     1       2.879   1.550  -2.577  0.00  0.00    +0.044 C 
ATOM     13  C   UNL     1       2.007   1.204  -1.397  0.00  0.00    -0.048 A 
ATOM     14  C   UNL     1       2.444   0.284  -0.462  0.00  0.00    +0.006 A 
ATOM     15  C   UNL     1       1.647  -0.036   0.622  0.00  0.00    -0.048 A 
ATOM     16  C   UNL     1       0.412   0.563   0.774  0.00  0.00    +0.028 A 
ATOM     17  C   UNL     1      -0.029   1.488  -0.163  0.00  0.00    +0.049 A 
ATOM     18  C   UNL     1       0.773   1.807  -1.251  0.00  0.00    +0.028 A 
ATOM     19  C   UNL     1       2.128  -1.040   1.639  0.00  0.00    +0.044 C 
ENDBRANCH  10  17
ENDBRANCH   7  10
ENDBRANCH   1   7
BRANCH   4  20
ATOM     20  O   UNL     1       1.944   7.805  -0.372  0.00  0.00    -0.483 OA
BRANCH  20  21
ATOM     21  C   UNL     1       3.291   7.782   0.105  0.00  0.00    +0.324 C 
BRANCH  21  22
ATOM     22  C   UNL     1       4.015   9.014  -0.374  0.00  0.00    +0.251 C 
ATOM     23  O   UNL     1       3.435   9.831  -1.058  0.00  0.00    -0.272 OA
ATOM     24  N   UNL     1       5.307   9.207  -0.044  0.00  0.00    -0.306 N 
ATOM     25  H   UNL     1       5.833   8.466   0.575  0.00  0.00    +0.149 HD
BRANCH  24  26
ATOM     26  C   UNL     1       6.011  10.404  -0.510  0.00  0.00    +0.100 C 
ATOM     27  C   UNL     1       6.560  10.158  -1.917  0.00  0.00    +0.033 C 
BRANCH  26  28
ATOM     28  C   UNL     1       7.150  10.714   0.426  0.00  0.00    -0.024 A 
ATOM     29  C   UNL     1       7.718   9.704   1.182  0.00  0.00    +0.009 A 
ATOM     30  C   UNL     1       8.763   9.988   2.040  0.00  0.00    -0.047 A 
ATOM     31  C   UNL     1       9.241  11.281   2.144  0.00  0.00    -0.047 A 
ATOM     32  C   UNL     1       8.674  12.290   1.388  0.00  0.00    +0.007 A 
ATOM     33  C   UNL     1       7.632  12.005   0.525  0.00  0.00    -0.045 A 
ATOM     34  C   UNL     1       7.018  13.104  -0.303  0.00  0.00    +0.044 C 
ATOM     35  C   UNL     1      10.381  11.591   3.080  0.00  0.00    +0.044 C 
ATOM     36  C   UNL     1       9.382   8.888   2.864  0.00  0.00    +0.044 C 
ENDBRANCH  26  28
ENDBRANCH  24  26
ENDBRANCH  21  22
ENDBRANCH  20  21
ENDBRANCH   4  20
TORSDOF 8
