REMARK  Name = ZINC10188025
REMARK  9 active torsions:
REMARK  status: ('A' for Active; 'I' for Inactive)
REMARK    1  A    between atoms: C_1  and  O_2
REMARK    2  A    between atoms: O_2  and  C_3
REMARK    3  A    between atoms: C_6  and  C_9
REMARK    4  A    between atoms: C_12  and  C_31
REMARK    5  A    between atoms: C_15  and  C_17
REMARK    6  A    between atoms: C_17  and  N_18
REMARK    7  A    between atoms: N_27  and  C_28
REMARK    8  A    between atoms: C_28  and  C_29
REMARK    9  A    between atoms: C_29  and  O_30
REMARK                            x       y       z     vdW  Elec       q    Type
REMARK                         _______ _______ _______ _____ _____    ______ ____
ROOT
ATOM      1  C   UNL     1       3.711  -0.707  -0.037  0.00  0.00    +0.137 C 
ATOM      2  C   UNL     1       4.372  -0.667   1.355  0.00  0.00    +0.087 C 
ATOM      3  C   UNL     1       5.676   0.060   1.119  0.00  0.00    +0.075 C 
ATOM      4  N   UNL     1       5.770   0.381  -0.129  0.00  0.00    -0.180 NA
ATOM      5  N   UNL     1       4.681  -0.015  -0.901  0.00  0.00    -0.184 N 
ATOM      6  C   UNL     1       4.539   0.199  -2.224  0.00  0.00    +0.255 C 
ATOM      7  O   UNL     1       3.544  -0.193  -2.799  0.00  0.00    -0.272 OA
ENDROOT
BRANCH   1  11
ATOM      8  C   UNL     1      -0.017   1.383   0.010  0.00  0.00    +0.120 A 
ATOM      9  C   UNL     1       1.177   2.091   0.002  0.00  0.00    +0.046 A 
ATOM     10  C   UNL     1       2.380   1.413  -0.013  0.00  0.00    +0.009 A 
ATOM     11  C   UNL     1       2.396   0.030  -0.021  0.00  0.00    -0.024 A 
ATOM     12  C   UNL     1       1.208  -0.677  -0.013  0.00  0.00    +0.009 A 
ATOM     13  C   UNL     1       0.002  -0.004   0.002  0.00  0.00    +0.046 A 
BRANCH   8  15
ATOM     14  C   UNL     1      -1.145   3.475   0.026  0.00  0.00    +0.277 C 
ATOM     15  O   UNL     1      -1.202   2.048   0.019  0.00  0.00    -0.495 OA
ENDBRANCH   8  15
ENDBRANCH   1  11
BRANCH   3  16
ATOM     16  C   UNL     1       6.678   0.356   2.147  0.00  0.00    +0.035 A 
ATOM     17  C   UNL     1       7.891   1.013   2.021  0.00  0.00    +0.017 A 
ATOM     18  C   UNL     1       8.668   1.171   3.145  0.00  0.00    +0.008 A 
ATOM     19  C   UNL     1       8.226   0.684   4.333  0.00  0.00    +0.046 A 
ATOM     20  S   UNL     1       6.650  -0.028   3.890  0.00  0.00    -0.095 S 
ENDBRANCH   3  16
BRANCH   6  21
ATOM     21  C   UNL     1       5.615   0.924  -2.990  0.00  0.00    +0.223 C 
BRANCH  21  22
ATOM     22  N   UNL     1       5.226   1.028  -4.399  0.00  0.00    -0.290 N 
ATOM     23  C   UNL     1       4.515   2.102  -4.825  0.00  0.00    +0.204 A 
ATOM     24  N   UNL     1       4.138   2.258  -6.060  0.00  0.00    -0.218 NA
ATOM     25  C   UNL     1       4.431   1.356  -7.010  0.00  0.00    +0.165 A 
ATOM     26  C   UNL     1       5.164   0.210  -6.663  0.00  0.00    +0.103 A 
ATOM     27  C   UNL     1       5.583   0.056  -5.270  0.00  0.00    +0.265 A 
ATOM     28  O   UNL     1       6.226  -0.913  -4.907  0.00  0.00    -0.267 OA
ATOM     29  C   UNL     1       5.325  -0.553  -7.834  0.00  0.00    +0.150 A 
ATOM     30  N   UNL     1       4.739   0.074  -8.817  0.00  0.00    -0.177 NA
ATOM     31  N   UNL     1       4.173   1.263  -8.341  0.00  0.00    -0.244 N 
BRANCH  31  32
ATOM     32  C   UNL     1       3.430   2.240  -9.141  0.00  0.00    +0.173 C 
BRANCH  32  33
ATOM     33  C   UNL     1       4.401   3.279  -9.706  0.00  0.00    +0.179 C 
BRANCH  33  34
ATOM     34  O   UNL     1       3.676   4.232 -10.486  0.00  0.00    -0.393 OA
ATOM     35  H   UNL     1       4.229   4.923 -10.877  0.00  0.00    +0.209 HD
ENDBRANCH  33  34
ENDBRANCH  32  33
ENDBRANCH  31  32
ENDBRANCH  21  22
ENDBRANCH   6  21
TORSDOF 8
