REMARK  Name = ZINC09605184
REMARK  4 active torsions:
REMARK  status: ('A' for Active; 'I' for Inactive)
REMARK    1  A    between atoms: C_5  and  N_7
REMARK    2  A    between atoms: C_8  and  C_10
REMARK    3  A    between atoms: C_10  and  S_11
REMARK    4  A    between atoms: S_11  and  C_12
REMARK                            x       y       z     vdW  Elec       q    Type
REMARK                         _______ _______ _______ _____ _____    ______ ____
ROOT
ATOM      1  S   UNL     1       1.717  -0.583  -0.037  0.00  0.00    -0.077 S 
ENDROOT
BRANCH   1   2
ATOM      2  C   UNL     1       1.451  -2.325  -0.057  0.00  0.00    +0.191 A 
ATOM      3  N   UNL     1       2.497  -3.143  -0.078  0.00  0.00    -0.207 NA
ATOM      4  C   UNL     1       2.360  -4.458  -0.093  0.00  0.00    +0.129 A 
ATOM      5  C   UNL     1       1.053  -5.022  -0.087  0.00  0.00    +0.047 A 
ATOM      6  C   UNL     1       0.645  -6.417  -0.101  0.00  0.00    +0.021 A 
ATOM      7  C   UNL     1      -0.661  -6.717  -0.092  0.00  0.00    +0.048 A 
ATOM      8  S   UNL     1      -1.455  -5.121  -0.064  0.00  0.00    -0.077 S 
ATOM      9  C   UNL     1      -0.010  -4.094  -0.065  0.00  0.00    +0.114 A 
ATOM     10  N   UNL     1       0.211  -2.794  -0.046  0.00  0.00    -0.215 NA
ATOM     11  N   UNL     1       3.474  -5.277  -0.113  0.00  0.00    -0.343 N 
ATOM     12  H   UNL     1       4.362  -4.887  -0.117  0.00  0.00    +0.144 HD
ATOM     13  H   UNL     1       3.367  -6.241  -0.124  0.00  0.00    +0.144 HD
ENDBRANCH   1   2
BRANCH   1  14
ATOM     14  C   UNL     1       0.003  -0.004  -0.014  0.00  0.00    +0.173 C 
BRANCH  14  16
ATOM     15  N   UNL     1      -1.195   2.161   0.019  0.00  0.00    -0.283 N 
ATOM     16  C   UNL     1      -0.018   1.503   0.005  0.00  0.00    +0.228 C 
ATOM     17  O   UNL     1       1.024   2.124   0.004  0.00  0.00    -0.275 OA
ATOM     18  H   UNL     1      -2.027   1.667  -0.049  0.00  0.00    +0.155 HD
BRANCH  15  23
ATOM     19  C   UNL     1      -0.243   5.694  -0.350  0.00  0.00    +0.002 A 
ATOM     20  C   UNL     1      -1.256   6.315   0.357  0.00  0.00    +0.003 A 
ATOM     21  C   UNL     1      -2.250   5.561   0.953  0.00  0.00    +0.040 A 
ATOM     22  C   UNL     1      -2.233   4.183   0.843  0.00  0.00    +0.144 A 
ATOM     23  C   UNL     1      -1.215   3.556   0.133  0.00  0.00    +0.069 A 
ATOM     24  C   UNL     1      -0.216   4.317  -0.459  0.00  0.00    +0.026 A 
ATOM     25  F   UNL     1      -3.204   3.446   1.426  0.00  0.00    -0.204 F 
ENDBRANCH  15  23
ENDBRANCH  14  16
ENDBRANCH   1  14
TORSDOF 4
