REMARK  Name = ZINC38673040
REMARK  8 active torsions:
REMARK  status: ('A' for Active; 'I' for Inactive)
REMARK    1  A    between atoms: C_1  and  N_2
REMARK    2  A    between atoms: N_5  and  C_8
REMARK    3  A    between atoms: C_8  and  C_10
REMARK    4  A    between atoms: C_8  and  C_28
REMARK    5  A    between atoms: C_10  and  N_11
REMARK    6  A    between atoms: C_12  and  C_14
REMARK    7  A    between atoms: N_19  and  C_21
REMARK    8  A    between atoms: N_37  and  C_38
REMARK                            x       y       z     vdW  Elec       q    Type
REMARK                         _______ _______ _______ _____ _____    ______ ____
ROOT
ATOM      1  C   UNL     1      -0.625  -4.010   1.170  0.00  0.00    +0.104 C 
ENDROOT
BRANCH   1   2
ATOM      2  C   UNL     1       0.198  -4.377   2.378  0.00  0.00    -0.028 A 
ATOM      3  C   UNL     1       0.112  -3.613   3.528  0.00  0.00    +0.007 A 
ATOM      4  C   UNL     1       0.867  -3.948   4.634  0.00  0.00    +0.024 A 
ATOM      5  C   UNL     1       1.712  -5.052   4.592  0.00  0.00    +0.033 A 
ATOM      6  C   UNL     1       1.795  -5.818   3.440  0.00  0.00    -0.026 A 
ATOM      7  C   UNL     1       1.032  -5.477   2.336  0.00  0.00    +0.010 A 
ATOM      8  C   UNL     1       2.691  -7.026   3.361  0.00  0.00    +0.038 C 
ATOM      9  C   UNL     1       3.782  -6.954   4.429  0.00  0.00    +0.024 C 
ATOM     10  C   UNL     1       3.127  -6.686   5.790  0.00  0.00    +0.105 C 
ATOM     11  N   UNL     1       2.473  -5.372   5.722  0.00  0.00    -0.333 N 
ATOM     12  C   UNL     1       2.615  -4.412   6.819  0.00  0.00    +0.129 C 
ENDBRANCH   1   2
BRANCH   1  17
ATOM     13  C   UNL     1      -0.097   1.351  -0.481  0.00  0.00    -0.096 C 
ATOM     14  N   UNL     1      -0.062  -0.113  -0.367  0.00  0.00    +0.379 N 
ATOM     15  C   UNL     1      -1.434  -0.631  -0.284  0.00  0.00    -0.064 C 
ATOM     16  C   UNL     1      -1.398  -2.157  -0.185  0.00  0.00    +0.066 C 
ATOM     17  N   UNL     1      -0.634  -2.550   1.008  0.00  0.00    -0.297 NA
ATOM     18  C   UNL     1       0.734  -2.018   0.950  0.00  0.00    +0.066 C 
ATOM     19  C   UNL     1       0.681  -0.493   0.842  0.00  0.00    -0.064 C 
ATOM     20  H   UNL     1       0.395  -0.502  -1.179  0.00  0.00    -0.082 HD
ENDBRANCH   1  17
BRANCH   1  21
ATOM     21  C   UNL     1      -2.058  -4.512   1.358  0.00  0.00    +0.127 C 
BRANCH  21  22
ATOM     22  N   UNL     1      -2.061  -5.976   1.405  0.00  0.00    -0.313 N 
ATOM     23  C   UNL     1      -3.229  -6.646   1.469  0.00  0.00    +0.218 C 
ATOM     24  O   UNL     1      -4.277  -6.036   1.488  0.00  0.00    -0.275 OA
ATOM     25  H   UNL     1      -1.223  -6.463   1.390  0.00  0.00    +0.149 HD
BRANCH  23  26
ATOM     26  C   UNL     1      -3.232  -8.152   1.518  0.00  0.00    +0.101 C 
ATOM     27  C   UNL     1      -2.564  -8.665   2.814  0.00  0.00    +0.110 C 
ATOM     28  C   UNL     1      -3.716  -8.844   3.779  0.00  0.00    +0.221 C 
ATOM     29  O   UNL     1      -3.603  -8.962   4.981  0.00  0.00    -0.275 OA
ATOM     30  N   UNL     1      -4.882  -8.853   3.110  0.00  0.00    -0.271 N 
ATOM     31  C   UNL     1      -4.670  -8.697   1.665  0.00  0.00    +0.127 C 
BRANCH  30  32
ATOM     32  C   UNL     1      -6.137  -8.993   3.713  0.00  0.00    +0.036 A 
ATOM     33  C   UNL     1      -6.230  -9.241   5.077  0.00  0.00    +0.025 A 
ATOM     34  C   UNL     1      -7.470  -9.378   5.669  0.00  0.00    +0.022 A 
ATOM     35  C   UNL     1      -8.619  -9.269   4.906  0.00  0.00    +0.041 A 
ATOM     36  C   UNL     1      -8.529  -9.022   3.547  0.00  0.00    +0.022 A 
ATOM     37  C   UNL     1      -7.292  -8.878   2.951  0.00  0.00    +0.025 A 
ATOM     38 CL   UNL     1     -10.176  -9.443   5.654  0.00  0.00    -0.084 Cl
ENDBRANCH  30  32
ENDBRANCH  23  26
ENDBRANCH  21  22
ENDBRANCH   1  21
TORSDOF 6
