REMARK  Name = ZINC39539266
REMARK  3 active torsions:
REMARK  status: ('A' for Active; 'I' for Inactive)
REMARK    1  A    between atoms: C_1  and  C_2
REMARK    2  A    between atoms: C_14  and  C_16
REMARK    3  A    between atoms: C_25  and  C_28
REMARK                            x       y       z     vdW  Elec       q    Type
REMARK                         _______ _______ _______ _____ _____    ______ ____
ROOT
ATOM      1  C   UNL     1       0.102  -5.610  -2.397  0.00  0.00    +0.019 C 
ATOM      2  C   UNL     1      -0.136  -4.326  -1.600  0.00  0.00    +0.050 C 
ATOM      3  C   UNL     1       0.237  -4.559  -0.144  0.00  0.00    +0.033 C 
ATOM      4  C   UNL     1       0.289  -3.323   0.715  0.00  0.00    +0.115 C 
ATOM      5  N   UNL     1      -1.050  -2.745   0.906  0.00  0.00    -0.270 N 
ATOM      6  C   UNL     1      -1.497  -1.781  -0.009  0.00  0.00    +0.050 A 
ATOM      7  C   UNL     1      -1.571  -0.448   0.377  0.00  0.00    +0.024 A 
ATOM      8  C   UNL     1      -1.966   0.510  -0.539  0.00  0.00    +0.002 A 
ATOM      9  C   UNL     1      -2.284   0.157  -1.838  0.00  0.00    +0.001 A 
ATOM     10  C   UNL     1      -2.230  -1.172  -2.226  0.00  0.00    +0.016 A 
ATOM     11  C   UNL     1      -1.858  -2.130  -1.302  0.00  0.00    +0.030 A 
ATOM     12  S   UNL     1      -1.887  -3.857  -1.724  0.00  0.00    -0.120 S 
ATOM     13  C   UNL     1      -1.829  -3.133   1.935  0.00  0.00    +0.223 C 
ATOM     14  O   UNL     1      -2.977  -2.747   2.006  0.00  0.00    -0.275 OA
ENDROOT
BRANCH  13  15
ATOM     15  C   UNL     1      -1.274  -4.045   2.998  0.00  0.00    +0.078 C 
ATOM     16  C   UNL     1      -0.764  -5.334   2.348  0.00  0.00    +0.032 C 
ATOM     17  C   UNL     1      -0.170  -6.244   3.427  0.00  0.00    +0.107 C 
ATOM     18  N   UNL     1      -1.176  -6.455   4.476  0.00  0.00    -0.315 N 
ATOM     19  C   UNL     1      -1.798  -5.281   5.105  0.00  0.00    +0.107 C 
ATOM     20  C   UNL     1      -2.374  -4.381   4.007  0.00  0.00    +0.032 C 
ATOM     21  C   UNL     1      -1.534  -7.736   4.865  0.00  0.00    +0.121 A 
ATOM     22  C   UNL     1      -0.779  -8.823   4.427  0.00  0.00    +0.045 A 
ATOM     23  C   UNL     1      -1.134 -10.087   4.813  0.00  0.00    +0.024 A 
ATOM     24  C   UNL     1      -2.256 -10.243   5.643  0.00  0.00    +0.070 A 
ATOM     25  C   UNL     1      -2.965  -9.110   6.043  0.00  0.00    +0.131 A 
ATOM     26  N   UNL     1      -2.585  -7.910   5.653  0.00  0.00    -0.239 NA
BRANCH  24  27
ATOM     27  C   UNL     1      -2.666 -11.546   6.072  0.00  0.00    +0.101 C 
ATOM     28  N   UNL     1      -2.991 -12.580   6.412  0.00  0.00    -0.191 NA
ENDBRANCH  24  27
ENDBRANCH  13  15
TORSDOF 2
