REMARK  Name = ZINC06255878
REMARK  9 active torsions:
REMARK  status: ('A' for Active; 'I' for Inactive)
REMARK    1  A    between atoms: C_1  and  C_2
REMARK    2  A    between atoms: C_2  and  C_3
REMARK    3  A    between atoms: C_2  and  C_4
REMARK    4  A    between atoms: C_4  and  N_5
REMARK    5  A    between atoms: C_6  and  C_8
REMARK    6  A    between atoms: C_13  and  S_14
REMARK    7  A    between atoms: S_14  and  C_15
REMARK    8  A    between atoms: C_15  and  C_16
REMARK    9  A    between atoms: N_18  and  C_19
REMARK                            x       y       z     vdW  Elec       q    Type
REMARK                         _______ _______ _______ _____ _____    ______ ____
ROOT
ATOM      1  S   UNL     1      -6.274  -1.427  -1.711  0.00  0.00    -0.115 S 
ENDROOT
BRANCH   1   7
ATOM      2  C   UNL     1      -4.063  -0.120  -2.694  0.00  0.00    +0.050 A 
ATOM      3  C   UNL     1      -3.378   0.615  -3.665  0.00  0.00    +0.014 A 
ATOM      4  C   UNL     1      -4.016   0.975  -4.832  0.00  0.00    +0.001 A 
ATOM      5  C   UNL     1      -5.335   0.611  -5.050  0.00  0.00    +0.001 A 
ATOM      6  C   UNL     1      -6.026  -0.115  -4.102  0.00  0.00    +0.015 A 
ATOM      7  C   UNL     1      -5.398  -0.493  -2.921  0.00  0.00    +0.020 A 
BRANCH   2   9
ATOM      8  N   UNL     1      -2.105  -0.148  -1.230  0.00  0.00    -0.311 N 
ATOM      9  C   UNL     1      -3.387  -0.508  -1.443  0.00  0.00    +0.245 C 
ATOM     10  O   UNL     1      -3.985  -1.153  -0.603  0.00  0.00    -0.270 OA
ATOM     11  H   UNL     1      -1.628   0.366  -1.901  0.00  0.00    +0.149 HD
BRANCH   8  12
ATOM     12  C   UNL     1      -1.433  -0.534   0.013  0.00  0.00    +0.107 C 
BRANCH  12  14
ATOM     13  C   UNL     1      -0.019   1.526   0.010  0.00  0.00    +0.009 C 
ATOM     14  C   UNL     1       0.002  -0.004   0.002  0.00  0.00    -0.000 C 
ATOM     15  C   UNL     1       0.742  -0.511   1.242  0.00  0.00    +0.009 C 
ENDBRANCH  12  14
ENDBRANCH   8  12
ENDBRANCH   2   9
ENDBRANCH   1   7
BRANCH   1  16
ATOM     16  C   UNL     1      -7.919  -1.657  -2.441  0.00  0.00    +0.170 C 
BRANCH  16  17
ATOM     17  C   UNL     1      -8.781  -2.453  -1.495  0.00  0.00    +0.224 C 
ATOM     18  O   UNL     1      -8.331  -2.827  -0.433  0.00  0.00    -0.275 OA
ATOM     19  N   UNL     1     -10.053  -2.747  -1.830  0.00  0.00    -0.309 N 
ATOM     20  H   UNL     1     -10.414  -2.448  -2.679  0.00  0.00    +0.149 HD
BRANCH  19  21
ATOM     21  C   UNL     1     -10.892  -3.521  -0.910  0.00  0.00    +0.035 C 
ATOM     22  C   UNL     1     -11.023  -2.768   0.415  0.00  0.00    +0.029 C 
ATOM     23  C   UNL     1     -11.899  -3.576   1.376  0.00  0.00    -0.008 C 
ATOM     24  C   UNL     1     -13.286  -3.769   0.760  0.00  0.00    +0.007 C 
ATOM     25  C   UNL     1     -13.155  -4.522  -0.566  0.00  0.00    -0.008 C 
ATOM     26  C   UNL     1     -12.279  -3.714  -1.526  0.00  0.00    +0.029 C 
ATOM     27  C   UNL     1     -12.512  -5.888  -0.316  0.00  0.00    +0.007 C 
ATOM     28  C   UNL     1     -11.125  -5.694   0.300  0.00  0.00    -0.008 C 
ATOM     29  C   UNL     1     -11.257  -4.941   1.626  0.00  0.00    +0.007 C 
ATOM     30  C   UNL     1     -10.250  -4.886  -0.660  0.00  0.00    +0.029 C 
ENDBRANCH  19  21
ENDBRANCH  16  17
ENDBRANCH   1  16
TORSDOF 7
