REMARK  Name = ZINC12473935
REMARK  7 active torsions:
REMARK  status: ('A' for Active; 'I' for Inactive)
REMARK    1  A    between atoms: C_1  and  C_2
REMARK    2  A    between atoms: C_2  and  C_3
REMARK    3  A    between atoms: C_3  and  C_4
REMARK    4  A    between atoms: N_6  and  C_7
REMARK    5  A    between atoms: N_6  and  C_8
REMARK    6  A    between atoms: C_14  and  C_15
REMARK    7  A    between atoms: C_14  and  N_46
REMARK                            x       y       z     vdW  Elec       q    Type
REMARK                         _______ _______ _______ _____ _____    ______ ____
ROOT
ATOM      1  C   UNL     1      -0.927   1.718   3.671  0.00  0.00    +0.059 C 
ATOM      2  C   UNL     1      -1.383   0.517   4.504  0.00  0.00    +0.019 C 
ATOM      3  C   UNL     1      -2.044   1.020   5.791  0.00  0.00    -0.017 C 
ATOM      4  C   UNL     1      -1.054   1.897   6.559  0.00  0.00    -0.078 C 
ATOM      5  C   UNL     1       0.031   2.576   4.501  0.00  0.00    -0.056 C 
ATOM      6  N   UNL     1      -0.674   3.047   5.712  0.00  0.00    +0.384 N 
ATOM      7  H   UNL     1      -1.525   3.547   5.429  0.00  0.00    -0.081 HD
ENDROOT
BRANCH   1  10
ATOM      8  C   UNL     1      -0.718   1.572   1.248  0.00  0.00    +0.215 C 
ATOM      9  O   UNL     1      -1.714   2.256   1.150  0.00  0.00    -0.276 OA
ATOM     10  N   UNL     1      -0.242   1.246   2.466  0.00  0.00    -0.303 N 
ATOM     11  C   UNL     1       0.962   0.419   2.584  0.00  0.00    +0.132 C 
BRANCH   8  12
ATOM     12  C   UNL     1      -0.013   1.086   0.008  0.00  0.00    +0.096 C 
BRANCH  12  14
ATOM     13  C   UNL     1      -0.037   1.099  -2.490  0.00  0.00    +0.004 C 
ATOM     14  C   UNL     1      -0.753   1.593  -1.232  0.00  0.00    +0.006 C 
ENDBRANCH  12  14
ENDBRANCH   8  12
ENDBRANCH   1  10
BRANCH   6  15
ATOM     15  C   UNL     1       0.193   3.970   6.473  0.00  0.00    -0.040 C 
BRANCH  15  16
ATOM     16  C   UNL     1      -0.423   4.225   7.824  0.00  0.00    -0.029 A 
ATOM     17  C   UNL     1       0.123   3.646   8.954  0.00  0.00    +0.004 A 
ATOM     18  C   UNL     1      -0.442   3.880  10.194  0.00  0.00    +0.000 A 
ATOM     19  C   UNL     1      -1.553   4.694  10.305  0.00  0.00    +0.003 A 
ATOM     20  C   UNL     1      -2.101   5.275   9.178  0.00  0.00    +0.038 A 
ATOM     21  C   UNL     1      -1.533   5.045   7.936  0.00  0.00    +0.125 A 
ATOM     22  F   UNL     1      -2.065   5.617   6.833  0.00  0.00    -0.205 F 
ENDBRANCH  15  16
ENDBRANCH   6  15
TORSDOF 5
