REMARK  Name = ZINC08870779
REMARK  9 active torsions:
REMARK  status: ('A' for Active; 'I' for Inactive)
REMARK    1  A    between atoms: C_1  and  C_2
REMARK    2  A    between atoms: C_2  and  C_3
REMARK    3  A    between atoms: C_2  and  C_4
REMARK    4  A    between atoms: C_7  and  S_10
REMARK    5  A    between atoms: S_10  and  N_13
REMARK    6  A    between atoms: N_13  and  C_14
REMARK    7  A    between atoms: C_16  and  S_25
REMARK    8  A    between atoms: C_17  and  O_24
REMARK    9  A    between atoms: S_25  and  C_26
REMARK                            x       y       z     vdW  Elec       q    Type
REMARK                         _______ _______ _______ _____ _____    ______ ____
ROOT
ATOM      1  C   UNL     1      -4.244  -0.980  -0.120  0.00  0.00    +0.057 A 
ATOM      2  C   UNL     1      -2.998  -1.562  -0.178  0.00  0.00    +0.044 A 
ATOM      3  C   UNL     1      -2.853  -2.949  -0.081  0.00  0.00    +0.061 A 
ATOM      4  C   UNL     1      -3.957  -3.764   0.087  0.00  0.00    +0.138 A 
ATOM      5  C   UNL     1      -5.241  -3.195   0.156  0.00  0.00    +0.026 A 
ATOM      6  C   UNL     1      -5.388  -1.788   0.051  0.00  0.00    +0.008 A 
ATOM      7  C   UNL     1      -6.671  -1.224   0.121  0.00  0.00    +0.010 A 
ATOM      8  C   UNL     1      -7.755  -2.031   0.287  0.00  0.00    +0.001 A 
ATOM      9  C   UNL     1      -7.612  -3.413   0.389  0.00  0.00    +0.001 A 
ATOM     10  C   UNL     1      -6.383  -3.996   0.327  0.00  0.00    +0.012 A 
ENDROOT
BRANCH   1  11
ATOM     11  N   UNL     1      -4.375   0.407  -0.224  0.00  0.00    -0.216 N 
ATOM     12  H   UNL     1      -5.057   0.869   0.287  0.00  0.00    +0.174 HD
BRANCH  11  13
ATOM     13  S   UNL     1      -3.366   1.261  -1.221  0.00  0.00    +0.072 S 
ATOM     14  O   UNL     1      -3.825   2.606  -1.208  0.00  0.00    -0.150 OA
ATOM     15  O   UNL     1      -2.039   0.906  -0.857  0.00  0.00    -0.150 OA
BRANCH  13  19
ATOM     16  C   UNL     1      -4.013  -0.287  -5.425  0.00  0.00    -0.045 A 
ATOM     17  C   UNL     1      -4.773   0.766  -4.952  0.00  0.00    +0.006 A 
ATOM     18  C   UNL     1      -4.575   1.239  -3.668  0.00  0.00    +0.029 A 
ATOM     19  C   UNL     1      -3.618   0.658  -2.858  0.00  0.00    +0.109 A 
ATOM     20  C   UNL     1      -2.854  -0.391  -3.333  0.00  0.00    +0.029 A 
ATOM     21  C   UNL     1      -3.055  -0.867  -4.615  0.00  0.00    +0.006 A 
BRANCH  16  23
ATOM     22  C   UNL     1      -2.933  -0.663  -7.626  0.00  0.00    +0.012 C 
ATOM     23  C   UNL     1      -4.229  -0.803  -6.825  0.00  0.00    +0.013 C 
ATOM     24  C   UNL     1      -4.636  -2.277  -6.767  0.00  0.00    +0.012 C 
ENDBRANCH  16  23
ENDBRANCH  13  19
ENDBRANCH  11  13
ENDBRANCH   1  11
BRANCH   4  25
ATOM     25  O   UNL     1      -3.801  -5.113   0.186  0.00  0.00    -0.505 OA
ATOM     26  H   UNL     1      -3.677  -5.429   1.091  0.00  0.00    +0.292 HD
ENDBRANCH   4  25
BRANCH   3  27
ATOM     27  S   UNL     1      -1.245  -3.665  -0.166  0.00  0.00    -0.027 S 
BRANCH  27  28
ATOM     28  C   UNL     1      -1.291  -4.325  -1.799  0.00  0.00    +0.263 A 
ATOM     29  N   UNL     1      -2.341  -4.322  -2.581  0.00  0.00    -0.203 NA
ATOM     30  C   UNL     1      -2.008  -4.912  -3.761  0.00  0.00    +0.110 A 
ATOM     31  C   UNL     1      -2.711  -5.179  -4.937  0.00  0.00    +0.031 A 
ATOM     32  C   UNL     1      -2.076  -5.808  -5.985  0.00  0.00    +0.002 A 
ATOM     33  C   UNL     1      -0.744  -6.178  -5.878  0.00  0.00    +0.004 A 
ATOM     34  C   UNL     1      -0.037  -5.920  -4.720  0.00  0.00    +0.048 A 
ATOM     35  C   UNL     1      -0.660  -5.288  -3.657  0.00  0.00    +0.156 A 
ATOM     36  O   UNL     1      -0.251  -4.906  -2.425  0.00  0.00    -0.430 OA
ENDBRANCH  27  28
ENDBRANCH   3  27
TORSDOF 7
