REMARK  Name = ZINC54645733
REMARK  13 active torsions:
REMARK  status: ('A' for Active; 'I' for Inactive)
REMARK    1  A    between atoms: C_1  and  C_2
REMARK    2  A    between atoms: C_7  and  C_8
REMARK    3  A    between atoms: C_7  and  C_9
REMARK    4  A    between atoms: N_12  and  C_15
REMARK    5  A    between atoms: C_15  and  C_16
REMARK    6  A    between atoms: N_18  and  C_19
REMARK    7  A    between atoms: C_20  and  C_33
REMARK    8  A    between atoms: C_25  and  C_29
REMARK    9  A    between atoms: C_29  and  C_30
REMARK   10  A    between atoms: C_29  and  C_31
REMARK   11  A    between atoms: C_29  and  C_32
REMARK   12  A    between atoms: C_33  and  O_35
REMARK   13  A    between atoms: O_35  and  C_36
REMARK                            x       y       z     vdW  Elec       q    Type
REMARK                         _______ _______ _______ _____ _____    ______ ____
ROOT
ATOM      1  C   UNL     1      -3.488  -2.321   1.760  0.00  0.00    +0.235 C 
ATOM      2  O   UNL     1      -2.871  -1.722   2.616  0.00  0.00    -0.274 OA
ATOM      3  N   UNL     1      -4.726  -2.785   2.022  0.00  0.00    -0.278 N 
ATOM      4  H   UNL     1      -5.219  -3.264   1.338  0.00  0.00    +0.155 HD
ENDROOT
BRANCH   3   5
ATOM      5  C   UNL     1      -5.294  -2.578   3.270  0.00  0.00    +0.086 A 
ATOM      6  C   UNL     1      -6.542  -2.985   3.716  0.00  0.00    +0.091 A 
ATOM      7  C   UNL     1      -6.904  -2.640   5.080  0.00  0.00    -0.021 A 
ATOM      8  C   UNL     1      -5.952  -1.952   5.747  0.00  0.00    -0.004 A 
ATOM      9  S   UNL     1      -4.625  -1.784   4.590  0.00  0.00    -0.077 S 
ATOM     10  C   UNL     1      -6.024  -1.454   7.158  0.00  0.00    +0.046 C 
ATOM     11  C   UNL     1      -7.489  -1.512   7.616  0.00  0.00    -0.000 C 
ATOM     12  C   UNL     1      -8.066  -2.885   7.258  0.00  0.00    +0.009 C 
ATOM     13  C   UNL     1      -8.226  -3.003   5.740  0.00  0.00    +0.037 C 
BRANCH  11  14
ATOM     14  C   UNL     1      -7.561  -1.302   9.129  0.00  0.00    -0.035 C 
ATOM     15  C   UNL     1      -6.971   0.064   9.483  0.00  0.00    +0.011 C 
ATOM     16  C   UNL     1      -9.021  -1.361   9.583  0.00  0.00    +0.011 C 
ATOM     17  C   UNL     1      -6.763  -2.401   9.835  0.00  0.00    +0.011 C 
ENDBRANCH  11  14
BRANCH   6  18
ATOM     18  C   UNL     1      -7.457  -3.731   2.849  0.00  0.00    +0.342 C 
ATOM     19  O   UNL     1      -7.421  -4.947   2.829  0.00  0.00    -0.245 OA
BRANCH  18  20
ATOM     20  O   UNL     1      -8.340  -3.070   2.074  0.00  0.00    -0.464 OA
ATOM     21  C   UNL     1      -9.202  -3.860   1.253  0.00  0.00    +0.280 C 
ENDBRANCH  18  20
ENDBRANCH   6  18
ENDBRANCH   3   5
BRANCH   1  22
ATOM     22  C   UNL     1      -2.870  -2.546   0.404  0.00  0.00    +0.212 C 
BRANCH  22  33
ATOM     23  C   UNL     1      -0.019   1.526   0.010  0.00  0.00    +0.021 C 
ATOM     24  C   UNL     1       0.002  -0.004   0.002  0.00  0.00    +0.051 C 
ATOM     25  C   UNL     1       0.777  -0.595  -1.201  0.00  0.00    +0.017 C 
ATOM     26  C   UNL     1       1.361  -1.934  -0.713  0.00  0.00    +0.014 C 
ATOM     27  C   UNL     1       0.910  -2.085   0.760  0.00  0.00    +0.082 C 
ATOM     28  C   UNL     1       0.737  -0.613   1.230  0.00  0.00    -0.010 C 
ATOM     29  C   UNL     1       2.093   0.060   1.451  0.00  0.00    +0.012 C 
ATOM     30  C   UNL     1      -0.130  -0.532   2.488  0.00  0.00    +0.012 C 
ATOM     31  C   UNL     1      -0.477  -2.702   0.736  0.00  0.00    +0.226 C 
ATOM     32  O   UNL     1      -0.633  -3.864   1.044  0.00  0.00    -0.275 OA
ATOM     33  N   UNL     1      -1.532  -1.950   0.372  0.00  0.00    -0.233 N 
ATOM     34  C   UNL     1      -1.387  -0.616   0.002  0.00  0.00    +0.229 C 
ATOM     35  O   UNL     1      -2.342   0.039  -0.355  0.00  0.00    -0.275 OA
ENDBRANCH  22  33
ENDBRANCH   1  22
TORSDOF 6
