REMARK  Name = ZINC38249629
REMARK  17 active torsions:
REMARK  status: ('A' for Active; 'I' for Inactive)
REMARK    1  A    between atoms: C_1  and  C_2
REMARK    2  A    between atoms: C_2  and  C_3
REMARK    3  A    between atoms: C_3  and  C_4
REMARK    4  A    between atoms: C_4  and  C_5
REMARK    5  A    between atoms: C_5  and  O_6
REMARK    6  A    between atoms: O_6  and  C_7
REMARK    7  A    between atoms: C_10  and  C_15
REMARK    8  A    between atoms: C_12  and  O_13
REMARK    9  A    between atoms: O_13  and  C_14
REMARK   10  A    between atoms: C_17  and  C_18
REMARK   11  A    between atoms: C_18  and  C_19
REMARK   12  A    between atoms: C_26  and  C_29
REMARK   13  A    between atoms: N_35  and  C_36
REMARK   14  A    between atoms: C_36  and  C_37
REMARK   15  A    between atoms: C_37  and  C_38
REMARK   16  A    between atoms: C_38  and  O_39
REMARK   17  A    between atoms: O_39  and  C_40
REMARK                            x       y       z     vdW  Elec       q    Type
REMARK                         _______ _______ _______ _____ _____    ______ ____
ROOT
ATOM      1  C   UNL     1      -7.621  -6.582  -0.105  0.00  0.00    +0.145 C 
ATOM      2  C   UNL     1      -8.251  -6.689  -1.474  0.00  0.00    +0.076 C 
ATOM      3  C   UNL     1      -9.507  -6.198  -1.365  0.00  0.00    +0.249 C 
ATOM      4  O   UNL     1     -10.407  -6.116  -2.372  0.00  0.00    -0.282 OA
ATOM      5  C   UNL     1      -9.741  -5.767   0.029  0.00  0.00    +0.288 C 
ATOM      6  O   UNL     1     -10.775  -5.283   0.446  0.00  0.00    -0.266 OA
ATOM      7  N   UNL     1      -8.640  -5.990   0.769  0.00  0.00    -0.283 N 
ENDROOT
BRANCH   1  11
ATOM      8  C   UNL     1      -4.177  -4.052  -0.267  0.00  0.00    +0.162 A 
ATOM      9  C   UNL     1      -5.443  -3.516  -0.440  0.00  0.00    +0.050 A 
ATOM     10  C   UNL     1      -6.554  -4.336  -0.388  0.00  0.00    +0.009 A 
ATOM     11  C   UNL     1      -6.406  -5.692  -0.162  0.00  0.00    -0.019 A 
ATOM     12  C   UNL     1      -5.146  -6.233   0.012  0.00  0.00    +0.055 A 
ATOM     13  C   UNL     1      -4.027  -5.417  -0.045  0.00  0.00    +0.162 A 
BRANCH  13  14
ATOM     14  O   UNL     1      -2.787  -5.949   0.120  0.00  0.00    -0.491 OA
ATOM     15  C   UNL     1      -2.701  -7.370   0.244  0.00  0.00    +0.277 C 
ENDBRANCH  13  14
BRANCH   8  16
ATOM     16  O   UNL     1      -3.083  -3.246  -0.319  0.00  0.00    -0.488 OA
BRANCH  16  17
ATOM     17  C   UNL     1      -3.312  -1.855  -0.549  0.00  0.00    +0.229 C 
BRANCH  17  18
ATOM     18  C   UNL     1      -1.973  -1.114  -0.575  0.00  0.00    +0.041 C 
BRANCH  18  19
ATOM     19  C   UNL     1      -2.219   0.376  -0.822  0.00  0.00    +0.003 C 
BRANCH  19  21
ATOM     20  C   UNL     1      -1.125   2.606  -1.094  0.00  0.00    +0.004 C 
ATOM     21  C   UNL     1      -0.880   1.116  -0.847  0.00  0.00    -0.003 C 
ENDBRANCH  19  21
ENDBRANCH  18  19
ENDBRANCH  17  18
ENDBRANCH  16  17
ENDBRANCH   8  16
ENDBRANCH   1  11
BRANCH   2  22
ATOM     22  C   UNL     1      -7.622  -7.221  -2.688  0.00  0.00    +0.195 C 
ATOM     23  O   UNL     1      -7.439  -6.494  -3.647  0.00  0.00    -0.287 OA
BRANCH  22  24
ATOM     24  C   UNL     1      -7.212  -8.638  -2.746  0.00  0.00    +0.023 A 
ATOM     25  C   UNL     1      -7.484  -9.495  -1.674  0.00  0.00    +0.015 A 
ATOM     26  C   UNL     1      -7.105 -10.814  -1.732  0.00  0.00    +0.046 A 
ATOM     27  C   UNL     1      -6.444 -11.312  -2.857  0.00  0.00    +0.124 A 
ATOM     28  C   UNL     1      -6.170 -10.453  -3.917  0.00  0.00    -0.002 A 
ATOM     29  C   UNL     1      -6.553  -9.135  -3.875  0.00  0.00    +0.019 A 
ATOM     30  C   UNL     1      -5.434 -11.264  -4.967  0.00  0.00    +0.083 C 
ATOM     31  C   UNL     1      -5.016 -12.519  -4.165  0.00  0.00    +0.175 C 
ATOM     32  O   UNL     1      -6.000 -12.571  -3.118  0.00  0.00    -0.488 OA
ATOM     33  C   UNL     1      -3.611 -12.349  -3.586  0.00  0.00    +0.052 C 
ENDBRANCH  22  24
ENDBRANCH   2  22
BRANCH   7  34
ATOM     34  C   UNL     1      -8.485  -5.694   2.196  0.00  0.00    +0.111 C 
BRANCH  34  35
ATOM     35  C   UNL     1      -7.945  -4.273   2.366  0.00  0.00    +0.047 C 
BRANCH  35  36
ATOM     36  C   UNL     1      -7.784  -3.964   3.856  0.00  0.00    +0.161 C 
BRANCH  36  37
ATOM     37  O   UNL     1      -7.279  -2.637   4.016  0.00  0.00    -0.383 OA
ATOM     38  C   UNL     1      -7.091  -2.246   5.377  0.00  0.00    +0.193 C 
ENDBRANCH  36  37
ENDBRANCH  35  36
ENDBRANCH  34  35
ENDBRANCH   7  34
TORSDOF 13
