REMARK  Name = ZINC65260052
REMARK  5 active torsions:
REMARK  status: ('A' for Active; 'I' for Inactive)
REMARK    1  A    between atoms: C_1  and  C_2
REMARK    2  A    between atoms: C_2  and  C_3
REMARK    3  A    between atoms: C_2  and  C_4
REMARK    4  A    between atoms: C_2  and  N_5
REMARK    5  A    between atoms: C_21  and  C_23
REMARK                            x       y       z     vdW  Elec       q    Type
REMARK                         _______ _______ _______ _____ _____    ______ ____
ROOT
ATOM      1  N   UNL     1       0.949   0.288  -1.197  0.00  0.00    -0.370 N 
ATOM      2  C   UNL     1       1.991   0.878  -1.688  0.00  0.00    +0.098 C 
ATOM      3  N   UNL     1       2.502   2.035  -1.130  0.00  0.00    -0.301 N 
ATOM      4  C   UNL     1       3.003   3.015  -2.004  0.00  0.00    +0.053 A 
ATOM      5  C   UNL     1       3.298   4.282  -1.525  0.00  0.00    +0.025 A 
ATOM      6  C   UNL     1       3.798   5.245  -2.382  0.00  0.00    +0.002 A 
ATOM      7  C   UNL     1       4.005   4.948  -3.716  0.00  0.00    +0.002 A 
ATOM      8  C   UNL     1       3.710   3.688  -4.203  0.00  0.00    +0.025 A 
ATOM      9  C   UNL     1       3.204   2.718  -3.351  0.00  0.00    +0.049 A 
ATOM     10  N   UNL     1       2.889   1.446  -3.851  0.00  0.00    -0.329 N 
ATOM     11  C   UNL     1       2.717   0.334  -2.900  0.00  0.00    +0.102 C 
ATOM     12  C   UNL     1       4.080  -0.212  -2.482  0.00  0.00    +0.036 C 
ATOM     13  C   UNL     1       4.826  -0.729  -3.716  0.00  0.00    +0.021 C 
ATOM     14  C   UNL     1       4.018  -1.861  -4.358  0.00  0.00    +0.108 C 
ATOM     15  N   UNL     1       2.660  -1.375  -4.638  0.00  0.00    -0.295 N 
ATOM     16  C   UNL     1       1.885  -0.775  -3.543  0.00  0.00    +0.141 C 
ATOM     17  C   UNL     1       2.136  -1.476  -5.876  0.00  0.00    +0.253 C 
ATOM     18  O   UNL     1       0.987  -1.130  -6.080  0.00  0.00    -0.269 OA
ATOM     19  H   UNL     1       0.556  -0.467  -1.662  0.00  0.00    +0.161 HD
ATOM     20  H   UNL     1       2.788   1.302  -4.805  0.00  0.00    +0.147 HD
ATOM     21  H   UNL     1       2.515   2.166  -0.169  0.00  0.00    +0.153 HD
ENDROOT
BRANCH  17  22
ATOM     22  C   UNL     1       2.949  -2.003  -6.976  0.00  0.00    +0.074 A 
ATOM     23  C   UNL     1       2.971  -1.619  -8.308  0.00  0.00    +0.021 A 
ATOM     24  C   UNL     1       3.849  -2.305  -9.112  0.00  0.00    +0.008 A 
ATOM     25  C   UNL     1       4.615  -3.283  -8.569  0.00  0.00    +0.046 A 
ATOM     26  S   UNL     1       4.174  -3.298  -6.948  0.00  0.00    -0.092 S 
ENDBRANCH  17  22
BRANCH   1  28
ATOM     27  C   UNL     1       0.016   2.245  -0.066  0.00  0.00    +0.033 C 
ATOM     28  C   UNL     1       0.364   0.761   0.060  0.00  0.00    +0.031 C 
ATOM     29  C   UNL     1       1.372   0.568   1.195  0.00  0.00    +0.033 C 
ATOM     30  C   UNL     1      -0.905  -0.037   0.363  0.00  0.00    +0.033 C 
ENDBRANCH   1  28
TORSDOF 2
