REMARK  Name = ZINC00684328
REMARK  6 active torsions:
REMARK  status: ('A' for Active; 'I' for Inactive)
REMARK    1  A    between atoms: C_1  and  C_2
REMARK    2  A    between atoms: C_2  and  C_3
REMARK    3  A    between atoms: C_15  and  S_18
REMARK    4  A    between atoms: S_18  and  C_19
REMARK    5  A    between atoms: C_21  and  C_23
REMARK    6  A    between atoms: C_26  and  C_28
REMARK                            x       y       z     vdW  Elec       q    Type
REMARK                         _______ _______ _______ _____ _____    ______ ____
ROOT
ATOM      1  C   UNL     1       0.324   5.973  -1.000  0.00  0.00    +0.223 C 
ATOM      2  O   UNL     1       0.284   7.185  -0.957  0.00  0.00    -0.275 OA
ATOM      3  N   UNL     1      -0.067   5.247   0.066  0.00  0.00    -0.228 N 
ATOM      4  C   UNL     1      -0.025   3.848   0.030  0.00  0.00    +0.050 A 
ATOM      5  C   UNL     1       1.175   3.163   0.014  0.00  0.00    +0.024 A 
ATOM      6  C   UNL     1       1.179   1.780   0.000  0.00  0.00    +0.002 A 
ATOM      7  C   UNL     1      -0.013   1.076   0.008  0.00  0.00    +0.001 A 
ATOM      8  C   UNL     1      -1.220   1.746   0.017  0.00  0.00    +0.012 A 
ATOM      9  C   UNL     1      -1.239   3.135   0.028  0.00  0.00    +0.029 A 
ATOM     10  C   UNL     1      -2.508   3.893   0.018  0.00  0.00    +0.156 A 
ATOM     11  C   UNL     1      -2.689   4.963   0.923  0.00  0.00    +0.248 A 
ATOM     12  N   UNL     1      -3.825   5.638   0.889  0.00  0.00    -0.184 NA
ATOM     13  C   UNL     1      -4.763   5.289   0.014  0.00  0.00    +0.212 A 
ATOM     14  N   UNL     1      -4.576   4.276  -0.823  0.00  0.00    -0.122 NA
ATOM     15  N   UNL     1      -3.483   3.594  -0.826  0.00  0.00    -0.141 NA
ATOM     16  O   UNL     1      -1.707   5.278   1.800  0.00  0.00    -0.445 OA
ATOM     17  C   UNL     1      -0.540   5.905   1.280  0.00  0.00    +0.338 C 
ENDROOT
BRANCH  17  18
ATOM     18  C   UNL     1       0.549   5.857   2.321  0.00  0.00    +0.165 A 
ATOM     19  C   UNL     1       0.753   6.769   3.289  0.00  0.00    +0.050 A 
ATOM     20  C   UNL     1       1.872   6.332   4.034  0.00  0.00    +0.045 A 
ATOM     21  C   UNL     1       2.285   5.179   3.477  0.00  0.00    +0.102 A 
ATOM     22  O   UNL     1       1.477   4.894   2.443  0.00  0.00    -0.459 OA
ATOM     23  C   UNL     1       3.453   4.346   3.939  0.00  0.00    +0.086 C 
ENDBRANCH  17  18
BRANCH   1  25
ATOM     24  C   UNL     1       1.189   6.325  -3.297  0.00  0.00    +0.013 C 
ATOM     25  C   UNL     1       0.811   5.279  -2.246  0.00  0.00    +0.093 C 
ENDBRANCH   1  25
BRANCH  13  26
ATOM     26  S   UNL     1      -6.280   6.185  -0.035  0.00  0.00    -0.088 S 
ATOM     27  C   UNL     1      -7.128   5.295  -1.363  0.00  0.00    +0.093 C 
ENDBRANCH  13  26
TORSDOF 3
