REMARK  Name = ZINC20026761
REMARK  10 active torsions:
REMARK  status: ('A' for Active; 'I' for Inactive)
REMARK    1  A    between atoms: C_1  and  C_2
REMARK    2  A    between atoms: C_2  and  C_3
REMARK    3  A    between atoms: C_2  and  C_4
REMARK    4  A    between atoms: C_2  and  O_5
REMARK    5  A    between atoms: O_5  and  C_6
REMARK    6  A    between atoms: C_15  and  C_27
REMARK    7  A    between atoms: C_17  and  C_25
REMARK    8  A    between atoms: C_18  and  N_24
REMARK    9  A    between atoms: C_19  and  C_20
REMARK   10  A    between atoms: C_19  and  C_22
REMARK                            x       y       z     vdW  Elec       q    Type
REMARK                         _______ _______ _______ _____ _____    ______ ____
ROOT
ATOM      1  C   UNL     1       1.174   2.075   0.002  0.00  0.00    +0.404 C 
ATOM      2  O   UNL     1       2.201   1.427  -0.011  0.00  0.00    -0.226 OA
ATOM      3  N   UNL     1       1.226   3.422   0.009  0.00  0.00    -0.263 N 
ATOM      4  C   UNL     1      -0.000   4.239   0.019  0.00  0.00    +0.138 C 
ATOM      5  C   UNL     1       0.096   5.237  -1.098  0.00  0.00    -0.006 C 
ATOM      6  C   UNL     1       1.229   5.588  -1.627  0.00  0.00    -0.027 C 
ATOM      7  C   UNL     1       2.578   5.104  -1.173  0.00  0.00    +0.048 C 
ATOM      8  C   UNL     1       2.505   4.138   0.000  0.00  0.00    +0.120 C 
ATOM      9  C   UNL     1       3.404   6.327  -0.761  0.00  0.00    +0.076 C 
ATOM     10  C   UNL     1       3.306   7.413  -1.782  0.00  0.00    +0.057 C 
ATOM     11  C   UNL     1       2.325   7.527  -2.675  0.00  0.00    +0.054 C 
ATOM     12  C   UNL     1       1.204   6.538  -2.814  0.00  0.00    +0.202 C 
ENDROOT
BRANCH   9  13
ATOM     13  C   UNL     1       2.908   6.834   0.569  0.00  0.00    -0.000 A 
ATOM     14  C   UNL     1       3.579   6.955   1.740  0.00  0.00    +0.013 A 
ATOM     15  C   UNL     1       2.916   7.455   2.845  0.00  0.00    +0.028 A 
ATOM     16  C   UNL     1       1.609   7.800   2.726  0.00  0.00    +0.078 A 
ATOM     17  S   UNL     1       1.283   7.424   1.012  0.00  0.00    -0.081 S 
ATOM     18 CL   UNL     1       0.533   8.438   3.930  0.00  0.00    -0.076 Cl
ENDBRANCH   9  13
BRANCH  11  19
ATOM     19  N   UNL     1       2.339   8.610  -3.515  0.00  0.00    -0.358 N 
ATOM     20  H   UNL     1       1.544   8.735  -4.264  0.00  0.00    +0.142 HD
ATOM     21  H   UNL     1       3.146   9.354  -3.440  0.00  0.00    +0.142 HD
ENDBRANCH  11  19
BRANCH  12  22
ATOM     22  C   UNL     1       1.375   5.773  -4.060  0.00  0.00    +0.095 C 
ATOM     23  N   UNL     1       1.506   5.183  -5.021  0.00  0.00    -0.194 NA
ENDBRANCH  12  22
BRANCH  12  24
ATOM     24  C   UNL     1      -0.083   7.251  -2.846  0.00  0.00    +0.095 C 
ATOM     25  N   UNL     1      -1.076   7.802  -2.871  0.00  0.00    -0.194 NA
ENDBRANCH  12  24
BRANCH  10  26
ATOM     26  C   UNL     1       4.331   8.413  -1.794  0.00  0.00    +0.097 C 
ATOM     27  N   UNL     1       5.144   9.207  -1.804  0.00  0.00    -0.191 NA
ENDBRANCH  10  26
BRANCH   1  28
ATOM     28  O   UNL     1      -0.018   1.448   0.010  0.00  0.00    -0.445 OA
BRANCH  28  30
ATOM     29  C   UNL     1       0.742  -0.511   1.242  0.00  0.00    +0.055 C 
ATOM     30  C   UNL     1       0.002  -0.004   0.002  0.00  0.00    +0.107 C 
ATOM     31  C   UNL     1      -1.433  -0.534   0.013  0.00  0.00    +0.055 C 
ATOM     32  C   UNL     1       0.718  -0.497  -1.257  0.00  0.00    +0.055 C 
ENDBRANCH  28  30
ENDBRANCH   1  28
TORSDOF 7
