REMARK  Name = ZINC21371640
REMARK  6 active torsions:
REMARK  status: ('A' for Active; 'I' for Inactive)
REMARK    1  A    between atoms: C_4  and  C_7
REMARK    2  A    between atoms: C_10  and  S_13
REMARK    3  A    between atoms: S_13  and  C_14
REMARK    4  A    between atoms: C_14  and  C_15
REMARK    5  A    between atoms: C_18  and  C_32
REMARK    6  A    between atoms: C_21  and  C_23
REMARK                            x       y       z     vdW  Elec       q    Type
REMARK                         _______ _______ _______ _____ _____    ______ ____
ROOT
ATOM      1  C   UNL     1      -0.014   1.209   0.009  0.00  0.00    +0.246 C 
ATOM      2  O   UNL     1       0.002  -0.004   0.002  0.00  0.00    -0.273 OA
ATOM      3  N   UNL     1       1.143   1.899   0.001  0.00  0.00    -0.181 N 
ATOM      4  C   UNL     1       2.491   1.308  -0.015  0.00  0.00    +0.173 C 
ATOM      5  C   UNL     1       3.425   2.534  -0.018  0.00  0.00    +0.093 C 
ATOM      6  C   UNL     1       2.478   3.713  -0.003  0.00  0.00    +0.104 C 
ATOM      7  N   UNL     1       1.260   3.287   0.002  0.00  0.00    -0.178 NA
ENDROOT
BRANCH   6   8
ATOM      8  C   UNL     1       2.882   5.123  -0.001  0.00  0.00    +0.152 A 
ATOM      9  C   UNL     1       2.029   6.182   0.007  0.00  0.00    +0.059 A 
ATOM     10  C   UNL     1       2.869   7.380   0.009  0.00  0.00    +0.021 A 
ATOM     11  C   UNL     1       2.608   8.751   0.017  0.00  0.00    +0.011 A 
ATOM     12  C   UNL     1       3.647   9.639   0.009  0.00  0.00    +0.001 A 
ATOM     13  C   UNL     1       4.959   9.185  -0.007  0.00  0.00    +0.004 A 
ATOM     14  C   UNL     1       5.237   7.834  -0.015  0.00  0.00    +0.047 A 
ATOM     15  C   UNL     1       4.197   6.914  -0.007  0.00  0.00    +0.136 A 
ATOM     16  O   UNL     1       4.156   5.566  -0.013  0.00  0.00    -0.454 OA
ENDBRANCH   6   8
BRANCH   4  17
ATOM     17  C   UNL     1       2.693   0.481  -1.258  0.00  0.00    +0.128 A 
ATOM     18  C   UNL     1       3.354  -0.689  -1.327  0.00  0.00    +0.046 A 
ATOM     19  C   UNL     1       3.299  -1.112  -2.674  0.00  0.00    +0.041 A 
ATOM     20  C   UNL     1       2.607  -0.176  -3.349  0.00  0.00    +0.195 A 
ATOM     21  O   UNL     1       2.238   0.784  -2.485  0.00  0.00    -0.466 OA
ENDBRANCH   4  17
BRANCH   1  22
ATOM     22  C   UNL     1      -1.330   1.945   0.019  0.00  0.00    +0.175 C 
BRANCH  22  23
ATOM     23  S   UNL     1      -2.689   0.750   0.019  0.00  0.00    -0.077 S 
BRANCH  23  27
ATOM     24  C   UNL     1      -6.084   2.684   0.046  0.00  0.00    +0.182 A 
ATOM     25  N   UNL     1      -5.384   1.500   0.036  0.00  0.00    -0.201 NA
ATOM     26  H   UNL     1      -3.140   3.836   0.044  0.00  0.00    +0.191 HD
ATOM     27  C   UNL     1      -4.064   1.851   0.031  0.00  0.00    +0.185 A 
ATOM     28  N   UNL     1      -4.011   3.165   0.038  0.00  0.00    -0.253 N 
ATOM     29  N   UNL     1      -5.200   3.654   0.038  0.00  0.00    -0.152 NA
BRANCH  24  33
ATOM     30  C   UNL     1     -10.309   3.120   0.094  0.00  0.00    +0.000 A 
ATOM     31  C   UNL     1      -9.501   4.243   0.098  0.00  0.00    +0.001 A 
ATOM     32  C   UNL     1      -8.128   4.108   0.082  0.00  0.00    +0.011 A 
ATOM     33  C   UNL     1      -7.554   2.836   0.063  0.00  0.00    +0.021 A 
ATOM     34  C   UNL     1      -8.376   1.707   0.054  0.00  0.00    +0.011 A 
ATOM     35  C   UNL     1      -9.747   1.855   0.076  0.00  0.00    +0.001 A 
ENDBRANCH  24  33
ENDBRANCH  23  27
ENDBRANCH  22  23
ENDBRANCH   1  22
TORSDOF 6
