REMARK  Name = ZINC09433905
REMARK  8 active torsions:
REMARK  status: ('A' for Active; 'I' for Inactive)
REMARK    1  A    between atoms: C_1  and  C_2
REMARK    2  A    between atoms: C_2  and  C_3
REMARK    3  A    between atoms: C_3  and  C_5
REMARK    4  A    between atoms: C_3  and  N_6
REMARK    5  A    between atoms: C_10  and  N_11
REMARK    6  A    between atoms: N_11  and  C_12
REMARK    7  A    between atoms: N_28  and  C_35
REMARK    8  A    between atoms: N_31  and  C_34
REMARK                            x       y       z     vdW  Elec       q    Type
REMARK                         _______ _______ _______ _____ _____    ______ ____
ROOT
ATOM      1  C   UNL     1       4.831   7.131  -1.151  0.00  0.00    +0.031 A 
ATOM      2  C   UNL     1       4.098   7.493  -2.274  0.00  0.00    +0.025 A 
ATOM      3  C   UNL     1       4.629   8.389  -3.176  0.00  0.00    +0.025 A 
ATOM      4  C   UNL     1       5.893   8.934  -2.970  0.00  0.00    +0.033 A 
ATOM      5  C   UNL     1       6.637   8.561  -1.855  0.00  0.00    -0.023 A 
ATOM      6  C   UNL     1       6.091   7.670  -0.944  0.00  0.00    +0.028 A 
ATOM      7  C   UNL     1       8.026   9.082  -1.589  0.00  0.00    +0.064 C 
ATOM      8  C   UNL     1       8.410  10.190  -2.578  0.00  0.00    +0.146 C 
ATOM      9  C   UNL     1       7.871   9.771  -3.942  0.00  0.00    +0.098 C 
ATOM     10  N   UNL     1       6.392   9.866  -3.854  0.00  0.00    -0.325 N 
ATOM     11  C   UNL     1       5.950   9.821  -5.253  0.00  0.00    +0.105 C 
ATOM     12  C   UNL     1       6.967  10.740  -5.981  0.00  0.00    +0.021 C 
ATOM     13  C   UNL     1       8.227  10.738  -5.077  0.00  0.00    +0.025 C 
ATOM     14  C   UNL     1       9.905  10.317  -2.634  0.00  0.00    +0.240 C 
ATOM     15  O   UNL     1      10.567   9.354  -2.959  0.00  0.00    -0.274 OA
ATOM     16  N   UNL     1      10.530  11.465  -2.334  0.00  0.00    -0.228 N 
ATOM     17  C   UNL     1       9.854  12.565  -1.968  0.00  0.00    +0.317 C 
ATOM     18  O   UNL     1      10.470  13.579  -1.710  0.00  0.00    -0.252 OA
ATOM     19  N   UNL     1       8.516  12.572  -1.878  0.00  0.00    -0.228 N 
ATOM     20  C   UNL     1       7.781  11.485  -2.152  0.00  0.00    +0.240 C 
ATOM     21  O   UNL     1       6.574  11.549  -2.054  0.00  0.00    -0.274 OA
ATOM     22  C   UNL     1       7.837  13.805  -1.470  0.00  0.00    +0.143 C 
ATOM     23  C   UNL     1      11.992  11.521  -2.411  0.00  0.00    +0.143 C 
ENDROOT
BRANCH   1  24
ATOM     24  N   UNL     1       4.295   6.229  -0.225  0.00  0.00    -0.320 N 
ATOM     25  H   UNL     1       4.807   5.977   0.559  0.00  0.00    +0.152 HD
BRANCH  24  30
ATOM     26  N   UNL     1       0.607   3.646   1.402  0.00  0.00    -0.219 N 
ATOM     27  C   UNL     1       1.103   4.425   0.419  0.00  0.00    +0.261 C 
ATOM     28  O   UNL     1       0.422   4.727  -0.543  0.00  0.00    -0.269 OA
ATOM     29  C   UNL     1       2.492   4.903   0.543  0.00  0.00    +0.113 C 
ATOM     30  C   UNL     1       3.067   5.709  -0.424  0.00  0.00    +0.090 C 
ATOM     31  C   UNL     1       3.243   4.481   1.738  0.00  0.00    +0.258 C 
ATOM     32  O   UNL     1       4.395   4.832   1.908  0.00  0.00    -0.270 OA
ATOM     33  N   UNL     1       2.618   3.695   2.639  0.00  0.00    -0.235 N 
ATOM     34  C   UNL     1       1.349   3.301   2.464  0.00  0.00    +0.316 C 
ATOM     35  O   UNL     1       0.844   2.592   3.313  0.00  0.00    -0.252 OA
ATOM     36  H   UNL     1       3.098   3.409   3.432  0.00  0.00    +0.159 HD
BRANCH  26  37
ATOM     37  C   UNL     1      -0.772   3.162   1.305  0.00  0.00    +0.083 C 
ATOM     38  C   UNL     1      -1.574   3.662   2.508  0.00  0.00    +0.028 C 
BRANCH  37  40
ATOM     39  C   UNL     1      -0.080   1.133   0.021  0.00  0.00    +0.006 C 
ATOM     40  C   UNL     1      -0.775   1.632   1.290  0.00  0.00    +0.019 C 
ENDBRANCH  37  40
ENDBRANCH  26  37
ENDBRANCH  24  30
ENDBRANCH   1  24
TORSDOF 4
