REMARK  Name = ZINC13898443
REMARK  13 active torsions:
REMARK  status: ('A' for Active; 'I' for Inactive)
REMARK    1  A    between atoms: C_1  and  C_2
REMARK    2  A    between atoms: C_2  and  C_3
REMARK    3  A    between atoms: C_3  and  C_4
REMARK    4  A    between atoms: C_3  and  C_5
REMARK    5  A    between atoms: C_3  and  C_6
REMARK    6  A    between atoms: C_13  and  N_20
REMARK    7  A    between atoms: C_14  and  C_15
REMARK    8  A    between atoms: C_15  and  O_17
REMARK    9  A    between atoms: O_17  and  C_18
REMARK   10  A    between atoms: C_18  and  C_19
REMARK   11  A    between atoms: N_20  and  C_21
REMARK   12  A    between atoms: C_21  and  N_23
REMARK   13  A    between atoms: C_24  and  C_26
REMARK                            x       y       z     vdW  Elec       q    Type
REMARK                         _______ _______ _______ _____ _____    ______ ____
ROOT
ATOM      1  C   UNL     1      -0.020   1.068   2.517  0.00  0.00    -0.000 C 
ATOM      2  C   UNL     1      -0.750   1.548   3.775  0.00  0.00    +0.009 C 
ATOM      3  C   UNL     1       0.102   1.261   5.012  0.00  0.00    +0.037 C 
ATOM      4  C   UNL     1       0.507  -0.208   5.000  0.00  0.00    -0.021 A 
ATOM      5  C   UNL     1       0.445  -0.937   3.865  0.00  0.00    -0.004 A 
ATOM      6  S   UNL     1       1.001  -2.551   4.332  0.00  0.00    -0.077 S 
ATOM      7  C   UNL     1       1.313  -2.265   6.012  0.00  0.00    +0.086 A 
ATOM      8  C   UNL     1       0.979  -0.926   6.172  0.00  0.00    +0.091 A 
ATOM      9  C   UNL     1       0.002  -0.468   2.513  0.00  0.00    +0.046 C 
ENDROOT
BRANCH   1  10
ATOM     10  C   UNL     1      -0.753   1.573   1.274  0.00  0.00    -0.032 C 
ATOM     11  C   UNL     1      -0.789   3.103   1.289  0.00  0.00    +0.011 C 
ATOM     12  C   UNL     1      -2.184   1.030   1.269  0.00  0.00    +0.011 C 
BRANCH  10  14
ATOM     13  C   UNL     1      -0.755   1.598  -1.225  0.00  0.00    +0.004 C 
ATOM     14  C   UNL     1      -0.022   1.093   0.019  0.00  0.00    +0.003 C 
ENDBRANCH  10  14
ENDBRANCH   1  10
BRANCH   8  15
ATOM     15  C   UNL     1       1.098  -0.264   7.472  0.00  0.00    +0.342 C 
ATOM     16  O   UNL     1       0.157  -0.263   8.243  0.00  0.00    -0.245 OA
BRANCH  15  17
ATOM     17  O   UNL     1       2.251   0.347   7.815  0.00  0.00    -0.461 OA
BRANCH  17  18
ATOM     18  C   UNL     1       2.297   0.983   9.120  0.00  0.00    +0.229 C 
ATOM     19  C   UNL     1       3.674   1.617   9.329  0.00  0.00    +0.048 C 
ENDBRANCH  17  18
ENDBRANCH  15  17
ENDBRANCH   8  15
BRANCH   7  20
ATOM     20  N   UNL     1       1.781  -3.155   6.965  0.00  0.00    -0.290 N 
ATOM     21  H   UNL     1       1.913  -2.861   7.880  0.00  0.00    +0.154 HD
BRANCH  20  22
ATOM     22  C   UNL     1       2.054  -4.429   6.620  0.00  0.00    +0.141 C 
ATOM     23  S   UNL     1       1.822  -4.947   5.005  0.00  0.00    -0.018 S 
BRANCH  22  24
ATOM     24  N   UNL     1       2.510  -5.295   7.547  0.00  0.00    -0.264 N 
ATOM     25  C   UNL     1       2.783  -6.569   7.202  0.00  0.00    +0.250 C 
ATOM     26  O   UNL     1       2.618  -6.937   6.055  0.00  0.00    -0.270 OA
ATOM     27  H   UNL     1       2.641  -5.001   8.462  0.00  0.00    +0.157 HD
BRANCH  25  28
ATOM     28  C   UNL     1       3.281  -7.516   8.215  0.00  0.00    +0.045 A 
ATOM     29  C   UNL     1       3.588  -7.084   9.499  0.00  0.00    +0.014 A 
ATOM     30  C   UNL     1       4.057  -7.978  10.452  0.00  0.00    +0.001 A 
ATOM     31  C   UNL     1       4.234  -9.299  10.172  0.00  0.00    +0.008 A 
ATOM     32  C   UNL     1       3.944  -9.805   8.894  0.00  0.00    -0.017 A 
ATOM     33  C   UNL     1       3.457  -8.930   7.892  0.00  0.00    -0.006 A 
ATOM     34  C   UNL     1       3.171  -9.430   6.616  0.00  0.00    +0.009 A 
ATOM     35  C   UNL     1       3.355 -10.755   6.355  0.00  0.00    +0.001 A 
ATOM     36  C   UNL     1       3.829 -11.620   7.339  0.00  0.00    +0.001 A 
ATOM     37  C   UNL     1       4.121 -11.166   8.589  0.00  0.00    +0.008 A 
ENDBRANCH  25  28
ENDBRANCH  22  24
ENDBRANCH  20  22
ENDBRANCH   7  20
TORSDOF 9
