REMARK  Name = ZINC08962015
REMARK  9 active torsions:
REMARK  status: ('A' for Active; 'I' for Inactive)
REMARK    1  A    between atoms: C_1  and  C_2
REMARK    2  A    between atoms: C_2  and  C_3
REMARK    3  A    between atoms: C_3  and  O_4
REMARK    4  A    between atoms: O_4  and  C_5
REMARK    5  A    between atoms: C_8  and  S_12
REMARK    6  A    between atoms: C_10  and  C_11
REMARK    7  A    between atoms: S_12  and  N_15
REMARK    8  A    between atoms: N_15  and  C_16
REMARK    9  A    between atoms: C_26  and  C_29
REMARK                            x       y       z     vdW  Elec       q    Type
REMARK                         _______ _______ _______ _____ _____    ______ ____
ROOT
ATOM      1  N   UNL     1       0.223  -5.029   1.548  0.00  0.00    -0.216 N 
ATOM      2  H   UNL     1       1.078  -5.358   1.864  0.00  0.00    +0.174 HD
ENDROOT
BRANCH   1   3
ATOM      3  C   UNL     1      -0.837  -4.859   2.446  0.00  0.00    +0.049 A 
ATOM      4  C   UNL     1      -0.823  -3.796   3.342  0.00  0.00    +0.028 A 
ATOM      5  C   UNL     1      -1.867  -3.614   4.229  0.00  0.00    +0.048 A 
ATOM      6  C   UNL     1      -2.931  -4.499   4.237  0.00  0.00    +0.133 A 
ATOM      7  C   UNL     1      -2.947  -5.579   3.340  0.00  0.00    +0.080 A 
ATOM      8  C   UNL     1      -1.895  -5.754   2.444  0.00  0.00    +0.041 A 
ATOM      9  C   UNL     1      -4.086  -6.516   3.370  0.00  0.00    +0.248 C 
ATOM     10  O   UNL     1      -3.899  -7.718   3.383  0.00  0.00    -0.270 OA
ATOM     11  N   UNL     1      -5.345  -6.015   3.383  0.00  0.00    -0.308 N 
ATOM     12  C   UNL     1      -5.548  -4.570   3.259  0.00  0.00    +0.148 C 
ATOM     13  C   UNL     1      -5.194  -3.861   4.559  0.00  0.00    +0.187 C 
ATOM     14  O   UNL     1      -3.967  -4.338   5.099  0.00  0.00    -0.487 OA
ATOM     15  C   UNL     1      -5.072  -2.360   4.292  0.00  0.00    +0.053 C 
ATOM     16  H   UNL     1      -6.106  -6.609   3.474  0.00  0.00    +0.149 HD
ENDBRANCH   1   3
BRANCH   1  17
ATOM     17  S   UNL     1       0.016  -4.667  -0.055  0.00  0.00    +0.072 S 
ATOM     18  O   UNL     1      -1.168  -5.333  -0.472  0.00  0.00    -0.150 OA
ATOM     19  O   UNL     1       1.272  -4.879  -0.685  0.00  0.00    -0.150 OA
BRANCH  17  23
ATOM     20  C   UNL     1      -0.834  -0.227  -0.326  0.00  0.00    +0.123 A 
ATOM     21  C   UNL     1       0.476  -0.682  -0.276  0.00  0.00    +0.048 A 
ATOM     22  C   UNL     1       0.733  -2.037  -0.193  0.00  0.00    +0.032 A 
ATOM     23  C   UNL     1      -0.315  -2.939  -0.160  0.00  0.00    +0.109 A 
ATOM     24  C   UNL     1      -1.621  -2.488  -0.210  0.00  0.00    +0.035 A 
ATOM     25  C   UNL     1      -1.883  -1.134  -0.287  0.00  0.00    -0.007 A 
ATOM     26  C   UNL     1      -3.306  -0.642  -0.335  0.00  0.00    +0.047 C 
BRANCH  20  27
ATOM     27  O   UNL     1      -1.089   1.105  -0.408  0.00  0.00    -0.492 OA
BRANCH  27  28
ATOM     28  C   UNL     1       0.040   1.981  -0.438  0.00  0.00    +0.229 C 
BRANCH  28  30
ATOM     29  C   UNL     1       0.767   4.368  -0.563  0.00  0.00    +0.007 C 
ATOM     30  C   UNL     1      -0.441   3.431  -0.531  0.00  0.00    +0.038 C 
ENDBRANCH  28  30
ENDBRANCH  27  28
ENDBRANCH  20  27
ENDBRANCH  17  23
ENDBRANCH   1  17
TORSDOF 6
