REMARK  Name = ZINC12909599
REMARK  4 active torsions:
REMARK  status: ('A' for Active; 'I' for Inactive)
REMARK    1  A    between atoms: C_4  and  N_7
REMARK    2  A    between atoms: C_8  and  C_10
REMARK    3  A    between atoms: C_10  and  C_11
REMARK    4  A    between atoms: C_11  and  C_12
REMARK                            x       y       z     vdW  Elec       q    Type
REMARK                         _______ _______ _______ _____ _____    ______ ____
ROOT
ATOM      1  C   UNL     1       6.054   1.032   1.447  0.00  0.00    +0.111 A 
ATOM      2  N   UNL     1       7.020   0.353   2.117  0.00  0.00    -0.310 N 
ATOM      3  H   UNL     1       6.767  -0.566   2.665  0.00  0.00    +0.170 HD
ATOM      4  C   UNL     1       8.297   0.781   2.129  0.00  0.00    +0.260 A 
ATOM      5  O   UNL     1       9.153   0.158   2.732  0.00  0.00    -0.267 OA
ATOM      6  C   UNL     1       8.630   1.985   1.425  0.00  0.00    +0.075 A 
ATOM      7  C   UNL     1       9.935   2.634   1.305  0.00  0.00    -0.023 A 
ATOM      8  C   UNL     1       9.988   3.771   0.579  0.00  0.00    -0.004 A 
ATOM      9  S   UNL     1       8.326   4.039   0.023  0.00  0.00    -0.073 S 
ATOM     10  C   UNL     1       7.564   2.619   0.768  0.00  0.00    +0.116 A 
ATOM     11  N   UNL     1       6.327   2.132   0.797  0.00  0.00    -0.227 NA
ATOM     12  C   UNL     1      11.193   4.619   0.308  0.00  0.00    +0.043 C 
ATOM     13  C   UNL     1      12.304   4.208   1.284  0.00  0.00    +0.005 C 
ATOM     14  C   UNL     1      12.418   2.681   1.285  0.00  0.00    +0.005 C 
ATOM     15  C   UNL     1      11.191   2.069   1.961  0.00  0.00    +0.037 C 
ENDROOT
BRANCH   1  16
ATOM     16  C   UNL     1       4.640   0.511   1.457  0.00  0.00    +0.083 C 
BRANCH  16  17
ATOM     17  C   UNL     1       3.745   1.447   0.644  0.00  0.00    +0.103 C 
BRANCH  17  19
ATOM     18  N   UNL     1       1.362   1.593  -0.002  0.00  0.00    -0.312 N 
ATOM     19  C   UNL     1       2.331   0.926   0.654  0.00  0.00    +0.214 C 
ATOM     20  O   UNL     1       2.066  -0.095   1.254  0.00  0.00    -0.276 OA
ATOM     21  H   UNL     1       1.602   2.518  -0.546  0.00  0.00    +0.149 HD
BRANCH  18  25
ATOM     22  C   UNL     1      -2.904   1.556   0.038  0.00  0.00    +0.000 C 
ATOM     23  C   UNL     1      -2.188   1.063  -1.221  0.00  0.00    +0.002 C 
ATOM     24  C   UNL     1      -0.753   1.593  -1.232  0.00  0.00    +0.022 C 
ATOM     25  C   UNL     1      -0.013   1.086   0.008  0.00  0.00    +0.073 C 
ATOM     26  C   UNL     1      -0.729   1.579   1.267  0.00  0.00    +0.022 C 
ATOM     27  C   UNL     1      -2.164   1.050   1.278  0.00  0.00    +0.002 C 
ENDBRANCH  18  25
ENDBRANCH  17  19
ENDBRANCH  16  17
ENDBRANCH   1  16
TORSDOF 4
