REMARK  Name = ZINC32429415
REMARK  6 active torsions:
REMARK  status: ('A' for Active; 'I' for Inactive)
REMARK    1  A    between atoms: C_1  and  C_2
REMARK    2  A    between atoms: C_2  and  C_4
REMARK    3  A    between atoms: C_2  and  N_26
REMARK    4  A    between atoms: C_4  and  N_5
REMARK    5  A    between atoms: C_6  and  C_8
REMARK    6  A    between atoms: C_19  and  C_21
REMARK                            x       y       z     vdW  Elec       q    Type
REMARK                         _______ _______ _______ _____ _____    ______ ____
ROOT
ATOM      1  N   UNL     1      -1.647   1.325   2.421  0.00  0.00    -0.315 N 
ATOM      2  C   UNL     1      -2.804   2.008   2.316  0.00  0.00    +0.234 C 
ATOM      3  O   UNL     1      -3.847   1.411   2.155  0.00  0.00    -0.274 OA
ATOM      4  H   UNL     1      -0.700   1.865   2.567  0.00  0.00    +0.149 HD
ENDROOT
BRANCH   2   5
ATOM      5  C   UNL     1      -2.801   3.512   2.400  0.00  0.00    +0.167 C 
ATOM      6  C   UNL     1      -3.560   4.097   1.210  0.00  0.00    +0.067 C 
ATOM      7  C   UNL     1      -3.846   5.560   1.423  0.00  0.00    -0.040 A 
ATOM      8  C   UNL     1      -4.133   6.331   0.302  0.00  0.00    +0.004 A 
ATOM      9  C   UNL     1      -4.415   7.675   0.428  0.00  0.00    +0.000 A 
ATOM     10  C   UNL     1      -4.412   8.264   1.679  0.00  0.00    +0.000 A 
ATOM     11  C   UNL     1      -4.123   7.502   2.793  0.00  0.00    +0.005 A 
ATOM     12  C   UNL     1      -3.835   6.150   2.667  0.00  0.00    -0.027 A 
ATOM     13  C   UNL     1      -3.502   5.382   3.921  0.00  0.00    +0.144 C 
ATOM     14  N   UNL     1      -3.483   3.944   3.630  0.00  0.00    -0.279 N 
ATOM     15  C   UNL     1      -4.069   3.055   4.456  0.00  0.00    +0.283 C 
ATOM     16  O   UNL     1      -3.955   1.862   4.245  0.00  0.00    -0.267 OA
BRANCH  15  17
ATOM     17  C   UNL     1      -4.846   3.525   5.608  0.00  0.00    +0.189 A 
ATOM     18  C   UNL     1      -5.373   2.740   6.594  0.00  0.00    +0.054 A 
ATOM     19  C   UNL     1      -6.029   3.602   7.487  0.00  0.00    +0.042 A 
ATOM     20  C   UNL     1      -5.882   4.857   7.009  0.00  0.00    +0.196 A 
ATOM     21  O   UNL     1      -5.168   4.807   5.877  0.00  0.00    -0.458 OA
ENDBRANCH  15  17
ENDBRANCH   2   5
BRANCH   1  22
ATOM     22  C   UNL     1      -1.649  -0.138   2.340  0.00  0.00    +0.089 C 
BRANCH  22  24
ATOM     23  C   UNL     1      -0.214  -2.183   2.369  0.00  0.00    -0.012 C 
ATOM     24  C   UNL     1      -0.209  -0.653   2.363  0.00  0.00    -0.054 C 
BRANCH  24  25
ATOM     25  N   UNL     1       0.467  -0.161   3.571  0.00  0.00    +0.385 N 
ATOM     26  C   UNL     1       1.852  -0.651   3.636  0.00  0.00    -0.073 C 
ATOM     27  C   UNL     1       2.630   0.196   4.658  0.00  0.00    +0.024 C 
ATOM     28  C   UNL     1       1.788   0.313   5.886  0.00  0.00    -0.011 A 
ATOM     29  C   UNL     1       0.464   0.011   5.997  0.00  0.00    -0.054 A 
ATOM     30  C   UNL     1      -0.114   0.198   7.250  0.00  0.00    +0.009 A 
ATOM     31  C   UNL     1       0.634   0.661   8.279  0.00  0.00    +0.045 A 
ATOM     32  S   UNL     1       2.235   0.859   7.510  0.00  0.00    -0.101 S 
ATOM     33  C   UNL     1      -0.296  -0.503   4.778  0.00  0.00    -0.042 C 
ATOM     34  H   UNL     1       0.514   0.936   3.518  0.00  0.00    -0.081 HD
ENDBRANCH  24  25
ENDBRANCH  22  24
ENDBRANCH   1  22
TORSDOF 5
