REMARK  Name = ZINC00864799
REMARK  4 active torsions:
REMARK  status: ('A' for Active; 'I' for Inactive)
REMARK    1  A    between atoms: C_3  and  N_18
REMARK    2  A    between atoms: C_6  and  N_7
REMARK    3  A    between atoms: C_8  and  C_9
REMARK    4  A    between atoms: C_14  and  O_15
REMARK                            x       y       z     vdW  Elec       q    Type
REMARK                         _______ _______ _______ _____ _____    ______ ____
ROOT
ATOM      1  C   UNL     1      -0.017   1.393   0.024  0.00  0.00    +0.029 A 
ATOM      2  C   UNL     1       1.168   2.096   0.017  0.00  0.00    +0.025 A 
ATOM      3  C   UNL     1       2.381   1.418  -0.013  0.00  0.00    +0.030 A 
ATOM      4  C   UNL     1       2.404   0.027  -0.036  0.00  0.00    +0.025 A 
ATOM      5  C   UNL     1       1.223  -0.683  -0.028  0.00  0.00    +0.029 A 
ATOM      6  C   UNL     1       0.002  -0.004   0.002  0.00  0.00    +0.064 A 
ENDROOT
BRANCH   3   7
ATOM      7  N   UNL     1       3.580   2.134  -0.021  0.00  0.00    -0.326 N 
ATOM      8  C   UNL     1       4.876   1.442   0.067  0.00  0.00    +0.133 C 
ATOM      9  C   UNL     1       5.775   1.956  -1.063  0.00  0.00    +0.178 C 
ATOM     10  O   UNL     1       5.813   3.384  -1.023  0.00  0.00    -0.377 OA
ATOM     11  C   UNL     1       4.546   4.010  -1.239  0.00  0.00    +0.178 C 
ATOM     12  C   UNL     1       3.584   3.602  -0.123  0.00  0.00    +0.133 C 
ENDBRANCH   3   7
BRANCH   6  13
ATOM     13  N   UNL     1      -1.173  -0.706   0.010  0.00  0.00    -0.255 NA
ATOM     14  C   UNL     1      -1.336  -1.713  -0.802  0.00  0.00    +0.123 C 
BRANCH  14  15
ATOM     15  C   UNL     1      -2.598  -2.467  -0.793  0.00  0.00    +0.037 A 
ATOM     16  C   UNL     1      -2.775  -3.552  -1.659  0.00  0.00    +0.028 A 
ATOM     17  C   UNL     1      -3.961  -4.255  -1.645  0.00  0.00    +0.020 A 
ATOM     18  C   UNL     1      -4.979  -3.892  -0.778  0.00  0.00    +0.039 A 
ATOM     19  C   UNL     1      -4.817  -2.822   0.083  0.00  0.00    +0.084 A 
ATOM     20  C   UNL     1      -3.629  -2.107   0.086  0.00  0.00    +0.144 A 
ATOM     21 CL   UNL     1      -6.101  -2.377   1.164  0.00  0.00    -0.080 Cl
ATOM     22 BR   UNL     1      -4.199  -5.721  -2.816  0.00  0.00    -0.050 Br
BRANCH  20  23
ATOM     23  O   UNL     1      -3.467  -1.059   0.935  0.00  0.00    -0.505 OA
ATOM     24  H   UNL     1      -3.750  -0.210   0.570  0.00  0.00    +0.292 HD
ENDBRANCH  20  23
ENDBRANCH  14  15
ENDBRANCH   6  13
TORSDOF 4
