REMARK  Name = ZINC40259708
REMARK  4 active torsions:
REMARK  status: ('A' for Active; 'I' for Inactive)
REMARK    1  A    between atoms: C_1  and  C_2
REMARK    2  A    between atoms: C_6  and  C_7
REMARK    3  A    between atoms: C_7  and  C_9
REMARK    4  A    between atoms: C_7  and  O_21
REMARK                            x       y       z     vdW  Elec       q    Type
REMARK                         _______ _______ _______ _____ _____    ______ ____
ROOT
ATOM      1  C   UNL     1       1.410  -0.545   3.093  0.00  0.00    +0.010 A 
ATOM      2  C   UNL     1       1.720  -1.700   3.790  0.00  0.00    +0.057 A 
ATOM      3  C   UNL     1       2.989  -1.863   4.318  0.00  0.00    +0.162 A 
ATOM      4  C   UNL     1       3.946  -0.873   4.148  0.00  0.00    +0.163 A 
ATOM      5  C   UNL     1       3.635   0.281   3.451  0.00  0.00    +0.069 A 
ATOM      6  C   UNL     1       2.366   0.440   2.919  0.00  0.00    +0.051 A 
ATOM      7 CL   UNL     1       1.971   1.882   2.036  0.00  0.00    -0.083 Cl
ATOM      8  O   UNL     1       5.195  -1.045   4.672  0.00  0.00    -0.488 OA
ATOM      9  C   UNL     1       5.282  -1.032   6.098  0.00  0.00    +0.232 C 
ATOM     10  C   UNL     1       4.974  -2.406   6.670  0.00  0.00    +0.082 C 
ATOM     11  C   UNL     1       3.539  -2.835   6.407  0.00  0.00    +0.232 C 
ATOM     12  O   UNL     1       3.308  -2.998   5.006  0.00  0.00    -0.488 OA
ENDROOT
BRANCH   1  13
ATOM     13  C   UNL     1       0.030  -0.363   2.516  0.00  0.00    +0.212 C 
BRANCH  13  19
ATOM     14  C   UNL     1      -0.018   1.503   0.010  0.00  0.00    +0.047 C 
ATOM     15  C   UNL     1       0.002  -0.004   0.002  0.00  0.00    -0.007 A 
ATOM     16  C   UNL     1       0.009  -0.840  -1.138  0.00  0.00    +0.045 A 
ATOM     17  C   UNL     1       0.029  -2.109  -0.691  0.00  0.00    +0.195 A 
ATOM     18  O   UNL     1       0.034  -2.085   0.652  0.00  0.00    -0.465 OA
ATOM     19  C   UNL     1       0.023  -0.811   1.078  0.00  0.00    +0.141 A 
ENDBRANCH  13  19
BRANCH  13  20
ATOM     20  O   UNL     1      -0.905  -1.144   3.263  0.00  0.00    -0.379 OA
ATOM     21  H   UNL     1      -0.717  -2.092   3.259  0.00  0.00    +0.211 HD
ENDBRANCH  13  20
ENDBRANCH   1  13
TORSDOF 3
