REMARK  Name = ZINC40386462
REMARK  5 active torsions:
REMARK  status: ('A' for Active; 'I' for Inactive)
REMARK    1  A    between atoms: C_4  and  C_7
REMARK    2  A    between atoms: C_8  and  C_9
REMARK    3  A    between atoms: C_23  and  C_25
REMARK    4  A    between atoms: C_25  and  N_26
REMARK    5  A    between atoms: N_29  and  C_32
REMARK                            x       y       z     vdW  Elec       q    Type
REMARK                         _______ _______ _______ _____ _____    ______ ____
ROOT
ATOM      1  C   UNL     1       4.974  -2.726  -2.452  0.00  0.00    +0.240 C 
ATOM      2  O   UNL     1       3.914  -2.140  -2.333  0.00  0.00    -0.271 OA
ATOM      3  N   UNL     1       4.993  -4.069  -2.561  0.00  0.00    -0.295 N 
ATOM      4  C   UNL     1       6.268  -4.800  -2.580  0.00  0.00    +0.127 C 
ATOM      5  C   UNL     1       6.244  -5.856  -1.469  0.00  0.00    +0.127 C 
ATOM      6  N   UNL     1       4.990  -6.616  -1.570  0.00  0.00    -0.298 N 
ATOM      7  C   UNL     1       3.715  -5.886  -1.550  0.00  0.00    +0.127 C 
ATOM      8  C   UNL     1       3.739  -4.830  -2.656  0.00  0.00    +0.127 C 
ATOM      9  C   UNL     1       5.009  -7.981  -1.681  0.00  0.00    +0.198 A 
ATOM     10  N   UNL     1       6.194  -8.643  -1.582  0.00  0.00    -0.295 N 
ATOM     11  H   UNL     1       7.016  -8.150  -1.434  0.00  0.00    +0.172 HD
ATOM     12  C   UNL     1       6.221  -9.988  -1.690  0.00  0.00    +0.253 A 
ATOM     13  O   UNL     1       7.274 -10.598  -1.603  0.00  0.00    -0.268 OA
ATOM     14  C   UNL     1       5.012 -10.674  -1.903  0.00  0.00    +0.091 A 
ATOM     15  C   UNL     1       3.854  -9.956  -1.994  0.00  0.00    +0.034 A 
ATOM     16  N   UNL     1       3.879  -8.631  -1.876  0.00  0.00    -0.223 NA
ENDROOT
BRANCH   1  18
ATOM     17  C   UNL     1       6.205  -0.624  -2.467  0.00  0.00    +0.013 C 
ATOM     18  C   UNL     1       6.229  -1.972  -2.475  0.00  0.00    +0.068 C 
BRANCH  17  22
ATOM     19  C   UNL     1       9.840   1.562  -2.535  0.00  0.00    +0.000 A 
ATOM     20  C   UNL     1       8.632   2.236  -2.505  0.00  0.00    +0.001 A 
ATOM     21  C   UNL     1       7.446   1.533  -2.483  0.00  0.00    +0.008 A 
ATOM     22  C   UNL     1       7.466   0.135  -2.491  0.00  0.00    -0.025 A 
ATOM     23  C   UNL     1       8.691  -0.539  -2.522  0.00  0.00    +0.008 A 
ATOM     24  C   UNL     1       9.869   0.178  -2.543  0.00  0.00    +0.001 A 
ENDBRANCH  17  22
ENDBRANCH   1  18
BRANCH  15  25
ATOM     25  C   UNL     1       2.545 -10.667  -2.222  0.00  0.00    -0.022 C 
BRANCH  25  26
ATOM     26  N   UNL     1       1.679 -10.486  -1.050  0.00  0.00    +0.385 N 
ATOM     27  C   UNL     1       1.341  -9.064  -0.907  0.00  0.00    -0.059 C 
ATOM     28  C   UNL     1       0.534  -8.858   0.379  0.00  0.00    +0.086 C 
ATOM     29  N   UNL     1      -0.630  -9.758   0.348  0.00  0.00    -0.331 N 
ATOM     30  C   UNL     1      -0.399 -11.180   0.048  0.00  0.00    +0.086 C 
ATOM     31  C   UNL     1       0.453 -11.276  -1.222  0.00  0.00    -0.059 C 
ATOM     32  H   UNL     1       2.165 -10.798  -0.223  0.00  0.00    -0.081 HD
BRANCH  29  33
ATOM     33  C   UNL     1      -1.919  -9.276   0.596  0.00  0.00    +0.065 A 
ATOM     34  C   UNL     1      -2.704  -8.818  -0.453  0.00  0.00    +0.026 A 
ATOM     35  C   UNL     1      -3.977  -8.343  -0.205  0.00  0.00    +0.002 A 
ATOM     36  C   UNL     1      -4.471  -8.322   1.087  0.00  0.00    +0.003 A 
ATOM     37  C   UNL     1      -3.692  -8.777   2.135  0.00  0.00    +0.040 A 
ATOM     38  C   UNL     1      -2.419  -9.260   1.893  0.00  0.00    +0.144 A 
ATOM     39  F   UNL     1      -1.661  -9.710   2.917  0.00  0.00    -0.204 F 
ENDBRANCH  29  33
ENDBRANCH  25  26
ENDBRANCH  15  25
TORSDOF 5
