REMARK  Name = ZINC35701095
REMARK  13 active torsions:
REMARK  status: ('A' for Active; 'I' for Inactive)
REMARK    1  A    between atoms: C_1  and  C_2
REMARK    2  A    between atoms: C_3  and  C_32
REMARK    3  A    between atoms: C_4  and  C_23
REMARK    4  A    between atoms: C_7  and  C_12
REMARK    5  A    between atoms: C_13  and  N_15
REMARK    6  A    between atoms: N_15  and  C_16
REMARK    7  A    between atoms: C_16  and  C_17
REMARK    8  A    between atoms: C_26  and  N_29
REMARK    9  A    between atoms: C_32  and  O_34
REMARK   10  A    between atoms: O_34  and  C_35
REMARK   11  A    between atoms: C_35  and  C_36
REMARK   12  A    between atoms: C_36  and  O_37
REMARK   13  A    between atoms: O_37  and  C_38
REMARK                            x       y       z     vdW  Elec       q    Type
REMARK                         _______ _______ _______ _____ _____    ______ ____
ROOT
ATOM      1  C   UNL     1       0.000   1.541   0.235  0.00  0.00    +0.066 C 
ATOM      2  C   UNL     1      -0.003   0.036   0.169  0.00  0.00    +0.053 C 
ATOM      3  C   UNL     1      -1.203  -0.648   0.152  0.00  0.00    +0.082 C 
ATOM      4  C   UNL     1      -1.153  -2.158   0.085  0.00  0.00    +0.150 C 
ATOM      5  N   UNL     1       0.192  -2.790   0.043  0.00  0.00    -0.267 N 
ATOM      6  C   UNL     1       0.475  -4.140  -0.021  0.00  0.00    +0.048 C 
ATOM      7  C   UNL     1       1.775  -4.507  -0.051  0.00  0.00    +0.072 C 
ATOM      8  S   UNL     1       2.605  -2.932   0.009  0.00  0.00    -0.060 S 
ATOM      9  C   UNL     1       1.257  -1.933   0.069  0.00  0.00    +0.166 C 
ATOM     10  N   UNL     1       1.144  -0.622   0.122  0.00  0.00    -0.230 NA
ENDROOT
BRANCH   4  11
ATOM     11  C   UNL     1      -1.909  -2.593  -1.144  0.00  0.00    -0.022 A 
ATOM     12  C   UNL     1      -1.349  -2.420  -2.396  0.00  0.00    +0.008 A 
ATOM     13  C   UNL     1      -2.041  -2.819  -3.524  0.00  0.00    +0.033 A 
ATOM     14  C   UNL     1      -3.294  -3.391  -3.400  0.00  0.00    +0.126 A 
ATOM     15  C   UNL     1      -3.853  -3.565  -2.148  0.00  0.00    +0.033 A 
ATOM     16  C   UNL     1      -3.159  -3.170  -1.020  0.00  0.00    +0.008 A 
BRANCH  14  17
ATOM     17  N   UNL     1      -4.036  -3.817  -4.608  0.00  0.00    +0.056 N 
ATOM     18  O   UNL     1      -3.546  -3.665  -5.703  0.00  0.00    -0.126 OA
ATOM     19  O   UNL     1      -5.131  -4.317  -4.499  0.00  0.00    -0.126 OA
ENDBRANCH  14  17
ENDBRANCH   4  11
BRANCH   6  20
ATOM     20  C   UNL     1      -0.600  -5.142  -0.052  0.00  0.00    +0.091 C 
ATOM     21  C   UNL     1      -0.302  -6.453   0.033  0.00  0.00    +0.239 C 
ATOM     22  O   UNL     1       0.972  -6.843   0.282  0.00  0.00    -0.271 OA
BRANCH  21  23
ATOM     23  N   UNL     1      -1.296  -7.401  -0.134  0.00  0.00    -0.309 N 
ATOM     24  H   UNL     1      -2.220  -7.123  -0.238  0.00  0.00    +0.149 HD
BRANCH  23  25
ATOM     25  C   UNL     1      -0.955  -8.826  -0.153  0.00  0.00    +0.136 C 
BRANCH  25  26
ATOM     26  C   UNL     1      -2.205  -9.646  -0.473  0.00  0.00    +0.135 C 
ATOM     27  C   UNL     1      -1.883 -11.153  -0.376  0.00  0.00    +0.035 C 
ATOM     28  C   UNL     1      -2.683 -11.739  -1.571  0.00  0.00    +0.031 C 
ATOM     29  C   UNL     1      -2.569 -10.584  -2.597  0.00  0.00    +0.160 C 
ATOM     30  O   UNL     1      -2.632  -9.379  -1.814  0.00  0.00    -0.375 OA
ENDBRANCH  25  26
ENDBRANCH  23  25
ENDBRANCH  21  23
ENDBRANCH   6  20
BRANCH   3  31
ATOM     31  C   UNL     1      -2.425   0.034   0.197  0.00  0.00    +0.339 C 
ATOM     32  O   UNL     1      -2.441   1.252   0.251  0.00  0.00    -0.245 OA
BRANCH  31  33
ATOM     33  O   UNL     1      -3.586  -0.657   0.179  0.00  0.00    -0.459 OA
BRANCH  33  34
ATOM     34  C   UNL     1      -4.795   0.103   0.227  0.00  0.00    +0.260 C 
BRANCH  34  35
ATOM     35  C   UNL     1      -5.995  -0.844   0.198  0.00  0.00    +0.200 C 
BRANCH  35  36
ATOM     36  O   UNL     1      -6.003  -1.640   1.385  0.00  0.00    -0.380 OA
ATOM     37  C   UNL     1      -7.090  -2.564   1.459  0.00  0.00    +0.194 C 
ENDBRANCH  35  36
ENDBRANCH  34  35
ENDBRANCH  33  34
ENDBRANCH  31  33
ENDBRANCH   3  31
TORSDOF 11
