REMARK  Name = ZINC34699063
REMARK  9 active torsions:
REMARK  status: ('A' for Active; 'I' for Inactive)
REMARK    1  A    between atoms: C_1  and  C_2
REMARK    2  A    between atoms: C_2  and  C_3
REMARK    3  A    between atoms: C_2  and  N_4
REMARK    4  A    between atoms: N_4  and  C_5
REMARK    5  A    between atoms: C_5  and  C_6
REMARK    6  A    between atoms: N_9  and  C_20
REMARK    7  A    between atoms: C_11  and  C_13
REMARK    8  A    between atoms: C_20  and  C_21
REMARK    9  A    between atoms: C_27  and  C_29
REMARK                            x       y       z     vdW  Elec       q    Type
REMARK                         _______ _______ _______ _____ _____    ______ ____
ROOT
ATOM      1  C   UNL     1      -2.399  -1.625   2.137  0.00  0.00    -0.005 C 
ATOM      2  C   UNL     1      -2.618  -0.715   3.365  0.00  0.00    -0.073 C 
ATOM      3  N   UNL     1      -4.066  -0.844   3.673  0.00  0.00    +0.384 N 
ATOM      4  C   UNL     1      -4.359  -2.283   3.451  0.00  0.00    -0.070 C 
ATOM      5  C   UNL     1      -3.542  -2.659   2.192  0.00  0.00    +0.005 C 
ATOM      6  H   UNL     1      -4.612  -0.272   3.047  0.00  0.00    -0.081 HD
ENDROOT
BRANCH   5   7
ATOM      7  C   UNL     1      -2.983  -4.051   2.326  0.00  0.00    -0.046 A 
ATOM      8  C   UNL     1      -2.204  -4.381   3.419  0.00  0.00    +0.006 A 
ATOM      9  C   UNL     1      -1.691  -5.659   3.543  0.00  0.00    +0.038 A 
ATOM     10  C   UNL     1      -1.956  -6.608   2.570  0.00  0.00    +0.123 A 
ATOM     11  C   UNL     1      -2.736  -6.276   1.475  0.00  0.00    +0.038 A 
ATOM     12  C   UNL     1      -3.253  -5.000   1.357  0.00  0.00    +0.006 A 
ATOM     13  F   UNL     1      -1.455  -7.857   2.690  0.00  0.00    -0.205 F 
ENDBRANCH   5   7
BRANCH   1  14
ATOM     14  C   UNL     1      -2.484  -0.807   0.847  0.00  0.00    +0.110 C 
BRANCH  14  15
ATOM     15  N   UNL     1      -1.342   0.109   0.774  0.00  0.00    -0.295 N 
ATOM     16  C   UNL     1      -1.437   1.347   1.298  0.00  0.00    +0.247 C 
ATOM     17  O   UNL     1      -2.492   1.949   1.250  0.00  0.00    -0.270 OA
BRANCH  16  18
ATOM     18  C   UNL     1      -0.258   1.972   1.932  0.00  0.00    +0.037 A 
ATOM     19  C   UNL     1       1.028   1.635   1.506  0.00  0.00    +0.016 A 
ATOM     20  C   UNL     1       2.125   2.221   2.101  0.00  0.00    +0.039 A 
ATOM     21  C   UNL     1       1.952   3.144   3.121  0.00  0.00    +0.123 A 
ATOM     22  C   UNL     1       0.677   3.483   3.548  0.00  0.00    +0.039 A 
ATOM     23  C   UNL     1      -0.426   2.907   2.956  0.00  0.00    +0.016 A 
ATOM     24  F   UNL     1       3.030   3.715   3.702  0.00  0.00    -0.205 F 
ENDBRANCH  16  18
BRANCH  15  26
ATOM     25  C   UNL     1       0.455   0.822  -0.724  0.00  0.00    +0.028 C 
ATOM     26  C   UNL     1      -0.099  -0.321   0.130  0.00  0.00    +0.070 C 
ATOM     27  C   UNL     1       0.926  -0.700   1.201  0.00  0.00    +0.028 C 
ENDBRANCH  15  26
ENDBRANCH  14  15
ENDBRANCH   1  14
BRANCH   3  28
ATOM     28  C   UNL     1      -4.328  -0.476   5.071  0.00  0.00    -0.025 C 
BRANCH  28  29
ATOM     29  C   UNL     1      -5.814  -0.496   5.325  0.00  0.00    -0.001 A 
ATOM     30  C   UNL     1      -6.642   0.565   5.255  0.00  0.00    +0.020 A 
ATOM     31  C   UNL     1      -7.939   0.109   5.563  0.00  0.00    +0.019 A 
ATOM     32  C   UNL     1      -7.853  -1.214   5.810  0.00  0.00    +0.082 A 
ATOM     33  N   UNL     1      -6.552  -1.593   5.659  0.00  0.00    -0.366 N 
ATOM     34  H   UNL     1      -6.208  -2.492   5.774  0.00  0.00    +0.165 HD
ENDBRANCH  28  29
ENDBRANCH   3  28
TORSDOF 7
