REMARK  Name = ZINC65408563
REMARK  8 active torsions:
REMARK  status: ('A' for Active; 'I' for Inactive)
REMARK    1  A    between atoms: C_1  and  C_2
REMARK    2  A    between atoms: C_2  and  C_3
REMARK    3  A    between atoms: C_2  and  C_4
REMARK    4  A    between atoms: C_2  and  O_25
REMARK    5  A    between atoms: C_5  and  C_6
REMARK    6  A    between atoms: C_9  and  C_11
REMARK    7  A    between atoms: C_13  and  C_22
REMARK    8  A    between atoms: N_15  and  C_16
REMARK                            x       y       z     vdW  Elec       q    Type
REMARK                         _______ _______ _______ _____ _____    ______ ____
ROOT
ATOM      1  C   UNL     1      -6.311  -4.046   0.048  0.00  0.00    +0.199 A 
ATOM      2  N   UNL     1      -7.597  -4.161   0.328  0.00  0.00    -0.208 NA
ATOM      3  C   UNL     1      -7.966  -5.434   0.234  0.00  0.00    +0.155 A 
ATOM      4  N   UNL     1      -6.935  -6.163  -0.106  0.00  0.00    -0.149 NA
ATOM      5  N   UNL     1      -5.840  -5.294  -0.241  0.00  0.00    -0.210 N 
ENDROOT
BRANCH   5   6
ATOM      6  C   UNL     1      -4.531  -5.638  -0.598  0.00  0.00    +0.068 A 
ATOM      7  C   UNL     1      -3.767  -4.767  -1.364  0.00  0.00    +0.028 A 
ATOM      8  C   UNL     1      -2.475  -5.109  -1.714  0.00  0.00    +0.002 A 
ATOM      9  C   UNL     1      -1.944  -6.318  -1.305  0.00  0.00    +0.000 A 
ATOM     10  C   UNL     1      -2.702  -7.188  -0.543  0.00  0.00    +0.002 A 
ATOM     11  C   UNL     1      -3.992  -6.849  -0.183  0.00  0.00    +0.028 A 
ENDBRANCH   5   6
BRANCH   1  15
ATOM     12  C   UNL     1      -3.824  -1.416   0.031  0.00  0.00    +0.179 A 
ATOM     13  C   UNL     1      -4.957  -0.653   0.040  0.00  0.00    +0.059 A 
ATOM     14  C   UNL     1      -6.044  -1.536   0.048  0.00  0.00    +0.054 A 
ATOM     15  C   UNL     1      -5.530  -2.801   0.043  0.00  0.00    +0.173 A 
ATOM     16  O   UNL     1      -4.185  -2.713   0.027  0.00  0.00    -0.444 OA
BRANCH  12  18
ATOM     17  C   UNL     1      -1.379  -0.514   0.013  0.00  0.00    -0.060 C 
ATOM     18  C   UNL     1      -2.480  -0.920   0.021  0.00  0.00    -0.026 C 
BRANCH  17  20
ATOM     19  C   UNL     1      -0.019   1.526   0.010  0.00  0.00    +0.055 C 
ATOM     20  C   UNL     1       0.002  -0.004   0.002  0.00  0.00    +0.121 C 
ATOM     21  C   UNL     1       0.742  -0.511   1.242  0.00  0.00    +0.055 C 
BRANCH  20  22
ATOM     22  O   UNL     1       0.671  -0.465  -1.174  0.00  0.00    -0.377 OA
ATOM     23  H   UNL     1       1.588  -0.167  -1.247  0.00  0.00    +0.211 HD
ENDBRANCH  20  22
ENDBRANCH  17  20
ENDBRANCH  12  18
ENDBRANCH   1  15
BRANCH   3  24
ATOM     24  C   UNL     1      -9.358  -5.957   0.481  0.00  0.00    +0.059 C 
ATOM     25  C   UNL     1     -10.476  -4.929   0.671  0.00  0.00    +0.012 C 
ATOM     26  C   UNL     1      -9.962  -5.731   1.868  0.00  0.00    +0.012 C 
ENDBRANCH   3  24
TORSDOF 6
