REMARK  Name = ZINC09505453
REMARK  8 active torsions:
REMARK  status: ('A' for Active; 'I' for Inactive)
REMARK    1  A    between atoms: C_1  and  C_2
REMARK    2  A    between atoms: C_5  and  C_36
REMARK    3  A    between atoms: C_6  and  C_8
REMARK    4  A    between atoms: C_8  and  S_9
REMARK    5  A    between atoms: S_9  and  C_10
REMARK    6  A    between atoms: C_10  and  C_11
REMARK    7  A    between atoms: C_18  and  C_23
REMARK    8  A    between atoms: N_28  and  C_31
REMARK                            x       y       z     vdW  Elec       q    Type
REMARK                         _______ _______ _______ _____ _____    ______ ____
ROOT
ATOM      1  C   UNL     1       1.296  11.251   7.071  0.00  0.00    +0.167 C 
ATOM      2  C   UNL     1       0.043  11.998   6.693  0.00  0.00    +0.238 C 
ATOM      3  O   UNL     1      -0.351  12.904   7.396  0.00  0.00    -0.273 OA
ATOM      4  N   UNL     1      -0.643  11.669   5.582  0.00  0.00    -0.282 N 
ATOM      5  C   UNL     1      -0.136  10.725   4.681  0.00  0.00    +0.055 A 
ATOM      6  C   UNL     1      -0.927  10.240   3.657  0.00  0.00    +0.038 A 
ATOM      7  C   UNL     1      -0.412   9.284   2.777  0.00  0.00    +0.039 A 
ATOM      8  C   UNL     1       0.901   8.830   2.926  0.00  0.00    +0.015 A 
ATOM      9  C   UNL     1       1.690   9.323   3.943  0.00  0.00    +0.025 A 
ATOM     10  C   UNL     1       1.179  10.270   4.819  0.00  0.00    +0.049 A 
ATOM     11  N   UNL     1       1.967  10.789   5.848  0.00  0.00    -0.331 N 
ATOM     12  H   UNL     1      -1.498  12.091   5.405  0.00  0.00    +0.155 HD
ATOM     13  H   UNL     1       2.931  10.844   5.757  0.00  0.00    +0.147 HD
ENDROOT
BRANCH   7  14
ATOM     14  C   UNL     1      -1.255   8.758   1.686  0.00  0.00    +0.247 C 
ATOM     15  O   UNL     1      -1.858   9.524   0.960  0.00  0.00    -0.270 OA
ATOM     16  N   UNL     1      -1.355   7.427   1.494  0.00  0.00    -0.295 N 
ATOM     17  C   UNL     1      -2.253   6.879   0.466  0.00  0.00    +0.127 C 
ATOM     18  C   UNL     1      -3.136   5.806   1.113  0.00  0.00    +0.125 C 
ATOM     19  N   UNL     1      -2.285   4.817   1.787  0.00  0.00    -0.314 N 
ATOM     20  C   UNL     1      -1.519   5.429   2.881  0.00  0.00    +0.125 C 
ATOM     21  C   UNL     1      -0.570   6.486   2.306  0.00  0.00    +0.127 C 
BRANCH  19  22
ATOM     22  C   UNL     1      -3.038   3.742   2.247  0.00  0.00    +0.099 A 
ATOM     23  C   UNL     1      -2.409   2.696   2.915  0.00  0.00    +0.042 A 
ATOM     24  C   UNL     1      -3.171   1.633   3.367  0.00  0.00    +0.005 A 
ATOM     25  C   UNL     1      -4.540   1.653   3.135  0.00  0.00    +0.018 A 
ATOM     26  C   UNL     1      -5.096   2.721   2.460  0.00  0.00    +0.084 A 
ATOM     27  N   UNL     1      -4.380   3.784   2.007  0.00  0.00    -0.350 N 
ATOM     28  H   UNL     1      -4.822   4.570   1.515  0.00  0.00    +0.166 HD
ENDBRANCH  19  22
ENDBRANCH   7  14
BRANCH   1  29
ATOM     29  C   UNL     1       0.933  10.046   7.942  0.00  0.00    +0.101 C 
BRANCH  29  30
ATOM     30  S   UNL     1       2.451   9.229   8.507  0.00  0.00    -0.154 S 
BRANCH  30  31
ATOM     31  C   UNL     1       1.855   7.842   9.512  0.00  0.00    +0.104 C 
BRANCH  31  37
ATOM     32  C   UNL     1       5.267   7.078  13.092  0.00  0.00    +0.044 C 
ATOM     33  C   UNL     1       4.664   6.704  11.763  0.00  0.00    -0.050 A 
ATOM     34  C   UNL     1       5.189   5.651  11.038  0.00  0.00    +0.003 A 
ATOM     35  C   UNL     1       4.636   5.307   9.819  0.00  0.00    +0.004 A 
ATOM     36  C   UNL     1       3.554   6.013   9.327  0.00  0.00    -0.046 A 
ATOM     37  C   UNL     1       3.031   7.069  10.050  0.00  0.00    -0.034 A 
ATOM     38  C   UNL     1       3.585   7.413  11.269  0.00  0.00    +0.008 A 
ATOM     39  C   UNL     1       2.946   5.634   8.001  0.00  0.00    +0.044 C 
ENDBRANCH  31  37
ENDBRANCH  30  31
ENDBRANCH  29  30
ENDBRANCH   1  29
TORSDOF 6
