REMARK  Name = ZINC63513954
REMARK  8 active torsions:
REMARK  status: ('A' for Active; 'I' for Inactive)
REMARK    1  A    between atoms: C_1  and  C_2
REMARK    2  A    between atoms: C_4  and  C_14
REMARK    3  A    between atoms: C_7  and  O_12
REMARK    4  A    between atoms: O_12  and  C_13
REMARK    5  A    between atoms: C_14  and  C_15
REMARK    6  A    between atoms: C_15  and  N_16
REMARK    7  A    between atoms: N_16  and  C_17
REMARK    8  A    between atoms: C_17  and  C_18
REMARK                            x       y       z     vdW  Elec       q    Type
REMARK                         _______ _______ _______ _____ _____    ______ ____
ROOT
ATOM      1  C   UNL     1       0.352  -0.269  -2.664  0.00  0.00    +0.014 C 
ENDROOT
BRANCH   1   4
ATOM      2  C   UNL     1      -0.019   1.526   0.010  0.00  0.00    +0.035 C 
ATOM      3  C   UNL     1       0.002  -0.004   0.002  0.00  0.00    +0.103 C 
ATOM      4  C   UNL     1       0.729  -0.509  -1.224  0.00  0.00    -0.040 C 
ATOM      5  C   UNL     1       1.785  -1.220  -0.768  0.00  0.00    +0.003 A 
ATOM      6  C   UNL     1       2.858  -1.954  -1.447  0.00  0.00    +0.055 A 
ATOM      7  C   UNL     1       3.803  -2.586  -0.711  0.00  0.00    +0.121 A 
ATOM      8  C   UNL     1       3.796  -2.567   0.695  0.00  0.00    +0.047 A 
ATOM      9  C   UNL     1       2.851  -1.919   1.409  0.00  0.00    +0.029 A 
ATOM     10  C   UNL     1       1.779  -1.200   0.713  0.00  0.00    +0.043 A 
ATOM     11  N   UNL     1       0.758  -0.506   1.155  0.00  0.00    -0.378 N 
ATOM     12  H   UNL     1       0.540  -0.349   2.087  0.00  0.00    +0.160 HD
BRANCH   7  13
ATOM     13  O   UNL     1       4.792  -3.263  -1.353  0.00  0.00    -0.495 OA
ATOM     14  C   UNL     1       5.767  -3.915  -0.537  0.00  0.00    +0.277 C 
ENDBRANCH   7  13
ENDBRANCH   1   4
BRANCH   1  15
ATOM     15  C   UNL     1       1.363  -0.963  -3.578  0.00  0.00    -0.078 C 
BRANCH  15  16
ATOM     16  N   UNL     1       0.996  -0.729  -4.981  0.00  0.00    +0.383 N 
ATOM     17  H   UNL     1       0.075  -1.102  -5.154  0.00  0.00    -0.085 HD
ATOM     18  H   UNL     1       0.998   0.263  -5.169  0.00  0.00    -0.085 HD
BRANCH  16  19
ATOM     19  C   UNL     1       1.967  -1.395  -5.859  0.00  0.00    -0.019 C 
BRANCH  19  20
ATOM     20  C   UNL     1       1.590  -1.155  -7.299  0.00  0.00    +0.063 A 
ATOM     21  N   UNL     1       1.971  -0.180  -8.071  0.00  0.00    -0.246 NA
ATOM     22  C   UNL     1       1.562  -0.075  -9.352  0.00  0.00    +0.078 A 
ATOM     23  C   UNL     1       1.868   0.901 -10.323  0.00  0.00    +0.029 A 
ATOM     24  C   UNL     1       1.340   0.820 -11.575  0.00  0.00    +0.002 A 
ATOM     25  C   UNL     1       0.490  -0.214 -11.941  0.00  0.00    +0.001 A 
ATOM     26  C   UNL     1       0.167  -1.190 -11.017  0.00  0.00    +0.017 A 
ATOM     27  C   UNL     1       0.694  -1.117  -9.750  0.00  0.00    +0.039 A 
ATOM     28  S   UNL     1       0.587  -2.092  -8.272  0.00  0.00    -0.074 S 
ENDBRANCH  19  20
ENDBRANCH  16  19
ENDBRANCH  15  16
ENDBRANCH   1  15
TORSDOF 6
