REMARK  Name = ZINC36514466
REMARK  16 active torsions:
REMARK  status: ('A' for Active; 'I' for Inactive)
REMARK    1  A    between atoms: C_1  and  C_2
REMARK    2  A    between atoms: C_2  and  C_3
REMARK    3  A    between atoms: C_3  and  C_4
REMARK    4  A    between atoms: C_4  and  C_5
REMARK    5  A    between atoms: C_5  and  C_6
REMARK    6  A    between atoms: C_6  and  N_7
REMARK    7  A    between atoms: N_7  and  C_8
REMARK    8  A    between atoms: C_8  and  C_10
REMARK    9  A    between atoms: C_8  and  C_16
REMARK   10  A    between atoms: N_18  and  C_19
REMARK   11  A    between atoms: C_19  and  C_20
REMARK   12  A    between atoms: C_19  and  C_21
REMARK   13  A    between atoms: C_19  and  C_22
REMARK   14  A    between atoms: C_23  and  C_25
REMARK   15  A    between atoms: C_26  and  O_32
REMARK   16  A    between atoms: C_30  and  O_31
REMARK                            x       y       z     vdW  Elec       q    Type
REMARK                         _______ _______ _______ _____ _____    ______ ____
ROOT
ATOM      1  N   UNL     1       1.724  -4.212   3.596  0.00  0.00    -0.286 N 
ATOM      2  C   UNL     1       2.967  -4.201   3.076  0.00  0.00    +0.254 C 
ATOM      3  O   UNL     1       3.894  -4.673   3.707  0.00  0.00    -0.270 OA
ENDROOT
BRANCH   2   4
ATOM      4  C   UNL     1       3.204  -3.616   1.746  0.00  0.00    +0.119 A 
ATOM      5  C   UNL     1       3.526  -2.257   1.619  0.00  0.00    +0.133 A 
ATOM      6  C   UNL     1       3.748  -1.718   0.362  0.00  0.00    +0.046 A 
ATOM      7  C   UNL     1       3.651  -2.514  -0.764  0.00  0.00    +0.007 A 
ATOM      8  C   UNL     1       3.333  -3.854  -0.650  0.00  0.00    +0.046 A 
ATOM      9  C   UNL     1       3.113  -4.416   0.597  0.00  0.00    +0.133 A 
BRANCH   9  10
ATOM     10  O   UNL     1       2.807  -5.733   0.707  0.00  0.00    -0.506 OA
ATOM     11  H   UNL     1       1.859  -5.920   0.671  0.00  0.00    +0.292 HD
ENDBRANCH   9  10
BRANCH   5  12
ATOM     12  O   UNL     1       3.622  -1.474   2.722  0.00  0.00    -0.506 OA
ATOM     13  H   UNL     1       4.508  -1.445   3.108  0.00  0.00    +0.292 HD
ENDBRANCH   5  12
ENDBRANCH   2   4
BRANCH   1  14
ATOM     14  C   UNL     1       0.607  -3.642   2.837  0.00  0.00    +0.109 C 
BRANCH  14  15
ATOM     15  C   UNL     1       0.461  -2.159   3.181  0.00  0.00    +0.019 C 
BRANCH  15  16
ATOM     16  C   UNL     1      -0.704  -1.564   2.389  0.00  0.00    +0.002 C 
BRANCH  16  17
ATOM     17  C   UNL     1      -0.850  -0.080   2.732  0.00  0.00    -0.000 C 
BRANCH  17  19
ATOM     18  C   UNL     1      -2.162   1.998   2.283  0.00  0.00    +0.004 C 
ATOM     19  C   UNL     1      -2.016   0.515   1.940  0.00  0.00    -0.003 C 
ENDBRANCH  17  19
ENDBRANCH  16  17
ENDBRANCH  15  16
ENDBRANCH  14  15
ENDBRANCH   1  14
BRANCH   1  20
ATOM     20  C   UNL     1       1.488  -4.793   4.920  0.00  0.00    +0.165 C 
BRANCH  20  21
ATOM     21  C   UNL     1       1.898  -6.267   4.910  0.00  0.00    +0.018 C 
ATOM     22  C   UNL     1       1.160  -6.994   3.783  0.00  0.00    +0.006 C 
ATOM     23  C   UNL     1       1.570  -8.468   3.772  0.00  0.00    +0.000 C 
ATOM     24  C   UNL     1       1.207  -9.107   5.114  0.00  0.00    +0.000 C 
ATOM     25  C   UNL     1       1.944  -8.381   6.241  0.00  0.00    +0.000 C 
ATOM     26  C   UNL     1       1.535  -6.907   6.252  0.00  0.00    +0.006 C 
ENDBRANCH  20  21
BRANCH  20  27
ATOM     27  C   UNL     1       2.305  -4.052   5.947  0.00  0.00    +0.234 C 
ATOM     28  O   UNL     1       3.203  -3.318   5.592  0.00  0.00    -0.274 OA
ATOM     29  N   UNL     1       2.038  -4.205   7.259  0.00  0.00    -0.309 N 
ATOM     30  H   UNL     1       1.371  -4.848   7.546  0.00  0.00    +0.149 HD
BRANCH  29  31
ATOM     31  C   UNL     1       2.756  -3.401   8.251  0.00  0.00    +0.026 C 
ATOM     32  C   UNL     1       2.493  -1.916   7.991  0.00  0.00    +0.031 C 
ATOM     33  C   UNL     1       2.268  -3.768   9.654  0.00  0.00    +0.031 C 
ATOM     34  C   UNL     1       4.257  -3.679   8.144  0.00  0.00    +0.031 C 
ENDBRANCH  29  31
ENDBRANCH  20  27
ENDBRANCH   1  20
TORSDOF 12
