REMARK  Name = ZINC19972672
REMARK  6 active torsions:
REMARK  status: ('A' for Active; 'I' for Inactive)
REMARK    1  A    between atoms: C_1  and  N_2
REMARK    2  A    between atoms: C_11  and  C_13
REMARK    3  A    between atoms: C_18  and  O_26
REMARK    4  A    between atoms: C_19  and  O_24
REMARK    5  A    between atoms: O_24  and  C_25
REMARK    6  A    between atoms: O_26  and  C_27
REMARK                            x       y       z     vdW  Elec       q    Type
REMARK                         _______ _______ _______ _____ _____    ______ ____
ROOT
ATOM      1  C   UNL     1      -0.253   1.309  -0.058  0.00  0.00    +0.105 C 
ATOM      2  N   UNL     1      -0.079  -0.149   0.005  0.00  0.00    -0.295 NA
ATOM      3  C   UNL     1       0.445  -0.674  -1.266  0.00  0.00    +0.089 C 
ATOM      4  C   UNL     1       0.259  -2.191  -1.277  0.00  0.00    +0.051 C 
ATOM      5  C   UNL     1       0.805  -2.786  -0.004  0.00  0.00    -0.038 A 
ATOM      6  C   UNL     1       1.058  -4.150   0.032  0.00  0.00    +0.053 A 
ATOM      7  C   UNL     1       1.555  -4.740   1.179  0.00  0.00    +0.167 A 
ATOM      8  C   UNL     1       1.802  -3.958   2.305  0.00  0.00    +0.167 A 
ATOM      9  C   UNL     1       1.550  -2.599   2.264  0.00  0.00    +0.055 A 
ATOM     10  C   UNL     1       1.053  -2.011   1.109  0.00  0.00    -0.020 A 
ATOM     11  C   UNL     1       0.805  -0.525   1.113  0.00  0.00    +0.133 C 
ATOM     12  O   UNL     1       2.282  -4.762   3.298  0.00  0.00    -0.453 OA
ATOM     13  C   UNL     1       1.942  -6.105   2.904  0.00  0.00    +0.466 C 
ATOM     14  O   UNL     1       1.881  -6.034   1.467  0.00  0.00    -0.453 OA
ENDROOT
BRANCH  11  15
ATOM     15  C   UNL     1       0.153  -0.125   2.438  0.00  0.00    +0.229 C 
ATOM     16  C   UNL     1      -1.264  -0.640   2.492  0.00  0.00    +0.012 A 
ATOM     17  C   UNL     1      -1.815  -1.897   2.443  0.00  0.00    +0.012 A 
ATOM     18  C   UNL     1      -3.191  -2.057   2.518  0.00  0.00    +0.050 A 
ATOM     19  C   UNL     1      -4.017  -0.953   2.641  0.00  0.00    +0.162 A 
ATOM     20  C   UNL     1      -3.471   0.327   2.691  0.00  0.00    +0.176 A 
ATOM     21  C   UNL     1      -2.083   0.488   2.616  0.00  0.00    +0.111 A 
ATOM     22  C   UNL     1      -1.210   1.673   2.640  0.00  0.00    +0.344 C 
ATOM     23  O   UNL     1      -1.597   2.821   2.739  0.00  0.00    -0.245 OA
ATOM     24  O   UNL     1       0.077   1.299   2.537  0.00  0.00    -0.451 OA
BRANCH  20  25
ATOM     25  O   UNL     1      -4.279   1.411   2.812  0.00  0.00    -0.491 OA
ATOM     26  C   UNL     1      -4.588   1.846   4.137  0.00  0.00    +0.277 C 
ENDBRANCH  20  25
BRANCH  19  27
ATOM     27  O   UNL     1      -5.365  -1.118   2.713  0.00  0.00    -0.491 OA
ATOM     28  C   UNL     1      -5.858  -2.458   2.656  0.00  0.00    +0.277 C 
ENDBRANCH  19  27
ENDBRANCH  11  15
TORSDOF 3
