REMARK  Name = ZINC39675234
REMARK  11 active torsions:
REMARK  status: ('A' for Active; 'I' for Inactive)
REMARK    1  A    between atoms: C_1  and  C_2
REMARK    2  A    between atoms: C_2  and  C_3
REMARK    3  A    between atoms: C_6  and  C_9
REMARK    4  A    between atoms: C_13  and  C_22
REMARK    5  A    between atoms: N_24  and  C_25
REMARK    6  A    between atoms: C_25  and  C_27
REMARK    7  A    between atoms: C_25  and  C_28
REMARK    8  A    between atoms: C_28  and  C_29
REMARK    9  A    between atoms: C_29  and  C_30
REMARK   10  A    between atoms: C_33  and  O_36
REMARK   11  A    between atoms: O_36  and  C_37
REMARK                            x       y       z     vdW  Elec       q    Type
REMARK                         _______ _______ _______ _____ _____    ______ ____
ROOT
ATOM      1  C   UNL     1       2.695  -1.860  -4.729  0.00  0.00    +0.247 C 
ATOM      2  O   UNL     1       2.051  -2.163  -5.714  0.00  0.00    -0.270 OA
ATOM      3  N   UNL     1       4.037  -1.976  -4.740  0.00  0.00    -0.296 N 
ATOM      4  C   UNL     1       4.975  -1.780  -3.609  0.00  0.00    +0.121 C 
ATOM      5  C   UNL     1       6.036  -2.890  -3.785  0.00  0.00    +0.100 C 
ATOM      6  C   UNL     1       5.990  -3.242  -5.281  0.00  0.00    -0.004 C 
ATOM      7  C   UNL     1       4.910  -2.332  -5.884  0.00  0.00    +0.115 C 
ATOM      8  C   UNL     1       7.341  -2.963  -5.932  0.00  0.00    -0.010 C 
ATOM      9  C   UNL     1       7.288  -3.375  -7.406  0.00  0.00    -0.082 C 
ATOM     10  N   UNL     1       6.961  -4.803  -7.505  0.00  0.00    +0.379 N 
ATOM     11  C   UNL     1       5.620  -5.048  -6.960  0.00  0.00    -0.082 C 
ATOM     12  C   UNL     1       5.603  -4.706  -5.468  0.00  0.00    -0.010 C 
ATOM     13  H   UNL     1       6.987  -5.086  -8.473  0.00  0.00    -0.086 HD
ATOM     14  H   UNL     1       7.638  -5.339  -6.982  0.00  0.00    -0.086 HD
ENDROOT
BRANCH   1  18
ATOM     15  C   UNL     1       0.713  -0.439  -1.251  0.00  0.00    -0.048 A 
ATOM     16  C   UNL     1       0.034  -1.240  -2.152  0.00  0.00    +0.004 A 
ATOM     17  C   UNL     1       0.672  -1.705  -3.283  0.00  0.00    +0.013 A 
ATOM     18  C   UNL     1       2.005  -1.365  -3.519  0.00  0.00    +0.037 A 
ATOM     19  C   UNL     1       2.684  -0.557  -2.606  0.00  0.00    +0.013 A 
ATOM     20  C   UNL     1       2.033  -0.094  -1.481  0.00  0.00    +0.004 A 
BRANCH  15  22
ATOM     21  C   UNL     1      -0.660   1.406  -0.324  0.00  0.00    +0.009 C 
ATOM     22  C   UNL     1       0.010   0.065  -0.017  0.00  0.00    +0.032 C 
ENDBRANCH  15  22
ENDBRANCH   1  18
BRANCH   5  23
ATOM     23  C   UNL     1       7.401  -2.376  -3.406  0.00  0.00    +0.218 C 
ATOM     24  O   UNL     1       7.641  -1.188  -3.470  0.00  0.00    -0.275 OA
ATOM     25  N   UNL     1       8.355  -3.235  -2.997  0.00  0.00    -0.312 N 
ATOM     26  H   UNL     1       8.163  -4.184  -2.946  0.00  0.00    +0.149 HD
BRANCH  25  27
ATOM     27  C   UNL     1       9.682  -2.735  -2.629  0.00  0.00    +0.070 C 
ATOM     28  C   UNL     1       9.669  -2.283  -1.167  0.00  0.00    +0.028 C 
BRANCH  27  29
ATOM     29  C   UNL     1      10.714  -3.850  -2.809  0.00  0.00    +0.026 C 
BRANCH  29  30
ATOM     30  C   UNL     1      10.817  -4.216  -4.291  0.00  0.00    +0.037 C 
BRANCH  30  31
ATOM     31  C   UNL     1      11.834  -5.314  -4.468  0.00  0.00    -0.047 A 
ATOM     32  C   UNL     1      13.162  -4.996  -4.687  0.00  0.00    +0.007 A 
ATOM     33  C   UNL     1      14.096  -6.000  -4.850  0.00  0.00    +0.046 A 
ATOM     34  C   UNL     1      13.701  -7.329  -4.793  0.00  0.00    +0.120 A 
ATOM     35  C   UNL     1      12.369  -7.645  -4.573  0.00  0.00    +0.046 A 
ATOM     36  C   UNL     1      11.439  -6.637  -4.405  0.00  0.00    +0.007 A 
BRANCH  34  37
ATOM     37  O   UNL     1      14.618  -8.319  -4.954  0.00  0.00    -0.495 OA
ATOM     38  C   UNL     1      14.140  -9.664  -4.883  0.00  0.00    +0.277 C 
ENDBRANCH  34  37
ENDBRANCH  30  31
ENDBRANCH  29  30
ENDBRANCH  27  29
ENDBRANCH  25  27
ENDBRANCH   5  23
TORSDOF 8
