REMARK  Name = ZINC45662576
REMARK  9 active torsions:
REMARK  status: ('A' for Active; 'I' for Inactive)
REMARK    1  A    between atoms: C_1  and  C_2
REMARK    2  A    between atoms: C_2  and  C_3
REMARK    3  A    between atoms: C_3  and  C_5
REMARK    4  A    between atoms: C_3  and  N_23
REMARK    5  A    between atoms: C_5  and  C_7
REMARK    6  A    between atoms: C_5  and  N_13
REMARK    7  A    between atoms: C_15  and  C_22
REMARK    8  A    between atoms: C_18  and  C_20
REMARK    9  A    between atoms: C_18  and  C_21
REMARK                            x       y       z     vdW  Elec       q    Type
REMARK                         _______ _______ _______ _____ _____    ______ ____
ROOT
ATOM      1  C   UNL     1      -1.523  -2.050   0.192  0.00  0.00    +0.079 C 
ENDROOT
BRANCH   1   2
ATOM      2  N   UNL     1      -0.955  -2.424   1.494  0.00  0.00    -0.291 NA
ATOM      3  C   UNL     1       0.384  -1.844   1.671  0.00  0.00    +0.116 C 
ATOM      4  C   UNL     1       0.912  -2.208   3.062  0.00  0.00    +0.130 C 
ATOM      5  O   UNL     1       0.914  -3.630   3.208  0.00  0.00    -0.368 OA
ATOM      6  C   UNL     1      -0.374  -4.228   3.043  0.00  0.00    +0.077 C 
ATOM      7  C   UNL     1      -0.915  -3.885   1.652  0.00  0.00    +0.119 C 
ATOM      8  C   UNL     1      -1.329  -3.689   4.110  0.00  0.00    +0.042 C 
ATOM      9  C   UNL     1      -0.255  -5.747   3.184  0.00  0.00    +0.042 C 
ATOM     10  C   UNL     1       2.337  -1.675   3.223  0.00  0.00    +0.039 C 
ENDBRANCH   1   2
BRANCH   1  11
ATOM     11  C   UNL     1      -2.942  -2.548   0.101  0.00  0.00    +0.006 A 
ATOM     12  C   UNL     1      -3.585  -3.106  -0.953  0.00  0.00    +0.014 A 
ATOM     13  C   UNL     1      -4.904  -3.493  -0.806  0.00  0.00    +0.023 A 
ATOM     14  C   UNL     1      -5.516  -3.302   0.389  0.00  0.00    +0.055 A 
ATOM     15  S   UNL     1      -4.211  -2.562   1.357  0.00  0.00    -0.085 S 
ATOM     16 BR   UNL     1      -7.288  -3.717   0.900  0.00  0.00    -0.043 Br
ENDBRANCH   1  11
BRANCH   1  17
ATOM     17  C   UNL     1      -1.506  -0.528   0.046  0.00  0.00    -0.053 C 
BRANCH  17  18
ATOM     18  N   UNL     1      -2.312   0.076   1.116  0.00  0.00    +0.381 N 
ATOM     19  H   UNL     1      -3.262  -0.258   1.050  0.00  0.00    -0.090 HD
ATOM     20  H   UNL     1      -1.927  -0.181   2.013  0.00  0.00    -0.090 HD
ATOM     21  H   UNL     1      -2.301   1.080   1.020  0.00  0.00    -0.090 HD
ENDBRANCH  17  18
BRANCH  17  23
ATOM     22  C   UNL     1      -1.931   1.368  -1.525  0.00  0.00    +0.002 C 
ATOM     23  C   UNL     1      -2.090  -0.139  -1.314  0.00  0.00    -0.018 C 
ENDBRANCH  17  23
ENDBRANCH   1  17
TORSDOF 5
