REMARK  Name = ZINC08582507
REMARK  9 active torsions:
REMARK  status: ('A' for Active; 'I' for Inactive)
REMARK    1  A    between atoms: C_1  and  C_2
REMARK    2  A    between atoms: C_7  and  C_14
REMARK    3  A    between atoms: C_8  and  O_13
REMARK    4  A    between atoms: C_11  and  C_12
REMARK    5  A    between atoms: C_14  and  N_66
REMARK    6  A    between atoms: C_15  and  C_16
REMARK    7  A    between atoms: C_15  and  N_66
REMARK    8  A    between atoms: N_20  and  C_21
REMARK    9  A    between atoms: C_26  and  N_66
REMARK                            x       y       z     vdW  Elec       q    Type
REMARK                         _______ _______ _______ _____ _____    ______ ____
ROOT
ATOM      1  N   UNL     1      -2.068   2.965   1.051  0.00  0.00    +0.389 N 
ATOM      2  H   UNL     1      -1.640   2.396   1.791  0.00  0.00    -0.080 HD
ENDROOT
BRANCH   1   3
ATOM      3  C   UNL     1      -1.507   4.332   1.113  0.00  0.00    -0.068 C 
ATOM      4  C   UNL     1      -1.884   5.122  -0.142  0.00  0.00    -0.015 C 
ATOM      5  C   UNL     1      -1.288   6.529  -0.056  0.00  0.00    -0.002 C 
ATOM      6  C   UNL     1       0.236   6.431   0.047  0.00  0.00    -0.000 C 
ATOM      7  C   UNL     1       0.612   5.641   1.301  0.00  0.00    -0.002 C 
ATOM      8  C   UNL     1       0.016   4.234   1.216  0.00  0.00    -0.015 C 
ENDBRANCH   1   3
BRANCH   1   9
ATOM      9  C   UNL     1      -1.767   2.354  -0.260  0.00  0.00    -0.037 C 
BRANCH   9  16
ATOM     10  C   UNL     1      -3.757  -5.319  -0.313  0.00  0.00    +0.044 C 
ATOM     11  C   UNL     1      -3.571  -3.828  -0.430  0.00  0.00    -0.045 A 
ATOM     12  C   UNL     1      -4.498  -3.076  -1.148  0.00  0.00    +0.004 A 
ATOM     13  C   UNL     1      -4.358  -1.727  -1.272  0.00  0.00    +0.010 A 
ATOM     14  C   UNL     1      -3.264  -1.085  -0.670  0.00  0.00    +0.001 A 
ATOM     15  C   UNL     1      -3.085   0.309  -0.776  0.00  0.00    +0.017 A 
ATOM     16  C   UNL     1      -2.001   0.868  -0.167  0.00  0.00    -0.002 A 
ATOM     17  C   UNL     1      -1.104   0.059   0.540  0.00  0.00    +0.214 A 
ATOM     18  N   UNL     1      -1.276  -1.241   0.637  0.00  0.00    -0.213 NA
ATOM     19  C   UNL     1      -2.320  -1.847   0.060  0.00  0.00    +0.078 A 
ATOM     20  C   UNL     1      -2.499  -3.237   0.166  0.00  0.00    -0.021 A 
ATOM     21  C   UNL     1      -1.509  -4.071   0.938  0.00  0.00    +0.046 C 
BRANCH  17  22
ATOM     22  O   UNL     1      -0.031   0.631   1.141  0.00  0.00    -0.492 OA
ATOM     23  H   UNL     1      -0.169   0.842   2.075  0.00  0.00    +0.294 HD
ENDBRANCH  17  22
ENDBRANCH   9  16
ENDBRANCH   1   9
BRANCH   1  24
ATOM     24  C   UNL     1      -3.530   3.009   1.264  0.00  0.00    +0.001 C 
BRANCH  24  25
ATOM     25  C   UNL     1      -3.800   3.381   2.700  0.00  0.00    +0.135 A 
ATOM     26  N   UNL     1      -4.054   4.580   3.163  0.00  0.00    -0.115 NA
ATOM     27  N   UNL     1      -4.229   4.486   4.436  0.00  0.00    -0.023 NA
ATOM     28  N   UNL     1      -4.094   3.257   4.797  0.00  0.00    -0.044 NA
ATOM     29  N   UNL     1      -3.834   2.544   3.754  0.00  0.00    -0.228 N 
BRANCH  29  30
ATOM     30  C   UNL     1      -3.614   1.096   3.723  0.00  0.00    +0.111 C 
ATOM     31  C   UNL     1      -4.845   0.362   4.293  0.00  0.00    +0.027 C 
ATOM     32  C   UNL     1      -4.245  -0.834   5.075  0.00  0.00    +0.002 C 
ATOM     33  C   UNL     1      -2.972  -0.222   5.711  0.00  0.00    +0.002 C 
ATOM     34  C   UNL     1      -2.423   0.725   4.624  0.00  0.00    +0.027 C 
ENDBRANCH  29  30
ENDBRANCH  24  25
ENDBRANCH   1  24
TORSDOF 7
