REMARK  Name = ZINC00218796
REMARK  7 active torsions:
REMARK  status: ('A' for Active; 'I' for Inactive)
REMARK    1  A    between atoms: C_1  and  C_2
REMARK    2  A    between atoms: C_5  and  C_27
REMARK    3  A    between atoms: C_10  and  C_12
REMARK    4  A    between atoms: C_12  and  O_13
REMARK    5  A    between atoms: O_13  and  C_14
REMARK    6  A    between atoms: C_23  and  C_25
REMARK    7  A    between atoms: C_23  and  C_26
REMARK                            x       y       z     vdW  Elec       q    Type
REMARK                         _______ _______ _______ _____ _____    ______ ____
ROOT
ATOM      1  C   UNL     1       0.002  -0.004   0.002  0.00  0.00    +0.122 A 
ATOM      2  C   UNL     1       1.215  -0.684  -0.014  0.00  0.00    +0.049 A 
ATOM      3  C   UNL     1       2.409   0.007  -0.019  0.00  0.00    +0.050 A 
ATOM      4  C   UNL     1       2.412   1.395  -0.009  0.00  0.00    +0.132 A 
ATOM      5  C   UNL     1       1.188   2.084   0.002  0.00  0.00    +0.063 A 
ATOM      6  C   UNL     1      -0.017   1.379   0.010  0.00  0.00    +0.060 A 
ATOM      7  C   UNL     1       1.198   3.557  -0.000  0.00  0.00    +0.171 C 
ATOM      8  O   UNL     1       0.191   4.201  -0.211  0.00  0.00    -0.292 OA
ATOM      9  C   UNL     1       2.532   4.228   0.274  0.00  0.00    +0.127 C 
ATOM     10  C   UNL     1       3.607   3.418  -0.466  0.00  0.00    +0.112 C 
ATOM     11  O   UNL     1       3.586   2.069  -0.002  0.00  0.00    -0.485 OA
ATOM     12  C   UNL     1       3.321   3.445  -1.969  0.00  0.00    +0.056 C 
ATOM     13  C   UNL     1       4.983   4.031  -0.197  0.00  0.00    +0.056 C 
ENDROOT
BRANCH   1  14
ATOM     14  O   UNL     1      -1.167  -0.699   0.011  0.00  0.00    -0.483 OA
BRANCH  14  15
ATOM     15  C   UNL     1      -1.073  -2.125   0.002  0.00  0.00    +0.324 C 
BRANCH  15  23
ATOM     16  C   UNL     1      -0.434  -6.962   1.072  0.00  0.00    +0.009 C 
ATOM     17  C   UNL     1      -1.569  -5.940   1.153  0.00  0.00    +0.004 C 
ATOM     18  C   UNL     1      -2.915  -6.663   1.067  0.00  0.00    +0.009 C 
ATOM     19  C   UNL     1      -4.052  -5.645   1.181  0.00  0.00    +0.004 C 
ATOM     20  C   UNL     1      -3.961  -4.652   0.018  0.00  0.00    +0.111 C 
ATOM     21  N   UNL     1      -2.618  -4.058   0.008  0.00  0.00    -0.298 N 
ATOM     22  C   UNL     1      -1.451  -4.950  -0.015  0.00  0.00    +0.111 C 
ATOM     23  C   UNL     1      -2.458  -2.719   0.013  0.00  0.00    +0.253 C 
ATOM     24  O   UNL     1      -3.429  -1.993   0.027  0.00  0.00    -0.272 OA
ATOM     25  C   UNL     1      -3.931  -4.891   2.507  0.00  0.00    +0.009 C 
ENDBRANCH  15  23
ENDBRANCH  14  15
ENDBRANCH   1  14
TORSDOF 3
