REMARK  Name = ZINC39498976
REMARK  9 active torsions:
REMARK  status: ('A' for Active; 'I' for Inactive)
REMARK    1  A    between atoms: C_1  and  C_2
REMARK    2  A    between atoms: C_2  and  C_3
REMARK    3  A    between atoms: C_2  and  S_4
REMARK    4  A    between atoms: S_4  and  C_7
REMARK    5  A    between atoms: C_12  and  C_13
REMARK    6  A    between atoms: C_18  and  O_19
REMARK    7  A    between atoms: N_21  and  C_30
REMARK    8  A    between atoms: C_23  and  C_24
REMARK    9  A    between atoms: C_35  and  O_36
REMARK                            x       y       z     vdW  Elec       q    Type
REMARK                         _______ _______ _______ _____ _____    ______ ____
ROOT
ATOM      1  C   UNL     1      -1.041  -2.554   0.314  0.00  0.00    +0.097 A 
ATOM      2  C   UNL     1      -1.783  -3.306   1.196  0.00  0.00    +0.037 A 
ATOM      3  C   UNL     1      -2.072  -4.643   0.905  0.00  0.00    +0.003 A 
ATOM      4  C   UNL     1      -1.604  -5.208  -0.285  0.00  0.00    -0.020 A 
ATOM      5  C   UNL     1      -0.864  -4.456  -1.165  0.00  0.00    +0.016 A 
ATOM      6  C   UNL     1      -0.581  -3.120  -0.875  0.00  0.00    +0.011 A 
ATOM      7  C   UNL     1      -2.073  -6.641  -0.311  0.00  0.00    +0.147 C 
ATOM      8  N   UNL     1      -2.830  -6.856   0.927  0.00  0.00    -0.292 N 
ATOM      9  C   UNL     1      -2.829  -5.669   1.646  0.00  0.00    +0.042 C 
ATOM     10  C   UNL     1      -3.429  -5.482   2.844  0.00  0.00    +0.032 C 
ENDROOT
BRANCH   6  11
ATOM     11  C   UNL     1       0.213  -2.306  -1.825  0.00  0.00    +0.025 A 
ATOM     12  C   UNL     1      -0.419  -1.372  -2.644  0.00  0.00    +0.012 A 
ATOM     13  C   UNL     1       0.324  -0.617  -3.528  0.00  0.00    +0.001 A 
ATOM     14  C   UNL     1       1.696  -0.783  -3.605  0.00  0.00    +0.004 A 
ATOM     15  C   UNL     1       2.333  -1.707  -2.798  0.00  0.00    +0.046 A 
ATOM     16  C   UNL     1       1.600  -2.468  -1.902  0.00  0.00    +0.125 A 
BRANCH  16  17
ATOM     17  O   UNL     1       2.226  -3.372  -1.104  0.00  0.00    -0.506 OA
ATOM     18  H   UNL     1       2.300  -4.254  -1.492  0.00  0.00    +0.292 HD
ENDBRANCH  16  17
ENDBRANCH   6  11
BRANCH  10  19
ATOM     19  C   UNL     1      -3.838  -6.643   3.651  0.00  0.00    -0.023 A 
ATOM     20  C   UNL     1      -2.937  -7.686   3.888  0.00  0.00    +0.008 A 
ATOM     21  C   UNL     1      -3.328  -8.770   4.645  0.00  0.00    +0.001 A 
ATOM     22  C   UNL     1      -4.608  -8.827   5.170  0.00  0.00    +0.000 A 
ATOM     23  C   UNL     1      -5.505  -7.799   4.939  0.00  0.00    +0.001 A 
ATOM     24  C   UNL     1      -5.127  -6.705   4.189  0.00  0.00    +0.008 A 
ENDBRANCH  10  19
BRANCH   8  25
ATOM     25  C   UNL     1      -3.448  -8.051   1.315  0.00  0.00    +0.076 A 
ATOM     26  C   UNL     1      -2.681  -9.117   1.762  0.00  0.00    +0.027 A 
ATOM     27  C   UNL     1      -3.293 -10.296   2.145  0.00  0.00    +0.002 A 
ATOM     28  C   UNL     1      -4.669 -10.416   2.083  0.00  0.00    +0.004 A 
ATOM     29  C   UNL     1      -5.440  -9.358   1.637  0.00  0.00    +0.047 A 
ATOM     30  C   UNL     1      -4.835  -8.171   1.258  0.00  0.00    +0.138 A 
BRANCH  30  31
ATOM     31  O   UNL     1      -5.592  -7.127   0.826  0.00  0.00    -0.505 OA
ATOM     32  H   UNL     1      -5.752  -7.125  -0.128  0.00  0.00    +0.292 HD
ENDBRANCH  30  31
ENDBRANCH   8  25
BRANCH   1  33
ATOM     33  S   UNL     1      -0.679  -0.869   0.683  0.00  0.00    -0.000 S 
ATOM     34  O   UNL     1      -1.324  -0.623   1.925  0.00  0.00    -0.169 OA
ATOM     35  O   UNL     1      -1.057  -0.153  -0.484  0.00  0.00    -0.169 OA
BRANCH  33  37
ATOM     36  C   UNL     1       1.554   0.614   1.228  0.00  0.00    +0.032 C 
ATOM     37  C   UNL     1       1.122  -0.815   0.894  0.00  0.00    +0.130 C 
ATOM     38  C   UNL     1       1.531  -1.752   2.033  0.00  0.00    +0.032 C 
ENDBRANCH  33  37
ENDBRANCH   1  33
TORSDOF 7
