REMARK  Name = ZINC38701242
REMARK  11 active torsions:
REMARK  status: ('A' for Active; 'I' for Inactive)
REMARK    1  A    between atoms: C_1  and  C_2
REMARK    2  A    between atoms: C_2  and  C_3
REMARK    3  A    between atoms: C_3  and  C_4
REMARK    4  A    between atoms: C_4  and  O_5
REMARK    5  A    between atoms: O_5  and  C_6
REMARK    6  A    between atoms: C_10  and  C_12
REMARK    7  A    between atoms: C_17  and  O_26
REMARK    8  A    between atoms: C_21  and  N_25
REMARK    9  A    between atoms: C_22  and  C_23
REMARK   10  A    between atoms: O_26  and  C_27
REMARK   11  A    between atoms: C_27  and  C_29
REMARK                            x       y       z     vdW  Elec       q    Type
REMARK                         _______ _______ _______ _____ _____    ______ ____
ROOT
ATOM      1  C   UNL     1       2.920  -6.330  -5.080  0.00  0.00    +0.098 C 
ATOM      2  C   UNL     1       4.107  -7.145  -4.641  0.00  0.00    +0.008 A 
ATOM      3  C   UNL     1       5.290  -6.505  -4.316  0.00  0.00    +0.012 A 
ATOM      4  C   UNL     1       6.389  -7.237  -3.912  0.00  0.00    +0.047 A 
ATOM      5  C   UNL     1       6.310  -8.620  -3.831  0.00  0.00    +0.135 A 
ATOM      6  C   UNL     1       5.127  -9.264  -4.155  0.00  0.00    +0.093 A 
ATOM      7  C   UNL     1       4.022  -8.526  -4.561  0.00  0.00    +0.138 A 
ATOM      8  O   UNL     1       2.872  -9.172  -4.875  0.00  0.00    -0.441 OA
ATOM      9  C   UNL     1       1.940  -8.555  -5.622  0.00  0.00    +0.199 C 
ATOM     10  C   UNL     1       1.910  -7.212  -5.758  0.00  0.00    +0.098 C 
ENDROOT
BRANCH   1  15
ATOM     11  C   UNL     1       1.625  -3.705  -2.690  0.00  0.00    +0.121 A 
ATOM     12  C   UNL     1       1.127  -4.492  -1.662  0.00  0.00    +0.045 A 
ATOM     13  C   UNL     1       1.211  -5.869  -1.744  0.00  0.00    +0.004 A 
ATOM     14  C   UNL     1       1.791  -6.462  -2.851  0.00  0.00    +0.005 A 
ATOM     15  C   UNL     1       2.288  -5.680  -3.877  0.00  0.00    -0.031 A 
ATOM     16  C   UNL     1       2.201  -4.303  -3.801  0.00  0.00    +0.050 A 
BRANCH  11  17
ATOM     17  O   UNL     1       1.542  -2.351  -2.612  0.00  0.00    -0.492 OA
BRANCH  17  18
ATOM     18  C   UNL     1       0.936  -1.805  -1.439  0.00  0.00    +0.229 C 
BRANCH  18  19
ATOM     19  C   UNL     1       0.933  -0.278  -1.530  0.00  0.00    +0.041 C 
BRANCH  19  21
ATOM     20  C   UNL     1       0.282   1.835  -0.365  0.00  0.00    +0.004 C 
ATOM     21  C   UNL     1       0.284   0.307  -0.274  0.00  0.00    -0.000 C 
ENDBRANCH  19  21
ENDBRANCH  18  19
ENDBRANCH  17  18
ENDBRANCH  11  17
ENDBRANCH   1  15
BRANCH   9  22
ATOM     22  N   UNL     1       0.993  -9.313  -6.264  0.00  0.00    -0.328 N 
ATOM     23  H   UNL     1       1.002 -10.279  -6.175  0.00  0.00    +0.145 HD
ATOM     24  H   UNL     1       0.314  -8.883  -6.807  0.00  0.00    +0.145 HD
ENDBRANCH   9  22
BRANCH  10  25
ATOM     25  C   UNL     1       0.889  -6.616  -6.567  0.00  0.00    +0.101 C 
ATOM     26  N   UNL     1       0.080  -6.144  -7.209  0.00  0.00    -0.191 NA
ENDBRANCH  10  25
BRANCH   5  27
ATOM     27  O   UNL     1       7.391  -9.342  -3.434  0.00  0.00    -0.422 OA
BRANCH  27  28
ATOM     28  C   UNL     1       8.007 -10.115  -4.351  0.00  0.00    +0.351 C 
ATOM     29  O   UNL     1       7.659 -10.072  -5.515  0.00  0.00    -0.244 OA
BRANCH  28  30
ATOM     30  C   UNL     1       9.100 -11.010  -3.943  0.00  0.00    +0.144 A 
ATOM     31  C   UNL     1       9.758 -11.814  -4.865  0.00  0.00    +0.033 A 
ATOM     32  C   UNL     1      10.781 -12.674  -4.391  0.00  0.00    +0.018 A 
ATOM     33  C   UNL     1      11.612 -13.357  -5.292  0.00  0.00    +0.011 A 
ATOM     34  C   UNL     1      12.619 -14.149  -4.820  0.00  0.00    +0.001 A 
ATOM     35  C   UNL     1      12.824 -14.291  -3.454  0.00  0.00    +0.004 A 
ATOM     36  C   UNL     1      12.007 -13.644  -2.550  0.00  0.00    +0.047 A 
ATOM     37  C   UNL     1      10.972 -12.839  -3.006  0.00  0.00    +0.139 A 
ATOM     38  O   UNL     1      10.137 -12.234  -2.128  0.00  0.00    -0.422 OA
ATOM     39  C   UNL     1       9.546 -11.085  -2.539  0.00  0.00    +0.351 A 
ATOM     40  O   UNL     1       9.386 -10.150  -1.778  0.00  0.00    -0.244 OA
ENDBRANCH  28  30
ENDBRANCH  27  28
ENDBRANCH   5  27
TORSDOF 10
