REMARK  Name = ZINC42696825
REMARK  12 active torsions:
REMARK  status: ('A' for Active; 'I' for Inactive)
REMARK    1  A    between atoms: C_1  and  C_2
REMARK    2  A    between atoms: C_2  and  C_3
REMARK    3  A    between atoms: C_2  and  C_4
REMARK    4  A    between atoms: C_7  and  N_10
REMARK    5  A    between atoms: C_18  and  C_24
REMARK    6  A    between atoms: N_26  and  C_27
REMARK    7  A    between atoms: C_29  and  O_37
REMARK    8  A    between atoms: C_30  and  O_35
REMARK    9  A    between atoms: C_31  and  O_33
REMARK   10  A    between atoms: O_33  and  C_34
REMARK   11  A    between atoms: O_35  and  C_36
REMARK   12  A    between atoms: O_37  and  C_38
REMARK                            x       y       z     vdW  Elec       q    Type
REMARK                         _______ _______ _______ _____ _____    ______ ____
ROOT
ATOM      1  N   UNL     1      -5.322  -1.971   0.037  0.00  0.00    -0.268 N 
ATOM      2  C   UNL     1      -5.930  -2.839  -1.020  0.00  0.00    +0.153 C 
ATOM      3  C   UNL     1      -7.025  -3.525  -0.265  0.00  0.00    +0.116 C 
ATOM      4  C   UNL     1      -6.505  -4.555   0.722  0.00  0.00    +0.008 C 
ATOM      5  C   UNL     1      -7.579  -5.075   1.298  0.00  0.00    +0.004 C 
ATOM      6  C   UNL     1      -8.763  -4.306   0.698  0.00  0.00    +0.155 C 
ATOM      7  O   UNL     1      -8.268  -4.039  -0.680  0.00  0.00    -0.359 OA
ATOM      8  C   UNL     1      -8.633  -2.898   1.397  0.00  0.00    +0.123 C 
ATOM      9  C   UNL     1      -7.535  -2.264   0.543  0.00  0.00    +0.127 C 
ATOM     10  C   UNL     1      -6.248  -1.724   1.021  0.00  0.00    +0.227 C 
ATOM     11  O   UNL     1      -6.047  -1.167   2.079  0.00  0.00    -0.275 OA
ENDROOT
BRANCH   1  15
ATOM     12  C   UNL     1      -1.409  -0.540   0.011  0.00  0.00    -0.045 A 
ATOM     13  C   UNL     1      -2.253  -0.222   1.059  0.00  0.00    +0.006 A 
ATOM     14  C   UNL     1      -3.551  -0.695   1.071  0.00  0.00    +0.024 A 
ATOM     15  C   UNL     1      -4.008  -1.490   0.028  0.00  0.00    +0.036 A 
ATOM     16  C   UNL     1      -3.158  -1.807  -1.024  0.00  0.00    +0.024 A 
ATOM     17  C   UNL     1      -1.863  -1.327  -1.032  0.00  0.00    +0.006 A 
BRANCH  12  19
ATOM     18  C   UNL     1      -0.011   1.508   0.019  0.00  0.00    +0.012 C 
ATOM     19  C   UNL     1       0.006  -0.022   0.001  0.00  0.00    +0.013 C 
ATOM     20  C   UNL     1       0.747  -0.539   1.236  0.00  0.00    +0.012 C 
ENDBRANCH  12  19
ENDBRANCH   1  15
BRANCH   8  21
ATOM     21  C   UNL     1      -9.921  -2.121   1.292  0.00  0.00    +0.224 C 
ATOM     22  O   UNL     1      -9.943  -1.060   0.706  0.00  0.00    -0.275 OA
ATOM     23  N   UNL     1     -11.048  -2.607   1.850  0.00  0.00    -0.285 N 
ATOM     24  H   UNL     1     -11.046  -3.486   2.260  0.00  0.00    +0.155 HD
BRANCH  23  25
ATOM     25  C   UNL     1     -12.221  -1.842   1.837  0.00  0.00    +0.041 A 
ATOM     26  C   UNL     1     -12.509  -1.030   0.748  0.00  0.00    +0.073 A 
ATOM     27  C   UNL     1     -13.669  -0.273   0.735  0.00  0.00    +0.167 A 
ATOM     28  C   UNL     1     -14.546  -0.326   1.812  0.00  0.00    +0.204 A 
ATOM     29  C   UNL     1     -14.257  -1.139   2.903  0.00  0.00    +0.167 A 
ATOM     30  C   UNL     1     -13.098  -1.900   2.912  0.00  0.00    +0.073 A 
BRANCH  29  31
ATOM     31  O   UNL     1     -15.113  -1.191   3.958  0.00  0.00    -0.491 OA
ATOM     32  C   UNL     1     -14.753  -2.047   5.044  0.00  0.00    +0.277 C 
ENDBRANCH  29  31
BRANCH  28  33
ATOM     33  O   UNL     1     -15.686   0.418   1.800  0.00  0.00    -0.488 OA
ATOM     34  C   UNL     1     -16.852  -0.191   1.241  0.00  0.00    +0.277 C 
ENDBRANCH  28  33
BRANCH  27  35
ATOM     35  O   UNL     1     -13.951   0.522  -0.332  0.00  0.00    -0.491 OA
ATOM     36  C   UNL     1     -13.005   0.527  -1.404  0.00  0.00    +0.277 C 
ENDBRANCH  27  35
ENDBRANCH  23  25
ENDBRANCH   8  21
TORSDOF 7
