REMARK  Name = ZINC35883632
REMARK  8 active torsions:
REMARK  status: ('A' for Active; 'I' for Inactive)
REMARK    1  A    between atoms: C_1  and  O_2
REMARK    2  A    between atoms: O_2  and  C_3
REMARK    3  A    between atoms: C_3  and  C_4
REMARK    4  A    between atoms: C_4  and  C_5
REMARK    5  A    between atoms: C_5  and  N_6
REMARK    6  A    between atoms: C_26  and  C_28
REMARK    7  A    between atoms: C_28  and  C_30
REMARK    8  A    between atoms: C_28  and  O_37
REMARK                            x       y       z     vdW  Elec       q    Type
REMARK                         _______ _______ _______ _____ _____    ______ ____
ROOT
ATOM      1  N   UNL     1       1.272  -4.165  -2.169  0.00  0.00    -0.241 N 
ATOM      2  C   UNL     1       2.240  -4.908  -1.556  0.00  0.00    +0.227 C 
ATOM      3  O   UNL     1       3.351  -4.538  -1.242  0.00  0.00    -0.275 OA
ATOM      4  C   UNL     1       1.656  -6.270  -1.350  0.00  0.00    +0.110 C 
ATOM      5  C   UNL     1       0.756  -6.286  -2.643  0.00  0.00    +0.123 C 
ATOM      6  C   UNL     1       0.257  -4.933  -2.683  0.00  0.00    +0.228 C 
ATOM      7  O   UNL     1      -0.822  -4.555  -3.086  0.00  0.00    -0.275 OA
ATOM      8  C   UNL     1       0.305  -7.674  -2.736  0.00  0.00    +0.136 C 
ATOM      9  C   UNL     1       0.025  -8.147  -4.140  0.00  0.00    +0.003 A 
ATOM     10  C   UNL     1       0.773  -8.159  -5.296  0.00  0.00    +0.008 A 
ATOM     11  C   UNL     1       0.234  -8.671  -6.463  0.00  0.00    +0.000 A 
ATOM     12  C   UNL     1      -1.056  -9.171  -6.463  0.00  0.00    +0.002 A 
ATOM     13  C   UNL     1      -1.808  -9.161  -5.307  0.00  0.00    +0.023 A 
ATOM     14  C   UNL     1      -1.272  -8.647  -4.128  0.00  0.00    +0.039 A 
ATOM     15  N   UNL     1      -1.823  -8.530  -2.851  0.00  0.00    -0.283 N 
ATOM     16  C   UNL     1      -0.966  -7.971  -1.977  0.00  0.00    +0.243 C 
ATOM     17  O   UNL     1      -1.175  -7.748  -0.803  0.00  0.00    -0.273 OA
ATOM     18  N   UNL     1       1.421  -8.487  -2.159  0.00  0.00    -0.293 NA
ATOM     19  C   UNL     1       2.473  -7.524  -1.642  0.00  0.00    +0.101 C 
ATOM     20  H   UNL     1      -2.720  -8.817  -2.620  0.00  0.00    +0.155 HD
ATOM     21  H   UNL     1       1.087  -9.082  -1.416  0.00  0.00    +0.124 HD
ENDROOT
BRANCH   1  22
ATOM     22  C   UNL     1       1.309  -2.703  -2.261  0.00  0.00    +0.118 C 
BRANCH  22  23
ATOM     23  C   UNL     1       0.613  -2.097  -1.041  0.00  0.00    +0.047 C 
BRANCH  23  24
ATOM     24  C   UNL     1       0.652  -0.570  -1.138  0.00  0.00    +0.161 C 
BRANCH  24  26
ATOM     25  C   UNL     1      -0.017   1.425   0.010  0.00  0.00    +0.193 C 
ATOM     26  O   UNL     1       0.002  -0.004   0.002  0.00  0.00    -0.383 OA
ENDBRANCH  24  26
ENDBRANCH  23  24
ENDBRANCH  22  23
ENDBRANCH   1  22
BRANCH  19  27
ATOM     27  C   UNL     1       3.121  -8.056  -0.362  0.00  0.00    +0.162 C 
BRANCH  27  28
ATOM     28  C   UNL     1       3.921  -9.293  -0.681  0.00  0.00    -0.018 A 
ATOM     29  C   UNL     1       5.223  -9.178  -1.128  0.00  0.00    +0.007 A 
ATOM     30  C   UNL     1       5.957 -10.312  -1.420  0.00  0.00    +0.020 A 
ATOM     31  C   UNL     1       5.387 -11.563  -1.265  0.00  0.00    +0.041 A 
ATOM     32  C   UNL     1       4.083 -11.678  -0.817  0.00  0.00    +0.020 A 
ATOM     33  C   UNL     1       3.353 -10.543  -0.519  0.00  0.00    +0.007 A 
ATOM     34 CL   UNL     1       6.308 -12.989  -1.632  0.00  0.00    -0.084 Cl
ENDBRANCH  27  28
BRANCH  27  35
ATOM     35  O   UNL     1       3.986  -7.058   0.184  0.00  0.00    -0.386 OA
ATOM     36  H   UNL     1       4.702  -6.791  -0.408  0.00  0.00    +0.210 HD
ENDBRANCH  27  35
ENDBRANCH  19  27
TORSDOF 7
