REMARK  Name = ZINC66608785
REMARK  8 active torsions:
REMARK  status: ('A' for Active; 'I' for Inactive)
REMARK    1  A    between atoms: C_1  and  C_2
REMARK    2  A    between atoms: C_2  and  C_3
REMARK    3  A    between atoms: C_3  and  C_4
REMARK    4  A    between atoms: C_4  and  C_5
REMARK    5  A    between atoms: C_5  and  C_7
REMARK    6  A    between atoms: C_5  and  N_16
REMARK    7  A    between atoms: C_12  and  C_15
REMARK    8  A    between atoms: N_16  and  C_17
REMARK                            x       y       z     vdW  Elec       q    Type
REMARK                         _______ _______ _______ _____ _____    ______ ____
ROOT
ATOM      1  C   UNL     1      -2.848  -2.593   0.015  0.00  0.00    +0.157 C 
ENDROOT
BRANCH   1   2
ATOM      2  C   UNL     1      -2.831  -4.094  -0.117  0.00  0.00    +0.239 C 
ATOM      3  O   UNL     1      -3.312  -4.785   0.756  0.00  0.00    -0.273 OA
ATOM      4  N   UNL     1      -2.280  -4.669  -1.204  0.00  0.00    -0.266 N 
ATOM      5  C   UNL     1      -2.264  -6.058  -1.327  0.00  0.00    +0.168 A 
ATOM      6  C   UNL     1      -2.791  -6.981  -0.396  0.00  0.00    +0.091 A 
ATOM      7  C   UNL     1      -2.581  -8.221  -0.873  0.00  0.00    +0.136 A 
ATOM      8  O   UNL     1      -1.950  -8.114  -2.053  0.00  0.00    -0.358 OA
ATOM      9  N   UNL     1      -1.763  -6.738  -2.327  0.00  0.00    -0.063 NA
ATOM     10  C   UNL     1      -2.984  -9.507  -0.199  0.00  0.00    +0.089 C 
ATOM     11  H   UNL     1      -1.895  -4.116  -1.902  0.00  0.00    +0.156 HD
ENDBRANCH   1   2
BRANCH   1  12
ATOM     12  N   UNL     1      -3.496  -2.221   1.275  0.00  0.00    -0.333 N 
ATOM     13  H   UNL     1      -3.506  -2.845   2.018  0.00  0.00    +0.147 HD
BRANCH  12  14
ATOM     14  C   UNL     1      -4.101  -0.966   1.407  0.00  0.00    +0.030 A 
ATOM     15  C   UNL     1      -4.091  -0.075   0.342  0.00  0.00    +0.026 A 
ATOM     16  C   UNL     1      -4.687   1.166   0.468  0.00  0.00    +0.049 A 
ATOM     17  C   UNL     1      -5.296   1.523   1.658  0.00  0.00    +0.142 A 
ATOM     18  C   UNL     1      -5.307   0.631   2.730  0.00  0.00    +0.077 A 
ATOM     19  C   UNL     1      -4.715  -0.614   2.602  0.00  0.00    +0.050 A 
ATOM     20  N   UNL     1      -5.926   1.009   3.930  0.00  0.00    -0.280 N 
ATOM     21  C   UNL     1      -6.759   2.072   3.930  0.00  0.00    +0.255 C 
ATOM     22  O   UNL     1      -7.282   2.436   4.963  0.00  0.00    -0.272 OA
ATOM     23  C   UNL     1      -7.037   2.805   2.643  0.00  0.00    +0.325 C 
ATOM     24  O   UNL     1      -5.887   2.741   1.795  0.00  0.00    -0.481 OA
ATOM     25  H   UNL     1      -5.758   0.515   4.747  0.00  0.00    +0.155 HD
ENDBRANCH  12  14
ENDBRANCH   1  12
BRANCH   1  26
ATOM     26  C   UNL     1      -1.413  -2.063   0.004  0.00  0.00    +0.032 C 
BRANCH  26  27
ATOM     27  C   UNL     1      -1.433  -0.534   0.013  0.00  0.00    +0.002 C 
BRANCH  27  29
ATOM     28  C   UNL     1      -0.019   1.526   0.010  0.00  0.00    +0.004 C 
ATOM     29  C   UNL     1       0.002  -0.004   0.002  0.00  0.00    -0.003 C 
ENDBRANCH  27  29
ENDBRANCH  26  27
ENDBRANCH   1  26
TORSDOF 6
