REMARK  Name = ZINC03146420
REMARK  8 active torsions:
REMARK  status: ('A' for Active; 'I' for Inactive)
REMARK    1  A    between atoms: C_4  and  S_7
REMARK    2  A    between atoms: S_7  and  N_10
REMARK    3  A    between atoms: N_10  and  C_11
REMARK    4  A    between atoms: C_11  and  N_12
REMARK    5  A    between atoms: N_19  and  C_22
REMARK    6  A    between atoms: C_22  and  N_23
REMARK    7  A    between atoms: N_23  and  S_24
REMARK    8  A    between atoms: S_24  and  C_27
REMARK                            x       y       z     vdW  Elec       q    Type
REMARK                         _______ _______ _______ _____ _____    ______ ____
ROOT
ATOM      1  N   UNL     1      -1.132   2.468   0.020  0.00  0.00    -0.305 N 
ATOM      2  C   UNL     1      -0.748   3.806   0.030  0.00  0.00    +0.069 A 
ATOM      3  C   UNL     1      -1.455   4.999   0.042  0.00  0.00    +0.028 A 
ATOM      4  C   UNL     1      -0.774   6.201   0.042  0.00  0.00    +0.002 A 
ATOM      5  C   UNL     1       0.610   6.220   0.029  0.00  0.00    +0.002 A 
ATOM      6  C   UNL     1       1.323   5.037   0.016  0.00  0.00    +0.028 A 
ATOM      7  C   UNL     1       0.648   3.825   0.016  0.00  0.00    +0.069 A 
ATOM      8  N   UNL     1       1.069   2.498   0.005  0.00  0.00    -0.305 N 
ATOM      9  C   UNL     1      -0.021   1.708   0.011  0.00  0.00    +0.164 A 
ATOM     10  S   UNL     1       0.002  -0.004   0.002  0.00  0.00    -0.013 S 
ENDROOT
BRANCH   1  11
ATOM     11  C   UNL     1      -2.511   1.972   0.023  0.00  0.00    +0.231 C 
BRANCH  11  12
ATOM     12  N   UNL     1      -2.965   1.800   1.406  0.00  0.00    -0.170 NA
ATOM     13  H   UNL     1      -2.320   1.796   2.131  0.00  0.00    +0.150 HD
BRANCH  12  14
ATOM     14  S   UNL     1      -4.577   1.611   1.730  0.00  0.00    +0.060 S 
ATOM     15  O   UNL     1      -4.692   1.443   3.136  0.00  0.00    -0.153 OA
ATOM     16  O   UNL     1      -5.256   2.645   1.029  0.00  0.00    -0.153 OA
BRANCH  14  20
ATOM     17  C   UNL     1      -5.875  -2.296  -0.151  0.00  0.00    +0.000 A 
ATOM     18  C   UNL     1      -5.405  -2.277   1.149  0.00  0.00    +0.002 A 
ATOM     19  C   UNL     1      -5.009  -1.084   1.724  0.00  0.00    +0.028 A 
ATOM     20  C   UNL     1      -5.082   0.090   0.998  0.00  0.00    +0.105 A 
ATOM     21  C   UNL     1      -5.557   0.072  -0.300  0.00  0.00    +0.028 A 
ATOM     22  C   UNL     1      -5.948  -1.122  -0.876  0.00  0.00    +0.002 A 
ENDBRANCH  14  20
ENDBRANCH  12  14
ENDBRANCH  11  12
ENDBRANCH   1  11
BRANCH   8  23
ATOM     23  C   UNL     1       2.460   2.040  -0.011  0.00  0.00    +0.231 C 
BRANCH  23  24
ATOM     24  N   UNL     1       2.910   1.894  -1.397  0.00  0.00    -0.170 NA
ATOM     25  H   UNL     1       2.262   1.880  -2.119  0.00  0.00    +0.150 HD
BRANCH  24  26
ATOM     26  S   UNL     1       4.526   1.753  -1.733  0.00  0.00    +0.060 S 
ATOM     27  O   UNL     1       4.636   1.602  -3.142  0.00  0.00    -0.153 OA
ATOM     28  O   UNL     1       5.180   2.797  -1.025  0.00  0.00    -0.153 OA
BRANCH  26  29
ATOM     29  C   UNL     1       5.076   0.239  -1.020  0.00  0.00    +0.105 A 
ATOM     30  C   UNL     1       5.559   0.220   0.275  0.00  0.00    +0.028 A 
ATOM     31  C   UNL     1       5.985  -0.969   0.837  0.00  0.00    +0.002 A 
ATOM     32  C   UNL     1       5.939  -2.137   0.099  0.00  0.00    +0.000 A 
ATOM     33  C   UNL     1       5.462  -2.117  -1.198  0.00  0.00    +0.002 A 
ATOM     34  C   UNL     1       5.030  -0.929  -1.758  0.00  0.00    +0.028 A 
ENDBRANCH  26  29
ENDBRANCH  24  26
ENDBRANCH  23  24
ENDBRANCH   8  23
TORSDOF 8
