REMARK  Name = ZINC03300943
REMARK  3 active torsions:
REMARK  status: ('A' for Active; 'I' for Inactive)
REMARK    1  A    between atoms: C_1  and  C_2
REMARK    2  A    between atoms: C_6  and  N_9
REMARK    3  A    between atoms: C_10  and  C_11
REMARK                            x       y       z     vdW  Elec       q    Type
REMARK                         _______ _______ _______ _____ _____    ______ ____
ROOT
ATOM      1  N   UNL     1       4.553  -2.999   2.780  0.00  0.00    -0.252 NA
ATOM      2  C   UNL     1       3.357  -2.913   2.268  0.00  0.00    +0.119 C 
ENDROOT
BRANCH   1   8
ATOM      3  C   UNL     1       6.779  -7.325   2.217  0.00  0.00    +0.045 C 
ATOM      4  C   UNL     1       6.071  -6.309   3.076  0.00  0.00    -0.030 A 
ATOM      5  C   UNL     1       5.853  -6.571   4.417  0.00  0.00    +0.006 A 
ATOM      6  C   UNL     1       5.204  -5.645   5.214  0.00  0.00    +0.022 A 
ATOM      7  C   UNL     1       4.772  -4.449   4.676  0.00  0.00    +0.068 A 
ATOM      8  C   UNL     1       4.982  -4.180   3.321  0.00  0.00    +0.101 A 
ATOM      9  C   UNL     1       5.640  -5.120   2.523  0.00  0.00    +0.071 A 
ATOM     10 CL   UNL     1       5.913  -4.794   0.840  0.00  0.00    -0.081 Cl
ATOM     11 CL   UNL     1       3.963  -3.285   5.679  0.00  0.00    -0.081 Cl
ENDBRANCH   1   8
BRANCH   2  12
ATOM     12  C   UNL     1       2.895  -1.644   1.686  0.00  0.00    -0.003 A 
ATOM     13  C   UNL     1       3.737  -0.527   1.680  0.00  0.00    +0.013 A 
ATOM     14  C   UNL     1       3.302   0.661   1.134  0.00  0.00    +0.050 A 
ATOM     15  C   UNL     1       2.029   0.755   0.588  0.00  0.00    +0.166 A 
ATOM     16  C   UNL     1       1.183  -0.355   0.591  0.00  0.00    +0.167 A 
ATOM     17  C   UNL     1       1.612  -1.549   1.136  0.00  0.00    +0.059 A 
ATOM     18  O   UNL     1       0.002  -0.004   0.002  0.00  0.00    -0.453 OA
ATOM     19  C   UNL     1      -0.017   1.435   0.010  0.00  0.00    +0.466 C 
ATOM     20  O   UNL     1       1.376   1.797  -0.001  0.00  0.00    -0.453 OA
ENDBRANCH   2  12
TORSDOF 2
