REMARK  Name = ZINC04324505
REMARK  8 active torsions:
REMARK  status: ('A' for Active; 'I' for Inactive)
REMARK    1  A    between atoms: C_6  and  O_7
REMARK    2  A    between atoms: O_7  and  C_8
REMARK    3  A    between atoms: C_8  and  C_9
REMARK    4  A    between atoms: C_9  and  C_11
REMARK    5  A    between atoms: C_9  and  O_22
REMARK    6  A    between atoms: C_11  and  N_40
REMARK    7  A    between atoms: C_12  and  C_13
REMARK    8  A    between atoms: C_12  and  N_40
REMARK                            x       y       z     vdW  Elec       q    Type
REMARK                         _______ _______ _______ _____ _____    ______ ____
ROOT
ATOM      1  C   UNL     1       1.131   5.547   1.444  0.00  0.00    -0.047 C 
ENDROOT
BRANCH   1   2
ATOM      2  N   UNL     1       1.153   4.072   1.406  0.00  0.00    +0.383 N 
ATOM      3  H   UNL     1       0.325   3.708   1.891  0.00  0.00    -0.085 HD
ATOM      4  H   UNL     1       2.001   3.734   1.876  0.00  0.00    -0.085 HD
BRANCH   2   5
ATOM      5  C   UNL     1       1.147   3.596   0.010  0.00  0.00    -0.047 C 
BRANCH   5   6
ATOM      6  C   UNL     1       1.171   2.089   0.002  0.00  0.00    -0.061 A 
ATOM      7  C   UNL     1       2.379   1.418  -0.011  0.00  0.00    +0.005 A 
ATOM      8  C   UNL     1       2.405   0.036  -0.020  0.00  0.00    +0.050 A 
ATOM      9  C   UNL     1       1.220  -0.680  -0.013  0.00  0.00    +0.166 A 
ATOM     10  C   UNL     1       0.002  -0.004   0.002  0.00  0.00    +0.166 A 
ATOM     11  C   UNL     1      -0.017   1.381   0.010  0.00  0.00    +0.051 A 
ATOM     12  O   UNL     1      -1.007  -0.923   0.006  0.00  0.00    -0.453 OA
ATOM     13  C   UNL     1      -0.404  -2.159  -0.418  0.00  0.00    +0.466 C 
ATOM     14  O   UNL     1       0.973  -2.023  -0.018  0.00  0.00    -0.453 OA
ENDBRANCH   5   6
ENDBRANCH   2   5
ENDBRANCH   1   2
BRANCH   1  15
ATOM     15  C   UNL     1       1.137   6.011   2.902  0.00  0.00    +0.135 C 
BRANCH  15  16
ATOM     16  O   UNL     1      -0.016   5.495   3.571  0.00  0.00    -0.390 OA
ATOM     17  H   UNL     1      -0.855   5.780   3.185  0.00  0.00    +0.210 HD
ENDBRANCH  15  16
BRANCH  15  18
ATOM     18  C   UNL     1       1.114   7.540   2.951  0.00  0.00    +0.258 C 
BRANCH  18  19
ATOM     19  O   UNL     1       1.237   7.975   4.307  0.00  0.00    -0.489 OA
BRANCH  19  25
ATOM     20  C   UNL     1       1.121  10.195   3.459  0.00  0.00    +0.047 A 
ATOM     21  C   UNL     1       1.112  11.558   3.686  0.00  0.00    +0.019 A 
ATOM     22  C   UNL     1       1.228  12.046   4.975  0.00  0.00    +0.018 A 
ATOM     23  C   UNL     1       1.347  11.172   6.040  0.00  0.00    +0.019 A 
ATOM     24  C   UNL     1       1.350   9.808   5.819  0.00  0.00    +0.047 A 
ATOM     25  C   UNL     1       1.234   9.316   4.527  0.00  0.00    +0.121 A 
ATOM     26 BR   UNL     1       1.222  13.912   5.281  0.00  0.00    -0.050 Br
ENDBRANCH  19  25
ENDBRANCH  18  19
ENDBRANCH  15  18
ENDBRANCH   1  15
TORSDOF 8
