REMARK  Name = ZINC23471724
REMARK  11 active torsions:
REMARK  status: ('A' for Active; 'I' for Inactive)
REMARK    1  A    between atoms: C_4  and  C_7
REMARK    2  A    between atoms: C_7  and  C_8
REMARK    3  A    between atoms: C_7  and  N_14
REMARK    4  A    between atoms: N_17  and  C_20
REMARK    5  A    between atoms: C_20  and  C_21
REMARK    6  A    between atoms: C_21  and  C_23
REMARK    7  A    between atoms: C_21  and  O_37
REMARK    8  A    between atoms: C_23  and  O_24
REMARK    9  A    between atoms: O_24  and  C_25
REMARK   10  A    between atoms: C_25  and  C_26
REMARK   11  A    between atoms: C_26  and  C_27
REMARK                            x       y       z     vdW  Elec       q    Type
REMARK                         _______ _______ _______ _____ _____    ______ ____
ROOT
ATOM      1  N   UNL     1       5.984  -2.002  -1.144  0.00  0.00    +0.389 N 
ATOM      2  C   UNL     1       6.178  -1.610  -2.547  0.00  0.00    -0.062 C 
ATOM      3  C   UNL     1       5.979  -2.829  -3.450  0.00  0.00    +0.066 C 
ATOM      4  N   UNL     1       4.624  -3.364  -3.256  0.00  0.00    -0.303 NA
ATOM      5  C   UNL     1       4.406  -3.737  -1.851  0.00  0.00    +0.066 C 
ATOM      6  C   UNL     1       4.618  -2.511  -0.961  0.00  0.00    -0.062 C 
ATOM      7  H   UNL     1       6.646  -2.724  -0.903  0.00  0.00    -0.080 HD
ENDROOT
BRANCH   1   8
ATOM      8  C   UNL     1       6.192  -0.836  -0.277  0.00  0.00    -0.007 C 
BRANCH   8  12
ATOM      9  C   UNL     1       5.631  -1.978   3.801  0.00  0.00    +0.000 A 
ATOM     10  C   UNL     1       5.156  -0.760   3.353  0.00  0.00    +0.000 A 
ATOM     11  C   UNL     1       5.338  -0.390   2.033  0.00  0.00    +0.002 A 
ATOM     12  C   UNL     1       5.995  -1.238   1.162  0.00  0.00    -0.057 A 
ATOM     13  C   UNL     1       6.471  -2.456   1.611  0.00  0.00    +0.002 A 
ATOM     14  C   UNL     1       6.288  -2.826   2.930  0.00  0.00    +0.000 A 
ENDBRANCH   8  12
BRANCH   8  15
ATOM     15  C   UNL     1       7.594  -0.314  -0.464  0.00  0.00    -0.057 A 
ATOM     16  C   UNL     1       8.647  -1.198  -0.609  0.00  0.00    +0.002 A 
ATOM     17  C   UNL     1       9.932  -0.720  -0.781  0.00  0.00    +0.000 A 
ATOM     18  C   UNL     1      10.165   0.643  -0.810  0.00  0.00    +0.000 A 
ATOM     19  C   UNL     1       9.111   1.527  -0.666  0.00  0.00    +0.000 A 
ATOM     20  C   UNL     1       7.825   1.048  -0.498  0.00  0.00    +0.002 A 
ENDBRANCH   8  15
ENDBRANCH   1   8
BRANCH   4  21
ATOM     21  C   UNL     1       4.374  -4.503  -4.149  0.00  0.00    +0.117 C 
BRANCH  21  22
ATOM     22  C   UNL     1       4.131  -3.993  -5.570  0.00  0.00    +0.154 C 
BRANCH  22  23
ATOM     23  O   UNL     1       2.955  -3.181  -5.591  0.00  0.00    -0.388 OA
ATOM     24  H   UNL     1       2.153  -3.643  -5.312  0.00  0.00    +0.210 HD
ENDBRANCH  22  23
BRANCH  22  25
ATOM     25  C   UNL     1       3.945  -5.183  -6.514  0.00  0.00    +0.192 C 
BRANCH  25  26
ATOM     26  O   UNL     1       3.834  -4.712  -7.859  0.00  0.00    -0.377 OA
BRANCH  26  27
ATOM     27  C   UNL     1       3.657  -5.749  -8.825  0.00  0.00    +0.160 C 
BRANCH  27  28
ATOM     28  C   UNL     1       3.551  -5.132 -10.222  0.00  0.00    +0.035 C 
BRANCH  28  29
ATOM     29  C   UNL     1       3.361  -6.243 -11.257  0.00  0.00    -0.026 C 
ATOM     30  C   UNL     1       4.558  -7.194 -11.209  0.00  0.00    +0.010 C 
ATOM     31  C   UNL     1       4.368  -8.305 -12.244  0.00  0.00    -0.010 C 
ATOM     32  C   UNL     1       4.262  -7.688 -13.640  0.00  0.00    +0.007 C 
ATOM     33  C   UNL     1       3.065  -6.737 -13.688  0.00  0.00    -0.010 C 
ATOM     34  C   UNL     1       3.255  -5.626 -12.653  0.00  0.00    +0.010 C 
ATOM     35  C   UNL     1       1.784  -7.513 -13.374  0.00  0.00    +0.007 C 
ATOM     36  C   UNL     1       1.890  -8.129 -11.978  0.00  0.00    -0.010 C 
ATOM     37  C   UNL     1       3.087  -9.081 -11.931  0.00  0.00    +0.007 C 
ATOM     38  C   UNL     1       2.080  -7.019 -10.943  0.00  0.00    +0.010 C 
ENDBRANCH  28  29
ENDBRANCH  27  28
ENDBRANCH  26  27
ENDBRANCH  25  26
ENDBRANCH  22  25
ENDBRANCH  21  22
ENDBRANCH   4  21
TORSDOF 11
