REMARK  Name = ZINC59819208
REMARK  9 active torsions:
REMARK  status: ('A' for Active; 'I' for Inactive)
REMARK    1  A    between atoms: C_2  and  C_3
REMARK    2  A    between atoms: C_3  and  N_4
REMARK    3  A    between atoms: C_5  and  C_7
REMARK    4  A    between atoms: C_7  and  C_8
REMARK    5  A    between atoms: C_8  and  S_9
REMARK    6  A    between atoms: S_9  and  C_10
REMARK    7  A    between atoms: N_15  and  N_16
REMARK    8  A    between atoms: C_17  and  C_18
REMARK    9  A    between atoms: C_23  and  O_24
REMARK                            x       y       z     vdW  Elec       q    Type
REMARK                         _______ _______ _______ _____ _____    ______ ____
ROOT
ATOM      1  C   UNL     1      -5.312  -6.192  -3.741  0.00  0.00    +0.210 A 
ATOM      2  N   UNL     1      -5.775  -7.138  -4.566  0.00  0.00    -0.186 NA
ATOM      3  C   UNL     1      -6.966  -7.530  -4.165  0.00  0.00    +0.232 A 
ATOM      4  N   UNL     1      -7.285  -6.827  -3.057  0.00  0.00    -0.245 N 
ATOM      5  N   UNL     1      -6.200  -5.974  -2.801  0.00  0.00    -0.144 NA
ATOM      6  N   UNL     1      -7.751  -8.493  -4.771  0.00  0.00    -0.205 N 
ATOM      7  H   UNL     1      -8.619  -8.715  -4.400  0.00  0.00    +0.177 HD
ATOM      8  H   UNL     1      -8.102  -6.900  -2.539  0.00  0.00    +0.192 HD
ENDROOT
BRANCH   6   9
ATOM      9  N   UNL     1      -7.293  -9.148  -5.922  0.00  0.00    -0.187 NA
ATOM     10  C   UNL     1      -8.030 -10.052  -6.492  0.00  0.00    +0.142 C 
BRANCH  10  11
ATOM     11  C   UNL     1      -7.548 -10.740  -7.702  0.00  0.00    +0.038 A 
ATOM     12  C   UNL     1      -8.341 -11.710  -8.322  0.00  0.00    +0.028 A 
ATOM     13  C   UNL     1      -7.885 -12.351  -9.455  0.00  0.00    +0.020 A 
ATOM     14  C   UNL     1      -6.642 -12.038  -9.981  0.00  0.00    +0.034 A 
ATOM     15  C   UNL     1      -5.848 -11.080  -9.377  0.00  0.00    +0.061 A 
ATOM     16  C   UNL     1      -6.295 -10.422  -8.242  0.00  0.00    +0.139 A 
ATOM     17 BR   UNL     1      -4.153 -10.662 -10.104  0.00  0.00    -0.046 Br
ATOM     18 BR   UNL     1      -8.959 -13.662 -10.292  0.00  0.00    -0.050 Br
BRANCH  16  19
ATOM     19  O   UNL     1      -5.518  -9.477  -7.651  0.00  0.00    -0.505 OA
ATOM     20  H   UNL     1      -4.919  -9.826  -6.976  0.00  0.00    +0.292 HD
ENDBRANCH  16  19
ENDBRANCH  10  11
ENDBRANCH   6   9
BRANCH   1  21
ATOM     21  S   UNL     1      -3.757  -5.377  -3.889  0.00  0.00    -0.084 S 
BRANCH  21  22
ATOM     22  C   UNL     1      -3.726  -4.232  -2.482  0.00  0.00    +0.086 C 
BRANCH  22  23
ATOM     23  C   UNL     1      -2.411  -3.449  -2.491  0.00  0.00    +0.107 C 
BRANCH  23  25
ATOM     24  N   UNL     1      -1.318  -1.700  -1.126  0.00  0.00    -0.312 N 
ATOM     25  C   UNL     1      -2.386  -2.498  -1.322  0.00  0.00    +0.214 C 
ATOM     26  O   UNL     1      -3.326  -2.451  -0.557  0.00  0.00    -0.276 OA
ATOM     27  H   UNL     1      -0.566  -1.737  -1.737  0.00  0.00    +0.149 HD
BRANCH  24  28
ATOM     28  C   UNL     1      -1.293  -0.775   0.010  0.00  0.00    +0.131 C 
BRANCH  28  30
ATOM     29  C   UNL     1      -0.016   1.306   0.009  0.00  0.00    +0.005 C 
ATOM     30  C   UNL     1       0.002  -0.004   0.002  0.00  0.00    -0.016 C 
ENDBRANCH  28  30
ENDBRANCH  24  28
ENDBRANCH  23  25
ENDBRANCH  22  23
ENDBRANCH  21  22
ENDBRANCH   1  21
TORSDOF 9
