REMARK  Name = ZINC12346949
REMARK  8 active torsions:
REMARK  status: ('A' for Active; 'I' for Inactive)
REMARK    1  A    between atoms: C_1  and  C_2
REMARK    2  A    between atoms: C_2  and  C_33
REMARK    3  A    between atoms: C_6  and  C_21
REMARK    4  A    between atoms: N_11  and  C_14
REMARK    5  A    between atoms: C_12  and  O_13
REMARK    6  A    between atoms: C_24  and  O_29
REMARK    7  A    between atoms: C_25  and  O_27
REMARK    8  A    between atoms: O_27  and  C_28
REMARK                            x       y       z     vdW  Elec       q    Type
REMARK                         _______ _______ _______ _____ _____    ______ ____
ROOT
ATOM      1  C   UNL     1      -0.019   1.526   0.010  0.00  0.00    +0.011 C 
ATOM      2  C   UNL     1       0.002  -0.004   0.002  0.00  0.00    -0.023 C 
ATOM      3  C   UNL     1       0.744  -0.503  -1.239  0.00  0.00    +0.058 C 
ATOM      4  C   UNL     1       2.172  -0.006  -1.216  0.00  0.00    +0.017 C 
ATOM      5  C   UNL     1       2.816   0.190  -0.045  0.00  0.00    +0.024 C 
ATOM      6  C   UNL     1       4.246   0.680   0.037  0.00  0.00    +0.092 C 
ATOM      7  C   UNL     1       4.899   0.572  -1.312  0.00  0.00    +0.067 A 
ATOM      8  C   UNL     1       4.149   0.354  -2.491  0.00  0.00    +0.153 A 
ATOM      9  N   UNL     1       4.971   0.310  -3.498  0.00  0.00    -0.148 NA
ATOM     10  N   UNL     1       6.274   0.493  -3.009  0.00  0.00    -0.199 N 
ATOM     11  C   UNL     1       6.199   0.651  -1.656  0.00  0.00    +0.222 A 
ATOM     12  N   UNL     1       2.759   0.221  -2.436  0.00  0.00    -0.301 N 
ATOM     13  C   UNL     1       2.169  -0.052   1.182  0.00  0.00    +0.162 C 
ATOM     14  O   UNL     1       2.781   0.121   2.218  0.00  0.00    -0.292 OA
ATOM     15  C   UNL     1       0.742  -0.518   1.242  0.00  0.00    +0.086 C 
ATOM     16  C   UNL     1      -1.431  -0.539  -0.002  0.00  0.00    +0.011 C 
ATOM     17  H   UNL     1       2.221   0.287  -3.240  0.00  0.00    +0.153 HD
ENDROOT
BRANCH  10  18
ATOM     18  C   UNL     1       7.447   0.510  -3.776  0.00  0.00    +0.069 A 
ATOM     19  C   UNL     1       8.498   1.345  -3.421  0.00  0.00    +0.028 A 
ATOM     20  C   UNL     1       9.652   1.359  -4.179  0.00  0.00    +0.002 A 
ATOM     21  C   UNL     1       9.762   0.543  -5.290  0.00  0.00    +0.000 A 
ATOM     22  C   UNL     1       8.716  -0.290  -5.646  0.00  0.00    +0.002 A 
ATOM     23  C   UNL     1       7.562  -0.313  -4.889  0.00  0.00    +0.028 A 
ENDBRANCH  10  18
BRANCH   6  24
ATOM     24  C   UNL     1       4.257   2.119   0.484  0.00  0.00    -0.032 A 
ATOM     25  C   UNL     1       3.611   3.080  -0.270  0.00  0.00    +0.008 A 
ATOM     26  C   UNL     1       3.618   4.402   0.136  0.00  0.00    +0.049 A 
ATOM     27  C   UNL     1       4.274   4.765   1.301  0.00  0.00    +0.158 A 
ATOM     28  C   UNL     1       4.925   3.797   2.060  0.00  0.00    +0.162 A 
ATOM     29  C   UNL     1       4.909   2.474   1.650  0.00  0.00    +0.054 A 
BRANCH  28  30
ATOM     30  O   UNL     1       5.570   4.149   3.204  0.00  0.00    -0.491 OA
ATOM     31  C   UNL     1       6.216   3.103   3.933  0.00  0.00    +0.277 C 
ENDBRANCH  28  30
BRANCH  27  32
ATOM     32  O   UNL     1       4.283   6.065   1.701  0.00  0.00    -0.503 OA
ATOM     33  H   UNL     1       3.544   6.304   2.277  0.00  0.00    +0.292 HD
ENDBRANCH  27  32
ENDBRANCH   6  24
BRANCH  11  34
ATOM     34  O   UNL     1       7.243   0.852  -0.812  0.00  0.00    -0.492 OA
ATOM     35  H   UNL     1       7.627   0.037  -0.460  0.00  0.00    +0.294 HD
ENDBRANCH  11  34
TORSDOF 5
