REMARK  Name = ZINC25557750
REMARK  13 active torsions:
REMARK  status: ('A' for Active; 'I' for Inactive)
REMARK    1  A    between atoms: C_1  and  C_2
REMARK    2  A    between atoms: C_2  and  C_3
REMARK    3  A    between atoms: C_2  and  C_4
REMARK    4  A    between atoms: C_2  and  C_5
REMARK    5  A    between atoms: C_7  and  C_15
REMARK    6  A    between atoms: C_9  and  C_11
REMARK    7  A    between atoms: C_11  and  C_12
REMARK    8  A    between atoms: C_11  and  C_13
REMARK    9  A    between atoms: C_11  and  C_14
REMARK   10  A    between atoms: C_17  and  C_21
REMARK   11  A    between atoms: C_21  and  C_22
REMARK   12  A    between atoms: C_21  and  C_28
REMARK   13  A    between atoms: C_21  and  C_34
REMARK                            x       y       z     vdW  Elec       q    Type
REMARK                         _______ _______ _______ _____ _____    ______ ____
ROOT
ATOM      1  C   UNL     1      -5.228   3.402  -0.603  0.00  0.00    +0.047 A 
ATOM      2  C   UNL     1      -4.810   2.127  -0.357  0.00  0.00    +0.032 A 
ATOM      3  C   UNL     1      -3.412   2.159  -0.250  0.00  0.00    -0.010 A 
ATOM      4  C   UNL     1      -3.015   3.440  -0.425  0.00  0.00    +0.088 A 
ATOM      5  N   UNL     1      -4.117   4.207  -0.648  0.00  0.00    -0.360 N 
ATOM      6  H   UNL     1      -4.226   5.285  -0.841  0.00  0.00    +0.165 HD
ENDROOT
BRANCH   1   9
ATOM      7  C   UNL     1      -8.293   5.477  -1.195  0.00  0.00    +0.111 A 
ATOM      8  C   UNL     1      -6.965   5.183  -1.039  0.00  0.00    +0.052 A 
ATOM      9  C   UNL     1      -6.625   3.839  -0.788  0.00  0.00    +0.005 A 
ATOM     10  C   UNL     1      -7.707   2.938  -0.730  0.00  0.00    +0.052 A 
ATOM     11  C   UNL     1      -8.963   3.451  -0.911  0.00  0.00    +0.111 A 
ATOM     12  O   UNL     1      -9.149   4.627  -1.122  0.00  0.00    -0.463 OA
BRANCH   7  14
ATOM     13  C   UNL     1      -8.045   7.381  -2.763  0.00  0.00    +0.019 C 
ATOM     14  C   UNL     1      -8.699   6.903  -1.465  0.00  0.00    +0.020 C 
ATOM     15  C   UNL     1     -10.221   6.983  -1.600  0.00  0.00    +0.019 C 
ATOM     16  C   UNL     1      -8.242   7.791  -0.306  0.00  0.00    +0.019 C 
ENDBRANCH   7  14
BRANCH  11  17
ATOM     17  C   UNL     1     -10.148   2.522  -0.852  0.00  0.00    +0.020 C 
ATOM     18  C   UNL     1     -10.206   1.857   0.525  0.00  0.00    +0.019 C 
ATOM     19  C   UNL     1     -11.433   3.318  -1.088  0.00  0.00    +0.019 C 
ATOM     20  C   UNL     1     -10.008   1.447  -1.932  0.00  0.00    +0.019 C 
ENDBRANCH  11  17
ENDBRANCH   1   9
BRANCH   3  21
ATOM     21  C   UNL     1      -2.514   0.980   0.019  0.00  0.00    +0.072 C 
BRANCH  21  22
ATOM     22  C   UNL     1      -1.074   1.405  -0.107  0.00  0.00    -0.028 A 
ATOM     23  C   UNL     1      -0.599   2.468   0.639  0.00  0.00    +0.005 A 
ATOM     24  C   UNL     1       0.724   2.855   0.527  0.00  0.00    +0.000 A 
ATOM     25  C   UNL     1       1.570   2.183  -0.336  0.00  0.00    +0.000 A 
ATOM     26  C   UNL     1       1.093   1.124  -1.086  0.00  0.00    +0.000 A 
ATOM     27  C   UNL     1      -0.229   0.737  -0.974  0.00  0.00    +0.005 A 
ENDBRANCH  21  22
BRANCH  21  28
ATOM     28  C   UNL     1      -2.805  -0.111  -0.979  0.00  0.00    -0.028 A 
ATOM     29  C   UNL     1      -2.604   0.115  -2.328  0.00  0.00    +0.005 A 
ATOM     30  C   UNL     1      -2.867  -0.887  -3.243  0.00  0.00    +0.000 A 
ATOM     31  C   UNL     1      -3.340  -2.112  -2.810  0.00  0.00    +0.000 A 
ATOM     32  C   UNL     1      -3.545  -2.337  -1.462  0.00  0.00    +0.000 A 
ATOM     33  C   UNL     1      -3.278  -1.336  -0.546  0.00  0.00    +0.005 A 
ENDBRANCH  21  28
BRANCH  21  34
ATOM     34  C   UNL     1      -2.764   0.465   1.413  0.00  0.00    -0.028 A 
ATOM     35  C   UNL     1      -3.800   0.985   2.166  0.00  0.00    +0.005 A 
ATOM     36  C   UNL     1      -4.034   0.509   3.443  0.00  0.00    +0.000 A 
ATOM     37  C   UNL     1      -3.224  -0.479   3.971  0.00  0.00    +0.000 A 
ATOM     38  C   UNL     1      -2.184  -0.995   3.220  0.00  0.00    +0.000 A 
ATOM     39  C   UNL     1      -1.955  -0.524   1.941  0.00  0.00    +0.005 A 
ENDBRANCH  21  34
ENDBRANCH   3  21
TORSDOF 7
