REMARK  Name = ZINC41514145
REMARK  10 active torsions:
REMARK  status: ('A' for Active; 'I' for Inactive)
REMARK    1  A    between atoms: C_1  and  N_2
REMARK    2  A    between atoms: N_2  and  C_3
REMARK    3  A    between atoms: N_2  and  C_4
REMARK    4  A    between atoms: C_7  and  C_10
REMARK    5  A    between atoms: C_17  and  O_31
REMARK    6  A    between atoms: C_18  and  C_21
REMARK    7  A    between atoms: C_21  and  N_22
REMARK    8  A    between atoms: N_25  and  C_28
REMARK    9  A    between atoms: C_28  and  C_29
REMARK   10  A    between atoms: C_29  and  O_30
REMARK                            x       y       z     vdW  Elec       q    Type
REMARK                         _______ _______ _______ _____ _____    ______ ____
ROOT
ATOM      1  C   UNL     1      -0.006  -2.788  -4.881  0.00  0.00    +0.058 C 
ATOM      2  C   UNL     1      -0.124  -2.108  -6.051  0.00  0.00    +0.176 C 
ATOM      3  C   UNL     1      -0.250  -2.699  -7.390  0.00  0.00    +0.231 C 
ATOM      4  O   UNL     1      -0.272  -3.882  -7.684  0.00  0.00    -0.283 OA
ATOM      5  C   UNL     1      -0.345  -1.541  -8.298  0.00  0.00    +0.068 A 
ATOM      6  C   UNL     1      -0.480  -1.422  -9.682  0.00  0.00    +0.019 A 
ATOM      7  C   UNL     1      -0.542  -0.184 -10.255  0.00  0.00    +0.046 A 
ATOM      8  C   UNL     1      -0.472   0.959  -9.463  0.00  0.00    +0.122 A 
ATOM      9  C   UNL     1      -0.339   0.856  -8.088  0.00  0.00    +0.020 A 
ATOM     10  C   UNL     1      -0.274  -0.397  -7.488  0.00  0.00    +0.144 A 
ATOM     11  O   UNL     1      -0.152  -0.761  -6.194  0.00  0.00    -0.451 OA
ENDROOT
BRANCH   1  15
ATOM     12  C   UNL     1      -0.016  -0.694  -1.206  0.00  0.00    +0.029 A 
ATOM     13  C   UNL     1      -0.007   0.011  -2.407  0.00  0.00    +0.023 A 
ATOM     14  C   UNL     1      -0.004  -0.661  -3.596  0.00  0.00    +0.010 A 
ATOM     15  C   UNL     1      -0.009  -2.062  -3.607  0.00  0.00    -0.021 A 
ATOM     16  C   UNL     1      -0.018  -2.768  -2.396  0.00  0.00    +0.010 A 
ATOM     17  C   UNL     1      -0.016  -2.087  -1.211  0.00  0.00    +0.023 A 
BRANCH  12  19
ATOM     18  C   UNL     1      -0.023  -0.745   1.267  0.00  0.00    +0.129 C 
ATOM     19  N   UNL     1      -0.019  -0.006   0.003  0.00  0.00    -0.336 N 
ATOM     20  C   UNL     1      -0.019   1.459   0.011  0.00  0.00    +0.129 C 
ENDBRANCH  12  19
ENDBRANCH   1  15
BRANCH   8  21
ATOM     21  O   UNL     1      -0.535   2.185 -10.042  0.00  0.00    -0.506 OA
ATOM     22  H   UNL     1      -1.433   2.535 -10.125  0.00  0.00    +0.292 HD
ENDBRANCH   8  21
BRANCH   9  23
ATOM     23  C   UNL     1      -0.263   2.101  -7.243  0.00  0.00    -0.035 C 
BRANCH  23  24
ATOM     24  N   UNL     1      -1.617   2.498  -6.834  0.00  0.00    +0.384 N 
ATOM     25  C   UNL     1      -2.394   2.879  -8.021  0.00  0.00    -0.063 C 
ATOM     26  C   UNL     1      -3.811   3.275  -7.598  0.00  0.00    +0.066 C 
ATOM     27  N   UNL     1      -3.741   4.400  -6.656  0.00  0.00    -0.304 NA
ATOM     28  C   UNL     1      -2.944   4.042  -5.473  0.00  0.00    +0.066 C 
ATOM     29  C   UNL     1      -1.535   3.640  -5.914  0.00  0.00    -0.063 C 
ATOM     30  H   UNL     1      -2.069   1.724  -6.371  0.00  0.00    -0.081 HD
BRANCH  27  31
ATOM     31  C   UNL     1      -5.085   4.848  -6.269  0.00  0.00    +0.112 C 
BRANCH  31  32
ATOM     32  C   UNL     1      -4.982   6.163  -5.494  0.00  0.00    +0.171 C 
BRANCH  32  33
ATOM     33  O   UNL     1      -4.477   7.185  -6.356  0.00  0.00    -0.394 OA
ATOM     34  H   UNL     1      -4.385   8.048  -5.931  0.00  0.00    +0.209 HD
ENDBRANCH  32  33
ENDBRANCH  31  32
ENDBRANCH  27  31
ENDBRANCH  23  24
ENDBRANCH   9  23
TORSDOF 8
