REMARK  Name = ZINC20726765
REMARK  9 active torsions:
REMARK  status: ('A' for Active; 'I' for Inactive)
REMARK    1  A    between atoms: C_1  and  C_2
REMARK    2  A    between atoms: C_5  and  C_35
REMARK    3  A    between atoms: N_8  and  C_10
REMARK    4  A    between atoms: C_10  and  C_11
REMARK    5  A    between atoms: C_11  and  C_12
REMARK    6  A    between atoms: C_12  and  N_13
REMARK    7  A    between atoms: C_14  and  C_16
REMARK    8  A    between atoms: C_16  and  N_17
REMARK    9  A    between atoms: C_26  and  C_27
REMARK                            x       y       z     vdW  Elec       q    Type
REMARK                         _______ _______ _______ _____ _____    ______ ____
ROOT
ATOM      1  N   UNL     1       2.298   3.981   0.141  0.00  0.00    -0.257 N 
ATOM      2  C   UNL     1       3.606   3.520   0.224  0.00  0.00    +0.051 A 
ATOM      3  C   UNL     1       4.545   4.300   0.898  0.00  0.00    +0.024 A 
ATOM      4  C   UNL     1       5.853   3.878   1.009  0.00  0.00    +0.002 A 
ATOM      5  C   UNL     1       6.253   2.675   0.457  0.00  0.00    +0.001 A 
ATOM      6  C   UNL     1       5.337   1.893  -0.221  0.00  0.00    +0.017 A 
ATOM      7  C   UNL     1       4.021   2.311  -0.336  0.00  0.00    +0.034 A 
ATOM      8  S   UNL     1       2.849   1.309  -1.201  0.00  0.00    -0.082 S 
ATOM      9  C   UNL     1       1.329   1.811  -0.439  0.00  0.00    +0.076 C 
ATOM     10  C   UNL     1       0.334   0.930  -0.174  0.00  0.00    +0.028 C 
ATOM     11  C   UNL     1       1.209   3.249  -0.110  0.00  0.00    +0.258 C 
ATOM     12  O   UNL     1       0.110   3.769  -0.067  0.00  0.00    -0.269 OA
ENDROOT
BRANCH  10  13
ATOM     13  C   UNL     1       0.430  -0.455  -0.660  0.00  0.00    -0.024 A 
ATOM     14  C   UNL     1       1.046  -0.728  -1.886  0.00  0.00    +0.008 A 
ATOM     15  C   UNL     1       1.135  -2.030  -2.333  0.00  0.00    +0.001 A 
ATOM     16  C   UNL     1       0.609  -3.063  -1.577  0.00  0.00    +0.000 A 
ATOM     17  C   UNL     1      -0.006  -2.800  -0.365  0.00  0.00    +0.001 A 
ATOM     18  C   UNL     1      -0.099  -1.504   0.098  0.00  0.00    +0.008 A 
ENDBRANCH  10  13
BRANCH   1  19
ATOM     19  C   UNL     1       2.092   5.416   0.351  0.00  0.00    +0.209 C 
BRANCH  19  21
ATOM     20  N   UNL     1       1.558   6.929   2.234  0.00  0.00    -0.314 N 
ATOM     21  C   UNL     1       1.785   5.672   1.804  0.00  0.00    +0.231 C 
ATOM     22  O   UNL     1       1.743   4.747   2.587  0.00  0.00    -0.274 OA
ATOM     23  H   UNL     1       1.597   7.768   1.524  0.00  0.00    +0.149 HD
BRANCH  20  24
ATOM     24  C   UNL     1       1.260   7.178   3.646  0.00  0.00    +0.102 C 
BRANCH  24  25
ATOM     25  C   UNL     1       1.044   8.677   3.866  0.00  0.00    +0.000 C 
BRANCH  25  26
ATOM     26  C   UNL     1       0.733   8.937   5.341  0.00  0.00    -0.077 C 
BRANCH  26  32
ATOM     27  C   UNL     1       2.776  13.407   5.173  0.00  0.00    +0.005 C 
ATOM     28  C   UNL     1       1.480  12.627   5.399  0.00  0.00    -0.031 C 
ATOM     29  C   UNL     1       0.920  12.957   6.785  0.00  0.00    +0.003 C 
ATOM     30  C   UNL     1      -0.344  12.127   7.027  0.00  0.00    -0.031 C 
ATOM     31  C   UNL     1      -0.005  10.640   6.895  0.00  0.00    -0.076 C 
ATOM     32  N   UNL     1       0.526  10.376   5.551  0.00  0.00    +0.380 N 
ATOM     33  C   UNL     1       1.766  11.126   5.314  0.00  0.00    -0.076 C 
ATOM     34  C   UNL     1      -1.407  12.502   5.994  0.00  0.00    +0.005 C 
ATOM     35  H   UNL     1      -0.220  10.722   4.822  0.00  0.00    -0.082 HD
ENDBRANCH  26  32
ENDBRANCH  25  26
ENDBRANCH  24  25
ENDBRANCH  20  24
ENDBRANCH  19  21
ENDBRANCH   1  19
TORSDOF 7
