REMARK  Name = ZINC33721989
REMARK  7 active torsions:
REMARK  status: ('A' for Active; 'I' for Inactive)
REMARK    1  A    between atoms: C_1  and  C_2
REMARK    2  A    between atoms: C_5  and  C_8
REMARK    3  A    between atoms: C_14  and  C_16
REMARK    4  A    between atoms: C_19  and  O_24
REMARK    5  A    between atoms: C_20  and  O_22
REMARK    6  A    between atoms: O_22  and  C_23
REMARK    7  A    between atoms: O_24  and  C_25
REMARK                            x       y       z     vdW  Elec       q    Type
REMARK                         _______ _______ _______ _____ _____    ______ ____
ROOT
ATOM      1  C   UNL     1       0.002  -0.004   0.002  0.00  0.00    +0.310 C 
ATOM      2  N   UNL     1      -1.178  -0.528   0.700  0.00  0.00    -0.205 N 
ATOM      3  C   UNL     1      -1.444  -1.984   0.748  0.00  0.00    +0.136 C 
ATOM      4  C   UNL     1      -2.917  -2.046   1.176  0.00  0.00    +0.086 C 
ATOM      5  C   UNL     1      -3.224  -0.625   1.605  0.00  0.00    +0.069 C 
ATOM      6  N   UNL     1      -2.216   0.136   1.327  0.00  0.00    -0.185 NA
ATOM      7  C   UNL     1      -1.242  -2.499  -0.653  0.00  0.00    +0.018 A 
ATOM      8  C   UNL     1      -1.736  -3.745  -0.993  0.00  0.00    +0.029 A 
ATOM      9  C   UNL     1      -1.551  -4.246  -2.268  0.00  0.00    +0.042 A 
ATOM     10  C   UNL     1      -0.866  -3.494  -3.206  0.00  0.00    +0.023 A 
ATOM     11  C   UNL     1      -0.376  -2.250  -2.872  0.00  0.00    +0.047 A 
ATOM     12  C   UNL     1      -0.566  -1.733  -1.591  0.00  0.00    +0.129 A 
ATOM     13  O   UNL     1      -0.080  -0.490  -1.343  0.00  0.00    -0.465 OA
ATOM     14 CL   UNL     1      -2.175  -5.810  -2.690  0.00  0.00    -0.084 Cl
ENDROOT
BRANCH   1  19
ATOM     15  C   UNL     1      -0.076   5.774   0.033  0.00  0.00    +0.044 C 
ATOM     16  C   UNL     1      -0.056   4.267   0.025  0.00  0.00    -0.050 A 
ATOM     17  C   UNL     1       1.151   3.592   0.010  0.00  0.00    +0.004 A 
ATOM     18  C   UNL     1       1.169   2.210   0.003  0.00  0.00    +0.009 A 
ATOM     19  C   UNL     1      -0.018   1.503   0.010  0.00  0.00    +0.013 A 
ATOM     20  C   UNL     1      -1.225   2.178   0.020  0.00  0.00    +0.009 A 
ATOM     21  C   UNL     1      -1.244   3.560   0.031  0.00  0.00    +0.004 A 
ENDBRANCH   1  19
BRANCH   5  22
ATOM     22  C   UNL     1      -4.478  -0.180   2.240  0.00  0.00    +0.001 A 
ATOM     23  C   UNL     1      -5.502  -1.097   2.486  0.00  0.00    +0.013 A 
ATOM     24  C   UNL     1      -6.673  -0.680   3.084  0.00  0.00    +0.050 A 
ATOM     25  C   UNL     1      -6.839   0.652   3.435  0.00  0.00    +0.162 A 
ATOM     26  C   UNL     1      -5.824   1.573   3.188  0.00  0.00    +0.162 A 
ATOM     27  C   UNL     1      -4.646   1.161   2.593  0.00  0.00    +0.059 A 
BRANCH  26  28
ATOM     28  O   UNL     1      -5.992   2.878   3.532  0.00  0.00    -0.491 OA
ATOM     29  C   UNL     1      -4.910   3.768   3.249  0.00  0.00    +0.277 C 
ENDBRANCH  26  28
BRANCH  25  30
ATOM     30  O   UNL     1      -7.997   1.059   4.020  0.00  0.00    -0.491 OA
ATOM     31  C   UNL     1      -8.996   0.063   4.245  0.00  0.00    +0.277 C 
ENDBRANCH  25  30
ENDBRANCH   5  22
TORSDOF 4
