REMARK  Name = ZINC39330861
REMARK  11 active torsions:
REMARK  status: ('A' for Active; 'I' for Inactive)
REMARK    1  A    between atoms: C_4  and  C_7
REMARK    2  A    between atoms: C_7  and  C_9
REMARK    3  A    between atoms: C_10  and  C_11
REMARK    4  A    between atoms: N_14  and  C_21
REMARK    5  A    between atoms: C_21  and  C_22
REMARK    6  A    between atoms: C_22  and  C_24
REMARK    7  A    between atoms: C_22  and  O_37
REMARK    8  A    between atoms: C_24  and  N_25
REMARK    9  A    between atoms: N_25  and  C_26
REMARK   10  A    between atoms: C_26  and  C_27
REMARK   11  A    between atoms: C_27  and  C_28
REMARK                            x       y       z     vdW  Elec       q    Type
REMARK                         _______ _______ _______ _____ _____    ______ ____
ROOT
ATOM      1  C   UNL     1       7.806  -6.265  -1.588  0.00  0.00    +0.134 C 
ENDROOT
BRANCH   1   4
ATOM      2  C   UNL     1       4.908  -4.308  -0.069  0.00  0.00    +0.061 C 
ATOM      3  C   UNL     1       5.661  -4.825  -1.305  0.00  0.00    +0.117 C 
ATOM      4  N   UNL     1       6.798  -5.581  -0.774  0.00  0.00    -0.326 N 
ATOM      5  C   UNL     1       6.781  -5.555   0.622  0.00  0.00    +0.034 A 
ATOM      6  C   UNL     1       5.702  -4.829   1.108  0.00  0.00    -0.018 A 
ATOM      7  C   UNL     1       5.506  -4.686   2.468  0.00  0.00    +0.006 A 
ATOM      8  C   UNL     1       6.386  -5.267   3.362  0.00  0.00    +0.000 A 
ATOM      9  C   UNL     1       7.464  -5.994   2.891  0.00  0.00    +0.002 A 
ATOM     10  C   UNL     1       7.668  -6.140   1.529  0.00  0.00    +0.023 A 
BRANCH   2  12
ATOM     11  C   UNL     1       3.720  -2.154  -0.045  0.00  0.00    +0.048 C 
ATOM     12  C   UNL     1       4.884  -2.801  -0.060  0.00  0.00    -0.013 C 
BRANCH  11  13
ATOM     13  C   UNL     1       3.696  -0.684  -0.037  0.00  0.00    +0.186 C 
ATOM     14  O   UNL     1       4.739  -0.059  -0.044  0.00  0.00    -0.287 OA
BRANCH  13  18
ATOM     15  C   UNL     1      -0.017   1.380   0.010  0.00  0.00    +0.000 A 
ATOM     16  C   UNL     1       1.168   2.094   0.002  0.00  0.00    +0.001 A 
ATOM     17  C   UNL     1       2.377   1.430  -0.013  0.00  0.00    +0.012 A 
ATOM     18  C   UNL     1       2.404   0.034  -0.021  0.00  0.00    +0.022 A 
ATOM     19  C   UNL     1       1.204  -0.681  -0.013  0.00  0.00    +0.012 A 
ATOM     20  C   UNL     1       0.002  -0.004   0.002  0.00  0.00    +0.001 A 
ENDBRANCH  13  18
ENDBRANCH  11  13
ENDBRANCH   2  12
ENDBRANCH   1   4
BRANCH   1  21
ATOM     21  C   UNL     1       8.960  -5.305  -1.884  0.00  0.00    +0.115 C 
BRANCH  21  22
ATOM     22  O   UNL     1       8.463  -4.169  -2.595  0.00  0.00    -0.392 OA
ATOM     23  H   UNL     1       8.048  -4.385  -3.441  0.00  0.00    +0.210 HD
ENDBRANCH  21  22
BRANCH  21  24
ATOM     24  C   UNL     1      10.012  -6.019  -2.735  0.00  0.00    -0.049 C 
BRANCH  24  25
ATOM     25  N   UNL     1      11.173  -5.138  -2.919  0.00  0.00    +0.381 N 
ATOM     26  H   UNL     1      10.882  -4.291  -3.384  0.00  0.00    -0.086 HD
ATOM     27  H   UNL     1      11.567  -4.909  -2.019  0.00  0.00    -0.086 HD
BRANCH  25  28
ATOM     28  C   UNL     1      12.183  -5.824  -3.735  0.00  0.00    -0.078 C 
BRANCH  28  29
ATOM     29  C   UNL     1      13.393  -4.906  -3.927  0.00  0.00    +0.018 C 
BRANCH  29  30
ATOM     30  C   UNL     1      14.429  -5.609  -4.765  0.00  0.00    -0.024 A 
ATOM     31  C   UNL     1      14.480  -5.659  -6.228  0.00  0.00    +0.003 A 
ATOM     32  C   UNL     1      13.681  -5.133  -7.245  0.00  0.00    +0.010 A 
ATOM     33  C   UNL     1      14.006  -5.365  -8.552  0.00  0.00    +0.001 A 
ATOM     34  C   UNL     1      15.126  -6.119  -8.877  0.00  0.00    +0.002 A 
ATOM     35  C   UNL     1      15.928  -6.647  -7.889  0.00  0.00    +0.026 A 
ATOM     36  C   UNL     1      15.616  -6.423  -6.552  0.00  0.00    +0.047 A 
ATOM     37  N   UNL     1      16.201  -6.803  -5.365  0.00  0.00    -0.360 N 
ATOM     38  C   UNL     1      15.484  -6.305  -4.312  0.00  0.00    +0.087 A 
ATOM     39  H   UNL     1      17.005  -7.341  -5.287  0.00  0.00    +0.165 HD
ENDBRANCH  29  30
ENDBRANCH  28  29
ENDBRANCH  25  28
ENDBRANCH  24  25
ENDBRANCH  21  24
ENDBRANCH   1  21
TORSDOF 11
