REMARK  Name = ZINC00085982
REMARK  4 active torsions:
REMARK  status: ('A' for Active; 'I' for Inactive)
REMARK    1  A    between atoms: C_4  and  O_26
REMARK    2  A    between atoms: C_5  and  C_7
REMARK    3  A    between atoms: C_9  and  C_17
REMARK    4  A    between atoms: C_10  and  C_15
REMARK                            x       y       z     vdW  Elec       q    Type
REMARK                         _______ _______ _______ _____ _____    ______ ____
ROOT
ATOM      1  C   UNL     1       0.002  -0.004   0.002  0.00  0.00    +0.053 A 
ATOM      2  C   UNL     1       1.189  -0.689  -0.144  0.00  0.00    +0.036 A 
ATOM      3  C   UNL     1       2.402   0.015  -0.153  0.00  0.00    +0.007 A 
ATOM      4  C   UNL     1       2.376   1.416  -0.010  0.00  0.00    +0.124 A 
ATOM      5  C   UNL     1       1.130   2.069   0.137  0.00  0.00    +0.267 A 
ATOM      6  O   UNL     1       1.090   3.282   0.261  0.00  0.00    -0.266 OA
ATOM      7  N   UNL     1      -0.012   1.357   0.140  0.00  0.00    -0.321 N 
ATOM      8  H   UNL     1      -0.886   1.831   0.244  0.00  0.00    +0.169 HD
ENDROOT
BRANCH   3   9
ATOM      9  C   UNL     1       3.686  -0.702  -0.308  0.00  0.00    -0.013 A 
ATOM     10  C   UNL     1       4.114  -1.594   0.677  0.00  0.00    +0.012 A 
ATOM     11  C   UNL     1       5.310  -2.261   0.531  0.00  0.00    +0.050 A 
ATOM     12  C   UNL     1       6.095  -2.050  -0.595  0.00  0.00    +0.166 A 
ATOM     13  C   UNL     1       5.674  -1.159  -1.583  0.00  0.00    +0.167 A 
ATOM     14  C   UNL     1       4.471  -0.492  -1.444  0.00  0.00    +0.058 A 
ATOM     15  O   UNL     1       6.613  -1.131  -2.573  0.00  0.00    -0.453 OA
ATOM     16  C   UNL     1       7.801  -1.698  -1.991  0.00  0.00    +0.466 C 
ATOM     17  O   UNL     1       7.296  -2.577  -0.968  0.00  0.00    -0.453 OA
ENDBRANCH   3   9
BRANCH   1  22
ATOM     18  C   UNL     1      -2.671  -2.467   0.936  0.00  0.00    +0.001 A 
ATOM     19  C   UNL     1      -3.665  -2.149   0.025  0.00  0.00    +0.004 A 
ATOM     20  C   UNL     1      -3.472  -1.137  -0.895  0.00  0.00    +0.046 A 
ATOM     21  C   UNL     1      -2.279  -0.430  -0.911  0.00  0.00    +0.126 A 
ATOM     22  C   UNL     1      -1.271  -0.748   0.010  0.00  0.00    +0.040 A 
ATOM     23  C   UNL     1      -1.477  -1.779   0.931  0.00  0.00    +0.013 A 
BRANCH  21  24
ATOM     24  O   UNL     1      -2.088   0.564  -1.815  0.00  0.00    -0.506 OA
ATOM     25  H   UNL     1      -1.696   0.269  -2.647  0.00  0.00    +0.292 HD
ENDBRANCH  21  24
ENDBRANCH   1  22
BRANCH   4  26
ATOM     26  C   UNL     1       3.595   2.169  -0.014  0.00  0.00    +0.105 C 
ATOM     27  N   UNL     1       4.561   2.766  -0.018  0.00  0.00    -0.191 NA
ENDBRANCH   4  26
TORSDOF 4
