REMARK  Name = ZINC17108239
REMARK  8 active torsions:
REMARK  status: ('A' for Active; 'I' for Inactive)
REMARK    1  A    between atoms: C_1  and  C_2
REMARK    2  A    between atoms: C_4  and  C_27
REMARK    3  A    between atoms: C_5  and  C_26
REMARK    4  A    between atoms: C_6  and  S_9
REMARK    5  A    between atoms: C_7  and  C_8
REMARK    6  A    between atoms: S_9  and  C_10
REMARK    7  A    between atoms: C_10  and  C_12
REMARK    8  A    between atoms: C_10  and  C_13
REMARK                            x       y       z     vdW  Elec       q    Type
REMARK                         _______ _______ _______ _____ _____    ______ ____
ROOT
ATOM      1  C   UNL     1       0.000   1.080   2.488  0.00  0.00    +0.233 C 
ATOM      2  O   UNL     1      -0.360   0.059   3.034  0.00  0.00    -0.274 OA
ATOM      3  N   UNL     1       1.052   1.768   2.973  0.00  0.00    -0.260 N 
ATOM      4  C   UNL     1       1.509   3.010   2.329  0.00  0.00    +0.209 C 
ATOM      5  C   UNL     1       3.015   3.013   2.283  0.00  0.00    +0.235 C 
ATOM      6  O   UNL     1       3.586   3.607   1.392  0.00  0.00    -0.274 OA
ATOM      7  N   UNL     1       3.736   2.366   3.219  0.00  0.00    -0.283 N 
ATOM      8  C   UNL     1       3.103   1.633   4.229  0.00  0.00    +0.055 A 
ATOM      9  C   UNL     1       1.744   1.327   4.112  0.00  0.00    +0.058 A 
ATOM     10  C   UNL     1       1.103   0.603   5.100  0.00  0.00    +0.025 A 
ATOM     11  C   UNL     1       1.811   0.185   6.214  0.00  0.00    +0.002 A 
ATOM     12  C   UNL     1       3.153   0.492   6.339  0.00  0.00    +0.002 A 
ATOM     13  C   UNL     1       3.807   1.210   5.344  0.00  0.00    +0.025 A 
ATOM     14  H   UNL     1       4.705   2.409   3.192  0.00  0.00    +0.155 HD
ENDROOT
BRANCH   1  15
ATOM     15  C   UNL     1      -0.729   1.579   1.267  0.00  0.00    +0.134 C 
ATOM     16  C   UNL     1      -0.013   1.086   0.008  0.00  0.00    +0.029 C 
BRANCH  15  17
ATOM     17  S   UNL     1      -2.431   0.951   1.280  0.00  0.00    -0.112 S 
BRANCH  17  23
ATOM     18  C   UNL     1      -5.089   4.901  -0.891  0.00  0.00    +0.044 C 
ATOM     19  C   UNL     1      -4.404   3.568  -1.052  0.00  0.00    -0.046 A 
ATOM     20  C   UNL     1      -4.366   2.956  -2.291  0.00  0.00    +0.007 A 
ATOM     21  C   UNL     1      -3.737   1.733  -2.443  0.00  0.00    -0.046 A 
ATOM     22  C   UNL     1      -3.147   1.119  -1.357  0.00  0.00    -0.034 A 
ATOM     23  C   UNL     1      -3.183   1.731  -0.110  0.00  0.00    +0.015 A 
ATOM     24  C   UNL     1      -3.820   2.957   0.041  0.00  0.00    -0.034 A 
ATOM     25  C   UNL     1      -3.868   3.622   1.392  0.00  0.00    +0.045 C 
ATOM     26  C   UNL     1      -2.463  -0.214  -1.523  0.00  0.00    +0.045 C 
ATOM     27  C   UNL     1      -3.698   1.070  -3.796  0.00  0.00    +0.044 C 
ENDBRANCH  17  23
ENDBRANCH  15  17
ENDBRANCH   1  15
TORSDOF 3
