REMARK  Name = ZINC61376131
REMARK  9 active torsions:
REMARK  status: ('A' for Active; 'I' for Inactive)
REMARK    1  A    between atoms: C_1  and  C_2
REMARK    2  A    between atoms: C_2  and  N_3
REMARK    3  A    between atoms: C_4  and  C_6
REMARK    4  A    between atoms: C_6  and  N_7
REMARK    5  A    between atoms: N_10  and  C_11
REMARK    6  A    between atoms: C_11  and  C_12
REMARK    7  A    between atoms: C_15  and  C_18
REMARK    8  A    between atoms: C_18  and  N_19
REMARK    9  A    between atoms: C_23  and  C_25
REMARK                            x       y       z     vdW  Elec       q    Type
REMARK                         _______ _______ _______ _____ _____    ______ ____
ROOT
ATOM      1  C   UNL     1       2.758  -8.008   4.444  0.00  0.00    -0.030 A 
ATOM      2  C   UNL     1       1.669  -8.704   4.935  0.00  0.00    +0.005 A 
ATOM      3  C   UNL     1       1.559 -10.064   4.710  0.00  0.00    +0.002 A 
ATOM      4  C   UNL     1       2.538 -10.727   3.994  0.00  0.00    -0.064 A 
ATOM      5  C   UNL     1       3.626 -10.031   3.502  0.00  0.00    +0.002 A 
ATOM      6  C   UNL     1       3.734  -8.671   3.723  0.00  0.00    +0.005 A 
ENDROOT
BRANCH   1   7
ATOM      7  C   UNL     1       2.878  -6.526   4.689  0.00  0.00    +0.141 C 
BRANCH   7  11
ATOM      8  N   UNL     1       1.603  -3.778   2.607  0.00  0.00    -0.291 N 
ATOM      9  C   UNL     1       2.205  -4.449   3.608  0.00  0.00    +0.300 C 
ATOM     10  O   UNL     1       2.732  -3.839   4.518  0.00  0.00    -0.253 OA
ATOM     11  N   UNL     1       2.223  -5.797   3.601  0.00  0.00    -0.295 N 
ATOM     12  H   UNL     1       1.182  -4.265   1.880  0.00  0.00    +0.151 HD
ATOM     13  H   UNL     1       1.803  -6.284   2.874  0.00  0.00    +0.151 HD
BRANCH   8  14
ATOM     14  C   UNL     1       1.583  -2.313   2.615  0.00  0.00    +0.201 C 
BRANCH  14  16
ATOM     15  N   UNL     1       0.711  -0.489   1.189  0.00  0.00    -0.314 N 
ATOM     16  C   UNL     1       0.854  -1.814   1.394  0.00  0.00    +0.230 C 
ATOM     17  O   UNL     1       0.396  -2.604   0.595  0.00  0.00    -0.274 OA
ATOM     18  H   UNL     1       1.077   0.142   1.827  0.00  0.00    +0.149 HD
BRANCH  15  20
ATOM     19  C   UNL     1      -0.019   1.526   0.010  0.00  0.00    +0.024 C 
ATOM     20  C   UNL     1       0.002  -0.004   0.002  0.00  0.00    +0.101 C 
ENDBRANCH  15  20
ENDBRANCH  14  16
ENDBRANCH   8  14
ENDBRANCH   7  11
ENDBRANCH   1   7
BRANCH   4  21
ATOM     21  C   UNL     1       2.418 -12.210   3.749  0.00  0.00    -0.043 C 
BRANCH  21  22
ATOM     22  N   UNL     1       1.689 -12.442   2.495  0.00  0.00    +0.383 N 
ATOM     23  C   UNL     1       2.472 -11.916   1.371  0.00  0.00    -0.078 C 
ATOM     24  C   UNL     1       1.681 -12.083   0.071  0.00  0.00    -0.018 C 
ATOM     25  C   UNL     1       1.391 -13.569  -0.157  0.00  0.00    -0.001 C 
ATOM     26  C   UNL     1       0.639 -14.124   1.056  0.00  0.00    -0.031 C 
ATOM     27  C   UNL     1       1.469 -13.882   2.319  0.00  0.00    -0.075 C 
ATOM     28  C   UNL     1       0.413 -15.627   0.873  0.00  0.00    +0.005 C 
ATOM     29  H   UNL     1       0.798 -11.969   2.533  0.00  0.00    -0.081 HD
ENDBRANCH  21  22
ENDBRANCH   4  21
TORSDOF 7
