REMARK  Name = ZINC66761645
REMARK  3 active torsions:
REMARK  status: ('A' for Active; 'I' for Inactive)
REMARK    1  A    between atoms: N_10  and  C_13
REMARK    2  A    between atoms: C_13  and  C_14
REMARK    3  A    between atoms: C_20  and  C_22
REMARK                            x       y       z     vdW  Elec       q    Type
REMARK                         _______ _______ _______ _____ _____    ______ ____
ROOT
ATOM      1  C   UNL     1       0.413  -6.764   1.692  0.00  0.00    +0.064 A 
ATOM      2  C   UNL     1       0.571  -7.851   0.896  0.00  0.00    +0.073 A 
ATOM      3  S   UNL     1      -1.056  -8.579   0.999  0.00  0.00    -0.060 S 
ATOM      4  C   UNL     1      -1.754  -7.444   2.027  0.00  0.00    +0.165 A 
ATOM      5  N   UNL     1      -0.772  -6.596   2.248  0.00  0.00    -0.228 NA
ATOM      6  N   UNL     1      -3.051  -7.412   2.525  0.00  0.00    -0.264 N 
ATOM      7  C   UNL     1      -3.926  -8.380   2.188  0.00  0.00    +0.222 C 
ATOM      8  O   UNL     1      -3.581  -9.280   1.451  0.00  0.00    -0.275 OA
ATOM      9  H   UNL     1      -3.327  -6.692   3.114  0.00  0.00    +0.157 HD
ENDROOT
BRANCH   7  10
ATOM     10  C   UNL     1      -5.333  -8.346   2.728  0.00  0.00    +0.079 C 
ATOM     11  C   UNL     1      -6.264  -9.223   1.861  0.00  0.00    +0.016 C 
ATOM     12  C   UNL     1      -6.794 -10.319   2.835  0.00  0.00    -0.010 C 
ATOM     13  C   UNL     1      -5.560 -11.233   3.102  0.00  0.00    +0.004 C 
ATOM     14  C   UNL     1      -4.612 -10.369   3.965  0.00  0.00    +0.004 C 
ATOM     15  C   UNL     1      -5.387  -8.991   4.146  0.00  0.00    +0.001 C 
ATOM     16  C   UNL     1      -6.872  -9.503   4.174  0.00  0.00    +0.008 C 
ENDBRANCH   7  10
BRANCH   1  17
ATOM     17  C   UNL     1       1.542  -5.796   1.936  0.00  0.00    +0.140 C 
BRANCH  17  27
ATOM     18  C   UNL     1       2.417   1.433   0.134  0.00  0.00    +0.005 A 
ATOM     19  C   UNL     1       1.177   2.059   0.131  0.00  0.00    +0.018 A 
ATOM     20  C   UNL     1       0.031   1.289   0.103  0.00  0.00    +0.084 A 
ATOM     21  N   UNL     1       0.101  -0.028   0.080  0.00  0.00    -0.350 N 
ATOM     22  C   UNL     1       1.264  -0.662   0.082  0.00  0.00    +0.099 A 
ATOM     23  C   UNL     1       2.458   0.051   0.109  0.00  0.00    +0.042 A 
ATOM     24  N   UNL     1       1.291  -2.051   0.057  0.00  0.00    -0.314 N 
ATOM     25  C   UNL     1       2.562  -2.780  -0.072  0.00  0.00    +0.122 C 
ATOM     26  C   UNL     1       2.636  -3.830   1.042  0.00  0.00    +0.104 C 
ATOM     27  N   UNL     1       1.432  -4.671   0.998  0.00  0.00    -0.294 NA
ATOM     28  C   UNL     1       0.222  -3.881   1.262  0.00  0.00    +0.104 C 
ATOM     29  C   UNL     1       0.049  -2.833   0.164  0.00  0.00    +0.122 C 
ATOM     30  H   UNL     1      -0.719  -0.545   0.060  0.00  0.00    +0.166 HD
ENDBRANCH  17  27
ENDBRANCH   1  17
TORSDOF 3
