REMARK  Name = ZINC16809469
REMARK  6 active torsions:
REMARK  status: ('A' for Active; 'I' for Inactive)
REMARK    1  A    between atoms: C_1  and  C_2
REMARK    2  A    between atoms: C_5  and  C_8
REMARK    3  A    between atoms: C_8  and  C_9
REMARK    4  A    between atoms: C_10  and  C_32
REMARK    5  A    between atoms: C_23  and  C_27
REMARK    6  A    between atoms: C_24  and  C_26
REMARK                            x       y       z     vdW  Elec       q    Type
REMARK                         _______ _______ _______ _____ _____    ______ ____
ROOT
ATOM      1  C   UNL     1      -0.461   1.720   1.325  0.00  0.00    +0.042 A 
ATOM      2  C   UNL     1      -1.435   1.097   2.050  0.00  0.00    +0.050 A 
ATOM      3  N   UNL     1      -2.116   1.773   2.973  0.00  0.00    -0.221 NA
ATOM      4  C   UNL     1      -1.881   3.048   3.202  0.00  0.00    +0.202 A 
ATOM      5  N   UNL     1      -0.927   3.724   2.507  0.00  0.00    -0.295 N 
ATOM      6  H   UNL     1      -0.767   4.663   2.688  0.00  0.00    +0.172 HD
ATOM      7  C   UNL     1      -0.204   3.083   1.564  0.00  0.00    +0.256 A 
ATOM      8  O   UNL     1       0.655   3.674   0.930  0.00  0.00    -0.267 OA
ATOM      9  N   UNL     1      -2.613   3.708   4.160  0.00  0.00    -0.255 N 
ATOM     10  C   UNL     1      -3.580   3.037   4.869  0.00  0.00    +0.202 A 
ATOM     11  N   UNL     1      -4.298   3.701   5.814  0.00  0.00    -0.295 N 
ATOM     12  H   UNL     1      -4.126   4.641   5.984  0.00  0.00    +0.172 HD
ATOM     13  C   UNL     1      -5.250   3.049   6.515  0.00  0.00    +0.256 A 
ATOM     14  O   UNL     1      -5.902   3.629   7.367  0.00  0.00    -0.267 OA
ATOM     15  C   UNL     1      -5.474   1.687   6.245  0.00  0.00    +0.041 A 
ATOM     16  C   UNL     1      -4.723   1.073   5.285  0.00  0.00    +0.050 A 
ATOM     17  N   UNL     1      -3.799   1.762   4.618  0.00  0.00    -0.221 NA
ATOM     18  C   UNL     1      -4.943  -0.385   4.975  0.00  0.00    +0.066 C 
ATOM     19  C   UNL     1      -1.735  -0.360   1.810  0.00  0.00    +0.066 C 
ATOM     20  H   UNL     1      -2.448   4.647   4.335  0.00  0.00    +0.158 HD
ENDROOT
BRANCH  15  21
ATOM     21  C   UNL     1      -6.526   0.918   7.003  0.00  0.00    +0.026 C 
ATOM     22  C   UNL     1      -7.900   1.599   6.837  0.00  0.00    +0.008 C 
ATOM     23  C   UNL     1      -8.578   1.428   8.219  0.00  0.00    +0.001 C 
ATOM     24  C   UNL     1      -7.399   1.621   9.204  0.00  0.00    +0.001 C 
ATOM     25  C   UNL     1      -6.207   0.932   8.508  0.00  0.00    +0.008 C 
ENDBRANCH  15  21
BRANCH   1  26
ATOM     26  C   UNL     1       0.321   0.964   0.282  0.00  0.00    +0.077 C 
BRANCH  26  31
ATOM     27  C   UNL     1       5.209  -1.044   2.621  0.00  0.00    +0.044 C 
ATOM     28  C   UNL     1       3.934  -0.520   2.011  0.00  0.00    -0.050 A 
ATOM     29  C   UNL     1       2.811  -1.325   1.959  0.00  0.00    +0.003 A 
ATOM     30  C   UNL     1       1.642  -0.845   1.399  0.00  0.00    +0.004 A 
ATOM     31  C   UNL     1       1.596   0.441   0.892  0.00  0.00    -0.043 A 
ATOM     32  C   UNL     1       2.720   1.244   0.940  0.00  0.00    +0.004 A 
ATOM     33  C   UNL     1       3.888   0.765   1.504  0.00  0.00    +0.003 A 
ENDBRANCH  26  31
ENDBRANCH   1  26
TORSDOF 3
