REMARK  Name = ZINC00707670
REMARK  5 active torsions:
REMARK  status: ('A' for Active; 'I' for Inactive)
REMARK    1  A    between atoms: C_1  and  C_2
REMARK    2  A    between atoms: C_2  and  C_3
REMARK    3  A    between atoms: C_3  and  C_5
REMARK    4  A    between atoms: C_3  and  S_21
REMARK    5  A    between atoms: S_21  and  C_22
REMARK                            x       y       z     vdW  Elec       q    Type
REMARK                         _______ _______ _______ _____ _____    ______ ____
ROOT
ATOM      1  C   UNL     1      -0.696   1.600   1.292  0.00  0.00    +0.238 C 
ATOM      2  O   UNL     1      -1.617   2.382   1.181  0.00  0.00    -0.274 OA
ATOM      3  N   UNL     1      -0.379   1.099   2.503  0.00  0.00    -0.237 N 
ATOM      4  C   UNL     1       0.673   0.181   2.607  0.00  0.00    +0.055 A 
ATOM      5  C   UNL     1       0.881  -0.764   1.617  0.00  0.00    +0.025 A 
ATOM      6  C   UNL     1       1.924  -1.665   1.728  0.00  0.00    +0.002 A 
ATOM      7  C   UNL     1       2.768  -1.629   2.821  0.00  0.00    +0.001 A 
ATOM      8  C   UNL     1       2.575  -0.685   3.816  0.00  0.00    +0.017 A 
ATOM      9  C   UNL     1       1.533   0.218   3.710  0.00  0.00    +0.035 A 
ATOM     10  S   UNL     1       1.261   1.433   4.963  0.00  0.00    -0.086 S 
ATOM     11  C   UNL     1      -0.480   1.706   4.851  0.00  0.00    +0.035 A 
ATOM     12  C   UNL     1      -1.115   1.508   3.623  0.00  0.00    +0.055 A 
ATOM     13  C   UNL     1      -2.482   1.719   3.522  0.00  0.00    +0.025 A 
ATOM     14  C   UNL     1      -3.202   2.122   4.633  0.00  0.00    +0.002 A 
ATOM     15  C   UNL     1      -2.569   2.317   5.846  0.00  0.00    +0.001 A 
ATOM     16  C   UNL     1      -1.205   2.109   5.958  0.00  0.00    +0.017 A 
ENDROOT
BRANCH   1  17
ATOM     17  C   UNL     1       0.094   1.188   0.077  0.00  0.00    +0.140 C 
BRANCH  17  19
ATOM     18  C   UNL     1       1.779   2.962   0.581  0.00  0.00    +0.005 C 
ATOM     19  C   UNL     1       1.579   1.469   0.314  0.00  0.00    +0.020 C 
ENDBRANCH  17  19
BRANCH  17  20
ATOM     20  S   UNL     1      -0.476   2.129  -1.360  0.00  0.00    -0.087 S 
BRANCH  20  21
ATOM     21  C   UNL     1       0.393   1.287  -2.642  0.00  0.00    +0.126 C 
ATOM     22  N   UNL     1       1.121   0.221  -2.521  0.00  0.00    -0.270 NA
ATOM     23  C   UNL     1       1.785  -0.386  -3.651  0.00  0.00    +0.154 C 
ATOM     24  C   UNL     1       1.536   0.378  -4.971  0.00  0.00    +0.099 C 
ATOM     25  S   UNL     1       0.456   1.731  -4.366  0.00  0.00    -0.098 S 
ENDBRANCH  20  21
ENDBRANCH  17  20
ENDBRANCH   1  17
TORSDOF 4
