REMARK  Name = ZINC40150969
REMARK  9 active torsions:
REMARK  status: ('A' for Active; 'I' for Inactive)
REMARK    1  A    between atoms: C_1  and  C_2
REMARK    2  A    between atoms: C_5  and  N_17
REMARK    3  A    between atoms: C_6  and  C_8
REMARK    4  A    between atoms: C_12  and  C_14
REMARK    5  A    between atoms: C_18  and  C_20
REMARK    6  A    between atoms: C_20  and  C_21
REMARK    7  A    between atoms: C_21  and  C_22
REMARK    8  A    between atoms: C_22  and  C_23
REMARK    9  A    between atoms: C_23  and  C_24
REMARK                            x       y       z     vdW  Elec       q    Type
REMARK                         _______ _______ _______ _____ _____    ______ ____
ROOT
ATOM      1  N   UNL     1       0.013  -4.182  -0.052  0.00  0.00    -0.285 N 
ATOM      2  C   UNL     1      -0.119  -4.831  -1.225  0.00  0.00    +0.217 C 
ATOM      3  O   UNL     1      -0.143  -4.206  -2.265  0.00  0.00    -0.275 OA
ATOM      4  H   UNL     1       0.104  -4.685   0.773  0.00  0.00    +0.155 HD
ENDROOT
BRANCH   1   9
ATOM      5  C   UNL     1       0.053   1.496   0.065  0.00  0.00    +0.044 C 
ATOM      6  C   UNL     1       0.035  -0.011   0.034  0.00  0.00    -0.050 A 
ATOM      7  C   UNL     1       1.222  -0.717   0.131  0.00  0.00    +0.005 A 
ATOM      8  C   UNL     1       1.218  -2.097   0.103  0.00  0.00    +0.024 A 
ATOM      9  C   UNL     1       0.020  -2.786  -0.023  0.00  0.00    +0.044 A 
ATOM     10  C   UNL     1      -1.183  -2.075  -0.121  0.00  0.00    +0.040 A 
ATOM     11  C   UNL     1      -1.165  -0.680  -0.087  0.00  0.00    +0.016 A 
BRANCH  10  12
ATOM     12  C   UNL     1      -2.465  -2.798  -0.256  0.00  0.00    +0.158 A 
ATOM     13  N   UNL     1      -2.636  -4.138  -0.185  0.00  0.00    -0.258 N 
ATOM     14  H   UNL     1      -1.948  -4.806  -0.038  0.00  0.00    +0.191 HD
ATOM     15  N   UNL     1      -4.009  -4.370  -0.368  0.00  0.00    -0.157 NA
ATOM     16  C   UNL     1      -4.575  -3.203  -0.533  0.00  0.00    +0.154 A 
ATOM     17  N   UNL     1      -3.647  -2.252  -0.461  0.00  0.00    -0.211 NA
BRANCH  16  18
ATOM     18  C   UNL     1      -6.046  -2.971  -0.763  0.00  0.00    +0.059 C 
ATOM     19  C   UNL     1      -6.984  -4.170  -0.607  0.00  0.00    +0.012 C 
ATOM     20  C   UNL     1      -6.678  -3.614  -1.999  0.00  0.00    +0.012 C 
ENDBRANCH  16  18
ENDBRANCH  10  12
ENDBRANCH   1   9
BRANCH   2  21
ATOM     21  C   UNL     1      -0.239  -6.333  -1.246  0.00  0.00    +0.096 C 
BRANCH  21  22
ATOM     22  C   UNL     1      -0.377  -6.814  -2.692  0.00  0.00    +0.009 C 
BRANCH  22  23
ATOM     23  C   UNL     1      -0.498  -8.339  -2.714  0.00  0.00    +0.002 C 
BRANCH  23  24
ATOM     24  C   UNL     1      -0.637  -8.819  -4.160  0.00  0.00    +0.016 C 
BRANCH  24  25
ATOM     25  C   UNL     1      -0.758 -10.344  -4.181  0.00  0.00    +0.069 C 
ATOM     26  C   UNL     1      -0.864 -10.863  -5.592  0.00  0.00    +0.108 C 
ATOM     27  C   UNL     1      -1.630 -12.221  -5.567  0.00  0.00    +0.105 C 
ATOM     28  C   UNL     1      -2.990 -11.908  -4.946  0.00  0.00    +0.093 C 
ATOM     29  S   UNL     1      -2.387 -10.896  -3.490  0.00  0.00    -0.154 S 
ATOM     30  N   UNL     1      -1.502 -12.587  -6.959  0.00  0.00    -0.294 N 
ATOM     31  C   UNL     1      -0.294 -12.088  -7.358  0.00  0.00    +0.300 C 
ATOM     32  O   UNL     1       0.261 -12.411  -8.390  0.00  0.00    -0.253 OA
ATOM     33  N   UNL     1       0.223 -11.202  -6.463  0.00  0.00    -0.294 N 
ATOM     34  H   UNL     1      -2.139 -13.083  -7.497  0.00  0.00    +0.151 HD
ATOM     35  H   UNL     1       1.133 -10.869  -6.429  0.00  0.00    +0.151 HD
ENDBRANCH  24  25
ENDBRANCH  23  24
ENDBRANCH  22  23
ENDBRANCH  21  22
ENDBRANCH   2  21
TORSDOF 8
