REMARK  Name = ZINC56795160
REMARK  7 active torsions:
REMARK  status: ('A' for Active; 'I' for Inactive)
REMARK    1  A    between atoms: C_1  and  C_2
REMARK    2  A    between atoms: C_5  and  C_7
REMARK    3  A    between atoms: N_17  and  C_18
REMARK    4  A    between atoms: C_18  and  C_19
REMARK    5  A    between atoms: C_19  and  C_20
REMARK    6  A    between atoms: C_19  and  C_21
REMARK    7  A    between atoms: C_19  and  N_22
REMARK                            x       y       z     vdW  Elec       q    Type
REMARK                         _______ _______ _______ _____ _____    ______ ____
ROOT
ATOM      1  C   UNL     1       1.283  -3.845  -1.587  0.00  0.00    +0.253 C 
ATOM      2  O   UNL     1       0.542  -4.807  -1.659  0.00  0.00    -0.269 OA
ATOM      3  N   UNL     1       2.606  -4.026  -1.401  0.00  0.00    -0.294 N 
ATOM      4  C   UNL     1       3.491  -2.878  -1.158  0.00  0.00    +0.127 C 
ATOM      5  C   UNL     1       4.256  -3.118   0.149  0.00  0.00    +0.128 C 
ATOM      6  N   UNL     1       4.839  -4.466   0.112  0.00  0.00    -0.283 N 
ATOM      7  C   UNL     1       3.954  -5.614  -0.131  0.00  0.00    +0.128 C 
ATOM      8  C   UNL     1       3.188  -5.375  -1.433  0.00  0.00    +0.127 C 
ATOM      9  C   UNL     1       6.162  -4.647   0.298  0.00  0.00    +0.302 C 
ATOM     10  O   UNL     1       6.870  -3.701   0.584  0.00  0.00    -0.253 OA
ATOM     11  N   UNL     1       6.699  -5.876   0.166  0.00  0.00    -0.301 N 
ATOM     12  H   UNL     1       6.125  -6.642   0.007  0.00  0.00    +0.150 HD
ENDROOT
BRANCH   1  17
ATOM     13  C   UNL     1       0.266   1.568  -2.297  0.00  0.00    +0.051 C 
ATOM     14  C   UNL     1       0.272   0.083  -2.043  0.00  0.00    -0.013 A 
ATOM     15  C   UNL     1      -0.771  -0.704  -1.681  0.00  0.00    +0.011 A 
ATOM     16  C   UNL     1      -0.560  -2.049  -1.495  0.00  0.00    +0.021 A 
ATOM     17  C   UNL     1       0.738  -2.489  -1.702  0.00  0.00    +0.074 A 
ATOM     18  S   UNL     1       1.570  -0.978  -2.149  0.00  0.00    -0.089 S 
ENDBRANCH   1  17
BRANCH  11  19
ATOM     19  C   UNL     1       8.149  -6.056   0.262  0.00  0.00    +0.093 C 
BRANCH  19  20
ATOM     20  C   UNL     1       8.504  -7.513  -0.039  0.00  0.00    -0.055 C 
ATOM     21  C   UNL     1       7.999  -7.883  -1.435  0.00  0.00    -0.008 C 
ATOM     22  C   UNL     1      10.022  -7.691   0.018  0.00  0.00    -0.008 C 
BRANCH  20  23
ATOM     23  N   UNL     1       7.871  -8.387   0.959  0.00  0.00    +0.384 N 
ATOM     24  C   UNL     1       8.310  -7.991   2.302  0.00  0.00    -0.078 C 
ATOM     25  C   UNL     1       7.592  -8.845   3.349  0.00  0.00    -0.019 C 
ATOM     26  C   UNL     1       7.928 -10.320   3.115  0.00  0.00    -0.004 C 
ATOM     27  C   UNL     1       7.534 -10.703   1.685  0.00  0.00    -0.019 C 
ATOM     28  C   UNL     1       8.254  -9.780   0.700  0.00  0.00    -0.078 C 
ATOM     29  H   UNL     1       6.868  -8.297   0.895  0.00  0.00    -0.081 HD
ENDBRANCH  20  23
ENDBRANCH  19  20
ENDBRANCH  11  19
TORSDOF 4
