REMARK  Name = ZINC14985056
REMARK  5 active torsions:
REMARK  status: ('A' for Active; 'I' for Inactive)
REMARK    1  A    between atoms: C_1  and  C_2
REMARK    2  A    between atoms: C_3  and  C_18
REMARK    3  A    between atoms: N_7  and  C_8
REMARK    4  A    between atoms: C_8  and  C_9
REMARK    5  A    between atoms: N_21  and  C_23
REMARK                            x       y       z     vdW  Elec       q    Type
REMARK                         _______ _______ _______ _____ _____    ______ ____
ROOT
ATOM      1  C   UNL     1      -0.013   1.086   0.008  0.00  0.00    +0.067 C 
ATOM      2  C   UNL     1      -0.718   1.572   1.248  0.00  0.00    +0.057 A 
ATOM      3  C   UNL     1      -0.025   1.809   2.404  0.00  0.00    +0.063 A 
ATOM      4  S   UNL     1      -1.349   2.344   3.479  0.00  0.00    -0.051 S 
ATOM      5  C   UNL     1      -2.644   2.205   2.331  0.00  0.00    +0.159 A 
ATOM      6  N   UNL     1      -2.017   1.785   1.248  0.00  0.00    -0.229 NA
ATOM      7  N   UNL     1      -3.991   2.473   2.506  0.00  0.00    -0.319 N 
ATOM      8  H   UNL     1      -4.316   2.784   3.365  0.00  0.00    +0.148 HD
ENDROOT
BRANCH   3   9
ATOM      9  C   UNL     1       1.419   1.664   2.685  0.00  0.00    +0.101 A 
ATOM     10  C   UNL     1       2.056   1.938   3.914  0.00  0.00    +0.050 A 
ATOM     11  C   UNL     1       3.373   1.678   3.765  0.00  0.00    +0.115 A 
ATOM     12  N   UNL     1       3.575   1.262   2.488  0.00  0.00    -0.239 N 
ATOM     13  N   UNL     1       2.338   1.261   1.830  0.00  0.00    -0.166 NA
BRANCH  12  14
ATOM     14  C   UNL     1       4.806   0.897   1.926  0.00  0.00    +0.069 A 
ATOM     15  C   UNL     1       5.944   0.844   2.721  0.00  0.00    +0.031 A 
ATOM     16  C   UNL     1       7.158   0.484   2.169  0.00  0.00    +0.051 A 
ATOM     17  C   UNL     1       7.245   0.175   0.821  0.00  0.00    +0.166 A 
ATOM     18  C   UNL     1       6.105   0.227   0.021  0.00  0.00    +0.168 A 
ATOM     19  C   UNL     1       4.888   0.583   0.576  0.00  0.00    +0.077 A 
ATOM     20  O   UNL     1       6.451  -0.118  -1.254  0.00  0.00    -0.453 OA
ATOM     21  C   UNL     1       7.727  -0.776  -1.141  0.00  0.00    +0.466 C 
ATOM     22  O   UNL     1       8.304  -0.203   0.046  0.00  0.00    -0.453 OA
ENDBRANCH  12  14
ENDBRANCH   3   9
BRANCH   7  23
ATOM     23  C   UNL     1      -4.925   2.287   1.393  0.00  0.00    +0.138 C 
BRANCH  23  24
ATOM     24  C   UNL     1      -6.319   2.644   1.841  0.00  0.00    -0.028 A 
ATOM     25  C   UNL     1      -6.765   3.958   1.697  0.00  0.00    +0.007 A 
ATOM     26  C   UNL     1      -8.008   4.331   2.084  0.00  0.00    +0.031 A 
ATOM     27  C   UNL     1      -8.891   3.376   2.651  0.00  0.00    +0.100 A 
ATOM     28  C   UNL     1      -8.425   2.001   2.802  0.00  0.00    +0.100 A 
ATOM     29  C   UNL     1      -7.111   1.681   2.370  0.00  0.00    +0.035 A 
ATOM     30  N   UNL     1      -9.352   1.215   3.346  0.00  0.00    -0.191 NA
ATOM     31  S   UNL     1     -10.600   2.125   3.605  0.00  0.00    +0.116 S 
ATOM     32  N   UNL     1     -10.138   3.532   3.091  0.00  0.00    -0.191 NA
ENDBRANCH  23  24
ENDBRANCH   7  23
TORSDOF 4
