REMARK  Name = ZINC46772973
REMARK  7 active torsions:
REMARK  status: ('A' for Active; 'I' for Inactive)
REMARK    1  A    between atoms: C_5  and  C_7
REMARK    2  A    between atoms: C_9  and  C_12
REMARK    3  A    between atoms: C_12  and  C_13
REMARK    4  A    between atoms: N_15  and  N_16
REMARK    5  A    between atoms: N_16  and  C_17
REMARK    6  A    between atoms: C_17  and  N_19
REMARK    7  A    between atoms: N_19  and  C_20
REMARK                            x       y       z     vdW  Elec       q    Type
REMARK                         _______ _______ _______ _____ _____    ______ ____
ROOT
ATOM      1  C   UNL     1      -1.636  -4.957   1.060  0.00  0.00    +0.235 C 
ATOM      2  O   UNL     1      -1.219  -4.206   1.915  0.00  0.00    -0.274 OA
ATOM      3  N   UNL     1      -2.747  -5.687   1.287  0.00  0.00    -0.235 N 
ATOM      4  H   UNL     1      -3.080  -6.288   0.602  0.00  0.00    +0.173 HD
ENDROOT
BRANCH   3   5
ATOM      5  N   UNL     1      -3.418  -5.577   2.511  0.00  0.00    -0.246 N 
ATOM      6  H   UNL     1      -3.084  -4.977   3.196  0.00  0.00    +0.172 HD
BRANCH   5   7
ATOM      7  C   UNL     1      -4.528  -6.307   2.739  0.00  0.00    +0.151 C 
ATOM      8  S   UNL     1      -5.349  -6.173   4.235  0.00  0.00    -0.017 S 
BRANCH   7   9
ATOM      9  N   UNL     1      -4.992  -7.142   1.788  0.00  0.00    -0.295 N 
ATOM     10  H   UNL     1      -4.565  -7.172   0.917  0.00  0.00    +0.154 HD
BRANCH   9  11
ATOM     11  C   UNL     1      -6.091  -7.967   2.056  0.00  0.00    +0.051 A 
ATOM     12  C   UNL     1      -7.228  -7.438   2.653  0.00  0.00    +0.026 A 
ATOM     13  C   UNL     1      -8.311  -8.254   2.916  0.00  0.00    +0.022 A 
ATOM     14  C   UNL     1      -8.265  -9.597   2.586  0.00  0.00    +0.042 A 
ATOM     15  C   UNL     1      -7.133 -10.127   1.991  0.00  0.00    +0.041 A 
ATOM     16  C   UNL     1      -6.049  -9.315   1.720  0.00  0.00    +0.063 A 
ATOM     17 CL   UNL     1      -4.632  -9.978   0.968  0.00  0.00    -0.082 Cl
ATOM     18 CL   UNL     1      -9.628 -10.619   2.918  0.00  0.00    -0.083 Cl
ENDBRANCH   9  11
ENDBRANCH   7   9
ENDBRANCH   5   7
ENDBRANCH   3   5
BRANCH   1  19
ATOM     19  C   UNL     1      -0.914  -5.075  -0.258  0.00  0.00    +0.153 C 
BRANCH  19  22
ATOM     20  C   UNL     1       1.175  -2.058   0.009  0.00  0.00    +0.110 A 
ATOM     21  N   UNL     1       0.137  -2.883   0.001  0.00  0.00    -0.243 NA
ATOM     22  C   UNL     1       0.285  -4.162  -0.257  0.00  0.00    +0.058 A 
ATOM     23  C   UNL     1       1.521  -4.661  -0.521  0.00  0.00    +0.071 A 
ATOM     24  S   UNL     1       2.511  -3.177  -0.392  0.00  0.00    -0.075 S 
BRANCH  20  29
ATOM     25  C   UNL     1       0.085   1.445   0.812  0.00  0.00    +0.001 A 
ATOM     26  C   UNL     1       1.292   2.121   0.763  0.00  0.00    +0.001 A 
ATOM     27  C   UNL     1       2.460   1.442   0.469  0.00  0.00    +0.020 A 
ATOM     28  C   UNL     1       2.430   0.084   0.223  0.00  0.00    +0.051 A 
ATOM     29  C   UNL     1       1.216  -0.604   0.272  0.00  0.00    +0.025 A 
ATOM     30  C   UNL     1       0.041   0.088   0.569  0.00  0.00    +0.012 A 
ATOM     31 CL   UNL     1       3.898  -0.767  -0.146  0.00  0.00    -0.083 Cl
ENDBRANCH  20  29
ENDBRANCH  19  22
ENDBRANCH   1  19
TORSDOF 7
