REMARK  Name = ZINC62581095
REMARK  7 active torsions:
REMARK  status: ('A' for Active; 'I' for Inactive)
REMARK    1  A    between atoms: C_1  and  N_2
REMARK    2  A    between atoms: C_3  and  C_18
REMARK    3  A    between atoms: N_5  and  C_8
REMARK    4  A    between atoms: C_8  and  N_9
REMARK    5  A    between atoms: N_9  and  C_10
REMARK    6  A    between atoms: N_9  and  C_13
REMARK    7  A    between atoms: C_10  and  C_11
REMARK                            x       y       z     vdW  Elec       q    Type
REMARK                         _______ _______ _______ _____ _____    ______ ____
ROOT
ATOM      1  C   UNL     1      -0.354  -6.258   3.183  0.00  0.00    +0.153 C 
ATOM      2  N   UNL     1       0.563  -5.699   2.188  0.00  0.00    -0.306 N 
ATOM      3  C   UNL     1       1.748  -6.270   1.769  0.00  0.00    +0.163 A 
ATOM      4  N   UNL     1       2.292  -5.490   0.877  0.00  0.00    -0.152 NA
ATOM      5  N   UNL     1       1.453  -4.381   0.701  0.00  0.00    -0.257 N 
ATOM      6  C   UNL     1       0.393  -4.541   1.519  0.00  0.00    +0.176 A 
ATOM      7  S   UNL     1      -0.930  -3.466   1.681  0.00  0.00    -0.011 S 
ENDROOT
BRANCH   3   8
ATOM      8  C   UNL     1       2.308  -7.552   2.251  0.00  0.00    +0.019 A 
ATOM      9  C   UNL     1       3.463  -8.075   1.669  0.00  0.00    +0.013 A 
ATOM     10  C   UNL     1       3.980  -9.271   2.124  0.00  0.00    +0.021 A 
ATOM     11  C   UNL     1       3.356  -9.951   3.155  0.00  0.00    +0.041 A 
ATOM     12  C   UNL     1       2.209  -9.436   3.737  0.00  0.00    +0.021 A 
ATOM     13  C   UNL     1       1.686  -8.239   3.294  0.00  0.00    +0.013 A 
ATOM     14 CL   UNL     1       4.012 -11.455   3.722  0.00  0.00    -0.084 Cl
ENDBRANCH   3   8
BRANCH   5  15
ATOM     15  C   UNL     1       1.683  -3.256  -0.209  0.00  0.00    +0.072 C 
BRANCH  15  16
ATOM     16  N   UNL     1       1.411  -3.679  -1.589  0.00  0.00    +0.397 N 
ATOM     17  H   UNL     1       1.637  -2.927  -2.223  0.00  0.00    -0.078 HD
BRANCH  16  18
ATOM     18  C   UNL     1       2.230  -4.855  -1.912  0.00  0.00    -0.066 C 
ATOM     19  C   UNL     1       3.727  -4.490  -1.843  0.00  0.00    -0.015 C 
ATOM     20  C   UNL     1       4.368  -5.294  -3.002  0.00  0.00    -0.002 C 
ATOM     21  C   UNL     1       3.294  -5.205  -4.115  0.00  0.00    -0.002 C 
ATOM     22  C   UNL     1       1.954  -5.309  -3.356  0.00  0.00    -0.015 C 
ENDBRANCH  16  18
BRANCH  16  23
ATOM     23  C   UNL     1      -0.012  -4.021  -1.724  0.00  0.00    -0.049 C 
BRANCH  23  24
ATOM     24  C   UNL     1      -0.846  -2.779  -1.548  0.00  0.00    -0.053 C 
ATOM     25  C   UNL     1      -1.696  -2.423  -2.480  0.00  0.00    +0.002 C 
ENDBRANCH  23  24
ENDBRANCH  16  23
ENDBRANCH  15  16
ENDBRANCH   5  15
TORSDOF 6
