REMARK  Name = ZINC24913794
REMARK  4 active torsions:
REMARK  status: ('A' for Active; 'I' for Inactive)
REMARK    1  A    between atoms: C_1  and  C_2
REMARK    2  A    between atoms: C_5  and  C_8
REMARK    3  A    between atoms: C_15  and  C_17
REMARK    4  A    between atoms: C_17  and  N_18
REMARK                            x       y       z     vdW  Elec       q    Type
REMARK                         _______ _______ _______ _____ _____    ______ ____
ROOT
ATOM      1  C   UNL     1      -4.859   2.543   0.037  0.00  0.00    -0.003 C 
ENDROOT
BRANCH   1   2
ATOM      2  N   UNL     1      -5.342   2.557   1.424  0.00  0.00    +0.386 N 
ATOM      3  C   UNL     1      -5.047   1.285   2.098  0.00  0.00    -0.059 C 
ATOM      4  C   UNL     1      -5.493   1.368   3.559  0.00  0.00    +0.088 C 
ATOM      5  N   UNL     1      -6.931   1.668   3.613  0.00  0.00    -0.317 N 
ATOM      6  C   UNL     1      -7.227   2.940   2.940  0.00  0.00    +0.088 C 
ATOM      7  C   UNL     1      -6.780   2.856   1.478  0.00  0.00    -0.059 C 
ATOM      8  C   UNL     1      -7.386   1.681   4.920  0.00  0.00    +0.150 A 
ATOM      9  C   UNL     1      -7.210   0.563   5.754  0.00  0.00    +0.125 A 
ATOM     10  C   UNL     1      -7.684   0.640   7.074  0.00  0.00    +0.183 A 
ATOM     11  N   UNL     1      -7.379  -0.565   7.656  0.00  0.00    -0.216 NA
ATOM     12  H   UNL     1      -6.211  -0.948   4.634  0.00  0.00    +0.167 HD
ATOM     13  C   UNL     1      -6.767  -1.332   6.710  0.00  0.00    +0.199 A 
ATOM     14  N   UNL     1      -6.657  -0.664   5.598  0.00  0.00    -0.340 N 
ATOM     15  N   UNL     1      -8.283   1.754   7.482  0.00  0.00    -0.214 NA
ATOM     16  C   UNL     1      -8.432   2.774   6.663  0.00  0.00    +0.225 A 
ATOM     17  N   UNL     1      -7.994   2.752   5.417  0.00  0.00    -0.219 NA
ATOM     18  H   UNL     1      -4.808   3.357   1.959  0.00  0.00    -0.081 HD
ENDBRANCH   1   2
BRANCH   1  26
ATOM     19  C   UNL     1       1.177   1.792   0.000  0.00  0.00    -0.017 A 
ATOM     20  C   UNL     1       1.153   3.190   0.008  0.00  0.00    +0.012 A 
ATOM     21  C   UNL     1      -0.044   3.868   0.022  0.00  0.00    +0.047 A 
ATOM     22  C   UNL     1      -1.244   3.166   0.029  0.00  0.00    +0.135 A 
ATOM     23  C   UNL     1      -1.225   1.761   0.017  0.00  0.00    +0.021 A 
ATOM     24  C   UNL     1      -0.013   1.076   0.008  0.00  0.00    +0.020 A 
ATOM     25  C   UNL     1      -2.634   1.349   0.021  0.00  0.00    +0.051 A 
ATOM     26  C   UNL     1      -3.353   2.479   0.030  0.00  0.00    +0.090 A 
ATOM     27  O   UNL     1      -2.538   3.548   0.044  0.00  0.00    -0.462 OA
BRANCH  19  32
ATOM     28  C   UNL     1       6.215  -0.999  -0.060  0.00  0.00    +0.044 C 
ATOM     29  C   UNL     1       4.897  -0.269  -0.044  0.00  0.00    -0.050 A 
ATOM     30  C   UNL     1       4.875   1.115  -0.037  0.00  0.00    +0.004 A 
ATOM     31  C   UNL     1       3.671   1.788  -0.022  0.00  0.00    +0.009 A 
ATOM     32  C   UNL     1       2.475   1.073  -0.015  0.00  0.00    -0.018 A 
ATOM     33  C   UNL     1       2.503  -0.320  -0.016  0.00  0.00    +0.009 A 
ATOM     34  C   UNL     1       3.713  -0.984  -0.036  0.00  0.00    +0.004 A 
ENDBRANCH  19  32
ENDBRANCH   1  26
TORSDOF 3
