REMARK  Name = ZINC15733822
REMARK  7 active torsions:
REMARK  status: ('A' for Active; 'I' for Inactive)
REMARK    1  A    between atoms: C_1  and  C_2
REMARK    2  A    between atoms: C_7  and  S_8
REMARK    3  A    between atoms: S_8  and  N_11
REMARK    4  A    between atoms: N_11  and  C_12
REMARK    5  A    between atoms: C_12  and  C_13
REMARK    6  A    between atoms: C_18  and  C_19
REMARK    7  A    between atoms: C_18  and  N_64
REMARK                            x       y       z     vdW  Elec       q    Type
REMARK                         _______ _______ _______ _____ _____    ______ ____
ROOT
ATOM      1  S   UNL     1       1.049  -2.006   0.187  0.00  0.00    +0.059 S 
ATOM      2  O   UNL     1       0.323  -2.290  -1.001  0.00  0.00    -0.153 OA
ATOM      3  O   UNL     1       2.265  -2.667   0.513  0.00  0.00    -0.153 OA
ENDROOT
BRANCH   1  10
ATOM      4  C   UNL     1       2.455  -0.539   2.420  0.00  0.00    +0.046 C 
ATOM      5  C   UNL     1       2.057   0.304   1.236  0.00  0.00    -0.023 A 
ATOM      6  C   UNL     1       2.340   1.652   1.227  0.00  0.00    +0.016 A 
ATOM      7  C   UNL     1       1.972   2.431   0.133  0.00  0.00    +0.011 A 
ATOM      8  C   UNL     1       1.311   1.838  -0.959  0.00  0.00    +0.049 A 
ATOM      9  C   UNL     1       1.034   0.476  -0.930  0.00  0.00    +0.055 A 
ATOM     10  C   UNL     1       1.405  -0.281   0.160  0.00  0.00    +0.110 A 
ATOM     11  N   UNL     1       1.065   2.828  -1.893  0.00  0.00    -0.357 N 
ATOM     12  H   UNL     1       0.621   2.686  -2.743  0.00  0.00    +0.166 HD
ATOM     13  C   UNL     1       1.524   4.010  -1.461  0.00  0.00    +0.028 A 
ATOM     14  C   UNL     1       2.106   3.848  -0.213  0.00  0.00    +0.046 A 
ATOM     15  C   UNL     1       2.691   4.919   0.503  0.00  0.00    +0.165 C 
ATOM     16  O   UNL     1       3.160   4.754   1.611  0.00  0.00    -0.292 OA
ATOM     17  C   UNL     1       2.712   6.279  -0.162  0.00  0.00    +0.080 C 
ATOM     18  C   UNL     1       1.485   6.441  -1.060  0.00  0.00    +0.014 C 
ATOM     19  C   UNL     1       1.465   5.357  -2.144  0.00  0.00    +0.054 C 
ENDBRANCH   1  10
BRANCH   1  20
ATOM     20  N   UNL     1       0.012  -2.273   1.451  0.00  0.00    -0.190 NA
ATOM     21  H   UNL     1       0.302  -2.796   2.214  0.00  0.00    +0.148 HD
BRANCH  20  22
ATOM     22  C   UNL     1      -1.343  -1.717   1.415  0.00  0.00    +0.109 C 
BRANCH  22  23
ATOM     23  C   UNL     1      -2.193  -2.377   2.503  0.00  0.00    +0.001 C 
ATOM     24  C   UNL     1      -2.365  -3.865   2.186  0.00  0.00    -0.014 C 
ATOM     25  C   UNL     1      -3.265  -4.507   3.244  0.00  0.00    -0.078 C 
ATOM     26  C   UNL     1      -4.437  -2.415   3.597  0.00  0.00    -0.078 C 
ATOM     27  C   UNL     1      -3.571  -1.711   2.550  0.00  0.00    -0.014 C 
ATOM     28  N   UNL     1      -4.583  -3.837   3.221  0.00  0.00    +0.382 N 
ATOM     29  H   UNL     1      -4.969  -3.893   2.271  0.00  0.00    -0.081 HD
BRANCH  28  30
ATOM     30  C   UNL     1      -5.508  -4.513   4.154  0.00  0.00    -0.043 C 
BRANCH  30  31
ATOM     31  C   UNL     1      -5.437  -6.002   3.929  0.00  0.00    -0.061 A 
ATOM     32  C   UNL     1      -6.269  -6.601   3.002  0.00  0.00    +0.002 A 
ATOM     33  C   UNL     1      -6.201  -7.965   2.791  0.00  0.00    +0.003 A 
ATOM     34  C   UNL     1      -5.309  -8.734   3.514  0.00  0.00    +0.038 A 
ATOM     35  C   UNL     1      -4.478  -8.135   4.446  0.00  0.00    +0.124 A 
ATOM     36  C   UNL     1      -4.544  -6.768   4.653  0.00  0.00    +0.040 A 
ATOM     37  F   UNL     1      -3.606  -8.885   5.154  0.00  0.00    -0.205 F 
ENDBRANCH  30  31
ENDBRANCH  28  30
ENDBRANCH  22  23
ENDBRANCH  20  22
ENDBRANCH   1  20
TORSDOF 6
