REMARK  Name = ZINC12897477
REMARK  3 active torsions:
REMARK  status: ('A' for Active; 'I' for Inactive)
REMARK    1  A    between atoms: C_6  and  C_7
REMARK    2  A    between atoms: C_7  and  C_8
REMARK    3  A    between atoms: C_14  and  C_16
REMARK                            x       y       z     vdW  Elec       q    Type
REMARK                         _______ _______ _______ _____ _____    ______ ____
ROOT
ATOM      1  C   UNL     1      -2.938   0.714   1.441  0.00  0.00    +0.015 A 
ATOM      2  C   UNL     1      -3.712   1.462   2.266  0.00  0.00    +0.124 A 
ATOM      3  N   UNL     1      -3.949   1.012   3.483  0.00  0.00    -0.233 NA
ATOM      4  C   UNL     1      -3.441  -0.131   3.901  0.00  0.00    +0.165 A 
ATOM      5  S   UNL     1      -2.554  -0.667   2.508  0.00  0.00    -0.057 S 
ATOM      6  N   UNL     1      -3.580  -0.748   5.137  0.00  0.00    -0.259 N 
ATOM      7  C   UNL     1      -4.320  -0.165   6.101  0.00  0.00    +0.270 C 
ATOM      8  O   UNL     1      -4.865   0.900   5.889  0.00  0.00    -0.268 OA
ATOM      9  H   UNL     1      -3.144  -1.598   5.307  0.00  0.00    +0.157 HD
ENDROOT
BRANCH   7  10
ATOM     10  C   UNL     1      -4.468  -0.822   7.418  0.00  0.00    +0.146 A 
ATOM     11  C   UNL     1      -5.245  -0.208   8.429  0.00  0.00    +0.040 A 
ATOM     12  C   UNL     1      -5.359  -0.843   9.630  0.00  0.00    +0.074 A 
ATOM     13  C   UNL     1      -4.692  -2.077   9.792  0.00  0.00    +0.265 A 
ATOM     14  O   UNL     1      -4.765  -2.681  10.849  0.00  0.00    -0.266 OA
ATOM     15  N   UNL     1      -3.974  -2.583   8.771  0.00  0.00    -0.243 N 
ATOM     16  H   UNL     1      -3.519  -3.431   8.889  0.00  0.00    +0.192 HD
ATOM     17  N   UNL     1      -3.881  -1.976   7.644  0.00  0.00    -0.166 NA
ENDBRANCH   7  10
BRANCH   1  18
ATOM     18  C   UNL     1      -2.513   0.979   0.020  0.00  0.00    +0.079 C 
BRANCH  18  24
ATOM     19  C   UNL     1      -1.240   3.133   0.030  0.00  0.00    +0.007 A 
ATOM     20  C   UNL     1      -0.053   3.843   0.022  0.00  0.00    +0.041 A 
ATOM     21  C   UNL     1       1.156   3.171   0.008  0.00  0.00    +0.158 A 
ATOM     22  C   UNL     1       1.176   1.784   0.000  0.00  0.00    +0.159 A 
ATOM     23  C   UNL     1      -0.013   1.076   0.008  0.00  0.00    +0.045 A 
ATOM     24  C   UNL     1      -1.219   1.751   0.017  0.00  0.00    -0.040 A 
ATOM     25  F   UNL     1       2.356   1.125  -0.013  0.00  0.00    -0.202 F 
ATOM     26  F   UNL     1       2.315   3.864   0.001  0.00  0.00    -0.202 F 
ENDBRANCH  18  24
ENDBRANCH   1  18
TORSDOF 3
