REMARK  Name = ZINC13127659
REMARK  7 active torsions:
REMARK  status: ('A' for Active; 'I' for Inactive)
REMARK    1  A    between atoms: C_1  and  C_2
REMARK    2  A    between atoms: C_9  and  C_11
REMARK    3  A    between atoms: C_14  and  S_16
REMARK    4  A    between atoms: S_16  and  C_17
REMARK    5  A    between atoms: C_17  and  C_19
REMARK    6  A    between atoms: C_17  and  C_20
REMARK    7  A    between atoms: N_22  and  C_23
REMARK                            x       y       z     vdW  Elec       q    Type
REMARK                         _______ _______ _______ _____ _____    ______ ____
ROOT
ATOM      1  S   UNL     1      -0.025   1.761   0.013  0.00  0.00    -0.053 S 
ENDROOT
BRANCH   1   5
ATOM      2  C   UNL     1      -0.605  -2.076   0.020  0.00  0.00    +0.256 A 
ATOM      3  N   UNL     1       0.706  -2.001   0.012  0.00  0.00    -0.106 NA
ATOM      4  N   UNL     1       1.063  -0.765   0.004  0.00  0.00    -0.101 NA
ATOM      5  C   UNL     1      -0.004  -0.001   0.015  0.00  0.00    +0.278 A 
ATOM      6  O   UNL     1      -1.081  -0.810   0.021  0.00  0.00    -0.410 OA
BRANCH   2  14
ATOM      7  C   UNL     1      -2.446  -9.429   0.342  0.00  0.00    +0.008 C 
ATOM      8  C   UNL     1      -2.750  -7.938   0.503  0.00  0.00    -0.009 C 
ATOM      9  C   UNL     1      -3.985  -7.581  -0.329  0.00  0.00    +0.009 C 
ATOM     10  C   UNL     1      -4.437  -6.162   0.045  0.00  0.00    +0.043 C 
ATOM     11  C   UNL     1      -3.238  -5.269   0.038  0.00  0.00    -0.006 A 
ATOM     12  C   UNL     1      -1.926  -5.643   0.031  0.00  0.00    -0.036 A 
ATOM     13  C   UNL     1      -0.985  -4.621   0.024  0.00  0.00    +0.024 A 
ATOM     14  C   UNL     1      -1.407  -3.308   0.026  0.00  0.00    +0.076 A 
ATOM     15  S   UNL     1      -3.183  -3.497   0.044  0.00  0.00    -0.088 S 
ATOM     16  C   UNL     1      -1.547  -7.121   0.031  0.00  0.00    +0.039 C 
ENDBRANCH   2  14
ENDBRANCH   1   5
BRANCH   1  17
ATOM     17  C   UNL     1       1.754   2.096   0.003  0.00  0.00    +0.139 C 
ATOM     18  C   UNL     1       2.361   1.590  -1.307  0.00  0.00    +0.029 C 
BRANCH  17  19
ATOM     19  C   UNL     1       1.987   3.580   0.124  0.00  0.00    +0.230 C 
ATOM     20  O   UNL     1       1.098   4.358  -0.151  0.00  0.00    -0.274 OA
ATOM     21  N   UNL     1       3.183   4.043   0.538  0.00  0.00    -0.284 N 
ATOM     22  H   UNL     1       3.872   3.422   0.822  0.00  0.00    +0.155 HD
BRANCH  21  23
ATOM     23  C   UNL     1       3.431   5.421   0.559  0.00  0.00    +0.037 A 
ATOM     24  C   UNL     1       4.701   5.903   0.267  0.00  0.00    +0.027 A 
ATOM     25  C   UNL     1       4.946   7.262   0.283  0.00  0.00    +0.051 A 
ATOM     26  C   UNL     1       3.929   8.149   0.599  0.00  0.00    +0.166 A 
ATOM     27  C   UNL     1       2.656   7.669   0.897  0.00  0.00    +0.168 A 
ATOM     28  C   UNL     1       2.410   6.306   0.877  0.00  0.00    +0.072 A 
ATOM     29  O   UNL     1       1.843   8.730   1.172  0.00  0.00    -0.453 OA
ATOM     30  C   UNL     1       2.728   9.834   1.438  0.00  0.00    +0.466 C 
ATOM     31  O   UNL     1       3.913   9.512   0.686  0.00  0.00    -0.453 OA
ENDBRANCH  21  23
ENDBRANCH  17  19
ENDBRANCH   1  17
TORSDOF 5
