REMARK  Name = ZINC06931505
REMARK  8 active torsions:
REMARK  status: ('A' for Active; 'I' for Inactive)
REMARK    1  A    between atoms: C_1  and  C_2
REMARK    2  A    between atoms: C_6  and  N_8
REMARK    3  A    between atoms: N_8  and  C_9
REMARK    4  A    between atoms: C_10  and  C_12
REMARK    5  A    between atoms: C_12  and  N_13
REMARK    6  A    between atoms: N_13  and  C_14
REMARK    7  A    between atoms: N_13  and  S_15
REMARK    8  A    between atoms: S_15  and  C_18
REMARK                            x       y       z     vdW  Elec       q    Type
REMARK                         _______ _______ _______ _____ _____    ______ ____
ROOT
ATOM      1  S   UNL     1      -1.683  -7.082   3.322  0.00  0.00    +0.061 S 
ATOM      2  O   UNL     1      -1.461  -8.456   3.609  0.00  0.00    -0.153 OA
ATOM      3  O   UNL     1      -2.587  -6.283   4.073  0.00  0.00    -0.153 OA
ENDROOT
BRANCH   1   4
ATOM      4  C   UNL     1      -2.211  -6.997   1.643  0.00  0.00    +0.106 A 
ATOM      5  C   UNL     1      -2.957  -5.909   1.211  0.00  0.00    +0.030 A 
ATOM      6  C   UNL     1      -3.380  -5.824  -0.098  0.00  0.00    +0.028 A 
ATOM      7  C   UNL     1      -3.056  -6.835  -0.996  0.00  0.00    +0.047 A 
ATOM      8  C   UNL     1      -2.299  -7.936  -0.553  0.00  0.00    +0.005 A 
ATOM      9  C   UNL     1      -1.877  -7.999   0.777  0.00  0.00    +0.038 A 
ATOM     10  C   UNL     1      -2.135  -8.802  -1.717  0.00  0.00    -0.019 A 
ATOM     11  C   UNL     1      -2.768  -8.212  -2.749  0.00  0.00    +0.020 A 
ATOM     12  N   UNL     1      -3.323  -7.035  -2.333  0.00  0.00    -0.358 N 
ATOM     13  H   UNL     1      -3.831  -6.429  -2.896  0.00  0.00    +0.166 HD
ATOM     14  C   UNL     1      -2.827  -8.798  -4.141  0.00  0.00    +0.053 C 
ATOM     15  C   UNL     1      -1.743  -9.875  -4.262  0.00  0.00    +0.006 C 
ATOM     16  C   UNL     1      -1.845 -10.839  -3.077  0.00  0.00    +0.005 C 
ATOM     17  C   UNL     1      -1.406 -10.118  -1.797  0.00  0.00    +0.037 C 
ENDBRANCH   1   4
BRANCH   1  18
ATOM     18  N   UNL     1      -0.207  -6.335   3.410  0.00  0.00    -0.171 NA
ATOM     19  C   UNL     1       1.019  -7.112   3.213  0.00  0.00    +0.132 C 
BRANCH  18  20
ATOM     20  C   UNL     1      -0.129  -4.898   3.686  0.00  0.00    +0.205 C 
BRANCH  20  23
ATOM     21  N   UNL     1       0.052  -2.797   2.393  0.00  0.00    -0.273 N 
ATOM     22  C   UNL     1       0.165  -2.077   3.663  0.00  0.00    +0.138 C 
ATOM     23  C   UNL     1      -0.031  -4.143   2.385  0.00  0.00    +0.235 C 
ATOM     24  O   UNL     1      -0.028  -4.745   1.333  0.00  0.00    -0.274 OA
BRANCH  21  30
ATOM     25  C   UNL     1      -2.233   0.322  -0.643  0.00  0.00    +0.044 C 
ATOM     26  C   UNL     1      -1.065  -0.569  -0.311  0.00  0.00    -0.049 A 
ATOM     27  C   UNL     1      -0.011  -0.688  -1.199  0.00  0.00    +0.003 A 
ATOM     28  C   UNL     1       1.063  -1.505  -0.898  0.00  0.00    +0.002 A 
ATOM     29  C   UNL     1       1.087  -2.205   0.292  0.00  0.00    +0.023 A 
ATOM     30  C   UNL     1       0.031  -2.089   1.186  0.00  0.00    +0.036 A 
ATOM     31  C   UNL     1      -1.044  -1.263   0.883  0.00  0.00    +0.027 A 
ENDBRANCH  21  30
ENDBRANCH  20  23
ENDBRANCH  18  20
ENDBRANCH   1  18
TORSDOF 5
