REMARK  Name = ZINC21322568
REMARK  8 active torsions:
REMARK  status: ('A' for Active; 'I' for Inactive)
REMARK    1  A    between atoms: C_1  and  C_2
REMARK    2  A    between atoms: C_2  and  C_3
REMARK    3  A    between atoms: C_3  and  C_21
REMARK    4  A    between atoms: N_4  and  N_5
REMARK    5  A    between atoms: C_9  and  S_12
REMARK    6  A    between atoms: N_10  and  N_11
REMARK    7  A    between atoms: S_12  and  C_13
REMARK    8  A    between atoms: C_13  and  C_14
REMARK                            x       y       z     vdW  Elec       q    Type
REMARK                         _______ _______ _______ _____ _____    ______ ____
ROOT
ATOM      1  N   UNL     1       3.403  -1.105   0.071  0.00  0.00    -0.204 N 
ATOM      2  C   UNL     1       3.199  -2.473   0.178  0.00  0.00    +0.254 A 
ATOM      3  N   UNL     1       2.036  -3.079   0.204  0.00  0.00    -0.109 NA
ATOM      4  N   UNL     1       2.268  -4.456   0.319  0.00  0.00    -0.119 NA
ATOM      5  C   UNL     1       3.566  -4.646   0.360  0.00  0.00    +0.210 A 
ATOM      6  N   UNL     1       4.174  -3.427   0.269  0.00  0.00    -0.211 N 
ATOM      7  H   UNL     1       4.426  -0.701   0.058  0.00  0.00    +0.178 HD
ENDROOT
BRANCH   6   8
ATOM      8  N   UNL     1       5.521  -3.200   0.271  0.00  0.00    -0.294 N 
ATOM      9  H   UNL     1       6.221  -4.045   0.348  0.00  0.00    +0.163 HD
ATOM     10  H   UNL     1       5.906  -2.172   0.194  0.00  0.00    +0.163 HD
ENDBRANCH   6   8
BRANCH   1  12
ATOM     11  C   UNL     1       2.493   1.047  -0.025  0.00  0.00    +0.066 C 
ATOM     12  N   UNL     1       2.306  -0.238  -0.020  0.00  0.00    -0.184 NA
BRANCH  11  13
ATOM     13  C   UNL     1       1.336   1.960   0.007  0.00  0.00    -0.002 A 
ATOM     14  C   UNL     1       0.037   1.447   0.043  0.00  0.00    +0.010 A 
ATOM     15  C   UNL     1      -1.040   2.307   0.068  0.00  0.00    +0.001 A 
ATOM     16  C   UNL     1      -0.837   3.676   0.069  0.00  0.00    +0.000 A 
ATOM     17  C   UNL     1       0.446   4.192   0.033  0.00  0.00    +0.001 A 
ATOM     18  C   UNL     1       1.533   3.343   0.002  0.00  0.00    +0.010 A 
ENDBRANCH  11  13
BRANCH  11  20
ATOM     19  C   UNL     1       4.412   1.778   1.364  0.00  0.00    +0.010 C 
ATOM     20  C   UNL     1       3.892   1.605  -0.064  0.00  0.00    +0.054 C 
ENDBRANCH  11  20
ENDBRANCH   1  12
BRANCH   5  21
ATOM     21  S   UNL     1       4.380  -6.202   0.501  0.00  0.00    -0.080 S 
BRANCH  21  22
ATOM     22  C   UNL     1       3.022  -7.404   0.570  0.00  0.00    +0.112 C 
BRANCH  22  23
ATOM     23  C   UNL     1       3.589  -8.795   0.693  0.00  0.00    -0.036 A 
ATOM     24  C   UNL     1       3.824  -9.337   1.942  0.00  0.00    +0.004 A 
ATOM     25  C   UNL     1       4.343 -10.614   2.056  0.00  0.00    +0.001 A 
ATOM     26  C   UNL     1       4.626 -11.348   0.919  0.00  0.00    +0.015 A 
ATOM     27  C   UNL     1       4.391 -10.806  -0.331  0.00  0.00    +0.018 A 
ATOM     28  C   UNL     1       3.866  -9.530  -0.444  0.00  0.00    +0.019 A 
ATOM     29 BR   UNL     1       4.778 -11.810  -1.886  0.00  0.00    -0.050 Br
ENDBRANCH  22  23
ENDBRANCH  21  22
ENDBRANCH   5  21
TORSDOF 7
