REMARK  Name = ZINC67517579
REMARK  7 active torsions:
REMARK  status: ('A' for Active; 'I' for Inactive)
REMARK    1  A    between atoms: C_1  and  C_2
REMARK    2  A    between atoms: C_6  and  C_30
REMARK    3  A    between atoms: C_7  and  C_12
REMARK    4  A    between atoms: C_8  and  C_11
REMARK    5  A    between atoms: C_12  and  C_13
REMARK    6  A    between atoms: C_13  and  C_14
REMARK    7  A    between atoms: C_26  and  C_29
REMARK                            x       y       z     vdW  Elec       q    Type
REMARK                         _______ _______ _______ _____ _____    ______ ____
ROOT
ATOM      1  C   UNL     1      -1.336  -6.328   1.493  0.00  0.00    +0.101 C 
ENDROOT
BRANCH   1   2
ATOM      2  C   UNL     1      -1.321  -7.610   2.285  0.00  0.00    +0.216 C 
ATOM      3  O   UNL     1      -0.272  -8.054   2.702  0.00  0.00    -0.276 OA
ATOM      4  N   UNL     1      -2.475  -8.263   2.531  0.00  0.00    -0.298 N 
ATOM      5  C   UNL     1      -3.769  -7.661   2.180  0.00  0.00    +0.108 C 
ATOM      6  C   UNL     1      -4.560  -8.652   1.321  0.00  0.00    +0.019 C 
ATOM      7  C   UNL     1      -4.662  -9.994   2.051  0.00  0.00    +0.007 C 
ATOM      8  C   UNL     1      -3.254 -10.560   2.270  0.00  0.00    +0.010 C 
ATOM      9  C   UNL     1      -2.466  -9.593   3.150  0.00  0.00    +0.079 C 
ATOM     10  C   UNL     1      -1.032 -10.085   3.322  0.00  0.00    +0.023 C 
ATOM     11  C   UNL     1      -0.356 -10.207   1.956  0.00  0.00    +0.005 C 
ATOM     12  C   UNL     1      -1.139 -11.201   1.094  0.00  0.00    -0.014 C 
ATOM     13  C   UNL     1      -2.568 -10.712   0.910  0.00  0.00    +0.008 C 
ATOM     14  C   UNL     1      -0.458 -11.341  -0.269  0.00  0.00    +0.007 C 
ENDBRANCH   1   2
BRANCH   1  15
ATOM     15  C   UNL     1       0.092  -5.796   1.358  0.00  0.00    +0.048 C 
BRANCH  15  22
ATOM     16  C   UNL     1      -0.041   1.411  -0.341  0.00  0.00    +0.067 C 
ATOM     17  C   UNL     1      -0.008  -0.094  -0.285  0.00  0.00    +0.062 A 
ATOM     18  C   UNL     1       0.032  -0.940  -1.383  0.00  0.00    +0.073 A 
ATOM     19  C   UNL     1       0.053  -2.245  -0.909  0.00  0.00    +0.156 A 
ATOM     20  N   UNL     1       0.092  -3.433  -1.526  0.00  0.00    -0.233 NA
ATOM     21  C   UNL     1       0.105  -4.549  -0.836  0.00  0.00    +0.045 A 
ATOM     22  C   UNL     1       0.078  -4.514   0.566  0.00  0.00    -0.005 A 
ATOM     23  C   UNL     1       0.039  -3.318   1.202  0.00  0.00    +0.047 A 
ATOM     24  N   UNL     1       0.026  -2.172   0.461  0.00  0.00    -0.218 N 
ATOM     25  N   UNL     1      -0.006  -0.818   0.812  0.00  0.00    -0.170 NA
ATOM     26  C   UNL     1       0.009  -3.255   2.707  0.00  0.00    +0.066 C 
ATOM     27  C   UNL     1       0.149  -5.874  -1.552  0.00  0.00    +0.066 C 
ENDBRANCH  15  22
ENDBRANCH   1  15
TORSDOF 3
