REMARK  Name = ZINC08452221
REMARK  13 active torsions:
REMARK  status: ('A' for Active; 'I' for Inactive)
REMARK    1  A    between atoms: C_1  and  C_2
REMARK    2  A    between atoms: C_2  and  O_3
REMARK    3  A    between atoms: O_3  and  C_4
REMARK    4  A    between atoms: C_9  and  C_10
REMARK    5  A    between atoms: C_12  and  C_33
REMARK    6  A    between atoms: C_13  and  C_32
REMARK    7  A    between atoms: C_20  and  C_21
REMARK    8  A    between atoms: C_25  and  O_27
REMARK    9  A    between atoms: O_27  and  C_28
REMARK   10  A    between atoms: C_28  and  C_29
REMARK   11  A    between atoms: C_33  and  O_35
REMARK   12  A    between atoms: O_35  and  C_36
REMARK   13  A    between atoms: C_36  and  C_37
REMARK                            x       y       z     vdW  Elec       q    Type
REMARK                         _______ _______ _______ _____ _____    ______ ____
ROOT
ATOM      1  C   UNL     1       0.357   5.550   1.611  0.00  0.00    +0.165 C 
ATOM      2  C   UNL     1      -0.363   4.519   2.449  0.00  0.00    +0.085 C 
ATOM      3  C   UNL     1      -1.357   4.948   3.283  0.00  0.00    +0.053 C 
ATOM      4  N   UNL     1      -1.666   6.237   3.356  0.00  0.00    -0.228 NA
ATOM      5  C   UNL     1      -1.088   7.184   2.663  0.00  0.00    +0.178 A 
ATOM      6  N   UNL     1      -0.070   6.969   1.763  0.00  0.00    -0.275 N 
ATOM      7  C   UNL     1       0.445   8.019   1.111  0.00  0.00    +0.268 A 
ATOM      8  O   UNL     1       1.346   7.878   0.305  0.00  0.00    -0.266 OA
ATOM      9  C   UNL     1      -0.113   9.350   1.399  0.00  0.00    +0.081 A 
ATOM     10  C   UNL     1       0.227  10.558   0.881  0.00  0.00    +0.028 C 
ATOM     11  S   UNL     1      -1.358   8.945   2.613  0.00  0.00    -0.046 S 
ATOM     12  C   UNL     1      -2.104   3.951   4.130  0.00  0.00    +0.066 C 
ENDROOT
BRANCH   1  18
ATOM     13  C   UNL     1       2.299   5.997   3.133  0.00  0.00    +0.126 A 
ATOM     14  C   UNL     1       3.652   5.923   3.433  0.00  0.00    +0.046 A 
ATOM     15  C   UNL     1       4.523   5.324   2.545  0.00  0.00    +0.004 A 
ATOM     16  C   UNL     1       4.049   4.801   1.356  0.00  0.00    +0.001 A 
ATOM     17  C   UNL     1       2.701   4.869   1.057  0.00  0.00    +0.009 A 
ATOM     18  C   UNL     1       1.826   5.471   1.940  0.00  0.00    +0.022 A 
BRANCH  13  19
ATOM     19  O   UNL     1       1.439   6.585   4.006  0.00  0.00    -0.492 OA
BRANCH  19  21
ATOM     20  C   UNL     1       0.890   7.705   6.076  0.00  0.00    +0.048 C 
ATOM     21  C   UNL     1       2.010   7.202   5.162  0.00  0.00    +0.225 C 
ENDBRANCH  19  21
ENDBRANCH  13  19
ENDBRANCH   1  18
BRANCH  10  22
ATOM     22  C   UNL     1       1.170  10.636  -0.244  0.00  0.00    -0.020 A 
ATOM     23  C   UNL     1       1.102   9.702  -1.284  0.00  0.00    +0.008 A 
ATOM     24  C   UNL     1       1.986   9.783  -2.340  0.00  0.00    +0.004 A 
ATOM     25  C   UNL     1       2.946  10.779  -2.370  0.00  0.00    +0.046 A 
ATOM     26  C   UNL     1       3.025  11.708  -1.340  0.00  0.00    +0.122 A 
ATOM     27  C   UNL     1       2.141  11.642  -0.277  0.00  0.00    +0.053 A 
BRANCH  26  28
ATOM     28  O   UNL     1       3.971  12.683  -1.377  0.00  0.00    -0.481 OA
BRANCH  28  29
ATOM     29  C   UNL     1       4.850  12.692  -2.504  0.00  0.00    +0.353 C 
BRANCH  29  30
ATOM     30  C   UNL     1       5.824  13.834  -2.372  0.00  0.00    +0.393 C 
ATOM     31  O   UNL     1       5.770  14.566  -1.412  0.00  0.00    -0.243 OA
ATOM     32  O   UNL     1       6.750  14.039  -3.322  0.00  0.00    -0.243 OA
ENDBRANCH  29  30
ENDBRANCH  28  29
ENDBRANCH  26  28
ENDBRANCH  10  22
BRANCH   2  33
ATOM     33  C   UNL     1      -0.024   3.158   2.369  0.00  0.00    +0.339 C 
ATOM     34  O   UNL     1      -0.521   2.360   3.144  0.00  0.00    -0.245 OA
BRANCH  33  35
ATOM     35  O   UNL     1       0.851   2.733   1.432  0.00  0.00    -0.462 OA
BRANCH  35  36
ATOM     36  C   UNL     1       1.065   1.324   1.334  0.00  0.00    +0.229 C 
ATOM     37  C   UNL     1       2.169   1.045   0.313  0.00  0.00    +0.048 C 
ENDBRANCH  35  36
ENDBRANCH  33  35
ENDBRANCH   2  33
TORSDOF 10
