REMARK  Name = ZINC15069775
REMARK  13 active torsions:
REMARK  status: ('A' for Active; 'I' for Inactive)
REMARK    1  A    between atoms: C_1  and  C_2
REMARK    2  A    between atoms: C_2  and  C_3
REMARK    3  A    between atoms: C_2  and  C_4
REMARK    4  A    between atoms: C_2  and  C_25
REMARK    5  A    between atoms: C_4  and  N_5
REMARK    6  A    between atoms: C_6  and  C_12
REMARK    7  A    between atoms: C_12  and  C_13
REMARK    8  A    between atoms: C_13  and  N_58
REMARK    9  A    between atoms: C_14  and  C_15
REMARK   10  A    between atoms: C_14  and  N_58
REMARK   11  A    between atoms: C_25  and  N_61
REMARK   12  A    between atoms: C_26  and  N_61
REMARK   13  A    between atoms: C_27  and  N_61
REMARK                            x       y       z     vdW  Elec       q    Type
REMARK                         _______ _______ _______ _____ _____    ______ ____
ROOT
ATOM      1  C   UNL     1       3.514   0.961   1.497  0.00  0.00    +0.003 C 
ENDROOT
BRANCH   1   3
ATOM      2  N   UNL     1       5.903   0.494   1.847  0.00  0.00    -0.298 N 
ATOM      3  C   UNL     1       4.562  -0.102   1.834  0.00  0.00    +0.075 C 
ATOM      4  C   UNL     1       4.337  -0.641   3.264  0.00  0.00    +0.031 C 
ATOM      5  C   UNL     1       5.276   0.264   4.094  0.00  0.00    +0.098 C 
ATOM      6  C   UNL     1       6.327   0.715   3.103  0.00  0.00    +0.216 C 
ATOM      7  O   UNL     1       7.396   1.206   3.399  0.00  0.00    -0.276 OA
BRANCH   2   8
ATOM      8  C   UNL     1       6.680   0.807   0.645  0.00  0.00    +0.112 C 
BRANCH   8  10
ATOM      9  C   UNL     1       8.449  -0.774   1.426  0.00  0.00    +0.010 C 
ATOM     10  C   UNL     1       7.533  -0.403   0.259  0.00  0.00    -0.034 C 
ATOM     11  C   UNL     1       6.620  -1.586  -0.069  0.00  0.00    +0.010 C 
BRANCH  10  12
ATOM     12  C   UNL     1       8.382  -0.058  -0.967  0.00  0.00    -0.072 C 
BRANCH  12  15
ATOM     13  C   UNL     1       9.425  -1.177  -2.843  0.00  0.00    -0.097 C 
ATOM     14  C   UNL     1      10.324  -1.460  -0.613  0.00  0.00    -0.097 C 
ATOM     15  N   UNL     1       9.091  -1.278  -1.407  0.00  0.00    +0.376 N 
ATOM     16  H   UNL     1       8.479  -2.090  -1.264  0.00  0.00    -0.083 HD
ENDBRANCH  12  15
ENDBRANCH  10  12
ENDBRANCH   8  10
ENDBRANCH   2   8
ENDBRANCH   1   3
BRANCH   1  17
ATOM     17  C   UNL     1       3.750   1.478   0.077  0.00  0.00    -0.080 C 
BRANCH  17  18
ATOM     18  N   UNL     1       2.661   2.404  -0.288  0.00  0.00    +0.382 N 
ATOM     19  H   UNL     1       2.703   3.231   0.319  0.00  0.00    -0.085 HD
ATOM     20  H   UNL     1       1.758   1.931  -0.160  0.00  0.00    -0.085 HD
BRANCH  18  21
ATOM     21  C   UNL     1       2.796   2.824  -1.695  0.00  0.00    -0.045 C 
BRANCH  21  22
ATOM     22  C   UNL     1       1.605   3.666  -2.075  0.00  0.00    -0.042 A 
ATOM     23  C   UNL     1       1.739   5.037  -2.197  0.00  0.00    +0.052 A 
ATOM     24  C   UNL     1       0.646   5.812  -2.547  0.00  0.00    +0.167 A 
ATOM     25  C   UNL     1      -0.588   5.208  -2.776  0.00  0.00    +0.168 A 
ATOM     26  C   UNL     1      -0.715   3.834  -2.658  0.00  0.00    +0.069 A 
ATOM     27  C   UNL     1       0.380   3.065  -2.303  0.00  0.00    +0.046 A 
ATOM     28 CL   UNL     1       0.216   1.344  -2.149  0.00  0.00    -0.083 Cl
ATOM     29  O   UNL     1      -1.493   6.176  -3.102  0.00  0.00    -0.453 OA
ATOM     30  C   UNL     1      -0.902   7.416  -2.673  0.00  0.00    +0.466 C 
ATOM     31  O   UNL     1       0.514   7.159  -2.730  0.00  0.00    -0.453 OA
ENDBRANCH  21  22
ENDBRANCH  18  21
ENDBRANCH  17  18
ENDBRANCH   1  17
TORSDOF 9
