REMARK  Name = ZINC20182478
REMARK  13 active torsions:
REMARK  status: ('A' for Active; 'I' for Inactive)
REMARK    1  A    between atoms: C_1  and  C_2
REMARK    2  A    between atoms: C_2  and  C_3
REMARK    3  A    between atoms: C_3  and  C_4
REMARK    4  A    between atoms: C_4  and  N_5
REMARK    5  A    between atoms: C_6  and  C_8
REMARK    6  A    between atoms: C_8  and  C_9
REMARK    7  A    between atoms: C_23  and  S_24
REMARK    8  A    between atoms: S_24  and  C_25
REMARK    9  A    between atoms: C_25  and  C_26
REMARK   10  A    between atoms: N_28  and  C_29
REMARK   11  A    between atoms: C_30  and  C_37
REMARK   12  A    between atoms: C_32  and  C_36
REMARK   13  A    between atoms: C_34  and  C_35
REMARK                            x       y       z     vdW  Elec       q    Type
REMARK                         _______ _______ _______ _____ _____    ______ ____
ROOT
ATOM      1  C   UNL     1       7.803   6.896   0.682  0.00  0.00    +0.202 C 
ATOM      2  C   UNL     1       7.341   8.338   0.661  0.00  0.00    +0.252 C 
ATOM      3  O   UNL     1       7.296   9.108   1.596  0.00  0.00    -0.272 OA
ATOM      4  N   UNL     1       6.988   8.583  -0.625  0.00  0.00    -0.200 N 
ATOM      5  C   UNL     1       7.183   7.453  -1.401  0.00  0.00    +0.139 C 
ATOM      6  N   UNL     1       7.649   6.451  -0.710  0.00  0.00    -0.255 NA
ATOM      7  C   UNL     1       6.846   7.551  -2.838  0.00  0.00    +0.041 A 
ATOM      8  C   UNL     1       7.009   6.470  -3.698  0.00  0.00    +0.013 A 
ATOM      9  C   UNL     1       6.682   6.606  -5.031  0.00  0.00    +0.001 A 
ATOM     10  C   UNL     1       6.194   7.811  -5.517  0.00  0.00    +0.002 A 
ATOM     11  C   UNL     1       6.027   8.893  -4.680  0.00  0.00    +0.028 A 
ATOM     12  C   UNL     1       6.352   8.778  -3.326  0.00  0.00    +0.077 A 
ATOM     13  N   UNL     1       6.200   9.822  -2.474  0.00  0.00    -0.225 NA
ATOM     14  C   UNL     1       6.498   9.734  -1.206  0.00  0.00    +0.169 C 
ENDROOT
BRANCH   1  15
ATOM     15  C   UNL     1       6.919   6.064   1.612  0.00  0.00    +0.132 C 
BRANCH  15  17
ATOM     16  N   UNL     1       6.820   3.734   2.438  0.00  0.00    -0.315 N 
ATOM     17  C   UNL     1       7.444   4.652   1.674  0.00  0.00    +0.216 C 
ATOM     18  O   UNL     1       8.428   4.343   1.036  0.00  0.00    -0.276 OA
ATOM     19  H   UNL     1       5.927   4.014   3.016  0.00  0.00    +0.149 HD
BRANCH  16  20
ATOM     20  C   UNL     1       7.331   2.362   2.498  0.00  0.00    +0.104 C 
BRANCH  20  21
ATOM     21  C   UNL     1       6.447   1.529   3.428  0.00  0.00    +0.018 C 
BRANCH  21  23
ATOM     22  C   UNL     1       6.096  -0.737   4.421  0.00  0.00    +0.004 C 
ATOM     23  C   UNL     1       6.980   0.096   3.491  0.00  0.00    -0.002 C 
ENDBRANCH  21  23
ENDBRANCH  20  21
ENDBRANCH  16  20
ENDBRANCH  15  17
ENDBRANCH   1  15
BRANCH  14  24
ATOM     24  S   UNL     1       6.262  11.152  -0.187  0.00  0.00    -0.080 S 
BRANCH  24  25
ATOM     25  C   UNL     1       5.629  12.320  -1.417  0.00  0.00    +0.173 C 
BRANCH  25  26
ATOM     26  C   UNL     1       5.347  13.644  -0.754  0.00  0.00    +0.227 C 
ATOM     27  O   UNL     1       5.555  13.784   0.433  0.00  0.00    -0.275 OA
ATOM     28  N   UNL     1       4.866  14.672  -1.480  0.00  0.00    -0.284 N 
ATOM     29  H   UNL     1       4.734  14.564  -2.567  0.00  0.00    +0.155 HD
BRANCH  28  30
ATOM     30  C   UNL     1       4.533  15.877  -0.851  0.00  0.00    +0.039 A 
ATOM     31  C   UNL     1       3.683  15.878   0.246  0.00  0.00    -0.029 A 
ATOM     32  C   UNL     1       3.360  17.069   0.867  0.00  0.00    +0.008 A 
ATOM     33  C   UNL     1       3.874  18.260   0.391  0.00  0.00    -0.050 A 
ATOM     34  C   UNL     1       4.717  18.264  -0.705  0.00  0.00    +0.008 A 
ATOM     35  C   UNL     1       5.048  17.076  -1.328  0.00  0.00    -0.029 A 
ATOM     36  C   UNL     1       5.966  17.081  -2.523  0.00  0.00    +0.045 C 
ATOM     37  C   UNL     1       3.514  19.558   1.067  0.00  0.00    +0.044 C 
ATOM     38  C   UNL     1       3.117  14.580   0.763  0.00  0.00    +0.045 C 
ENDBRANCH  28  30
ENDBRANCH  25  26
ENDBRANCH  24  25
ENDBRANCH  14  24
TORSDOF 9
