REMARK  Name = ZINC41155346
REMARK  14 active torsions:
REMARK  status: ('A' for Active; 'I' for Inactive)
REMARK    1  A    between atoms: C_1  and  C_2
REMARK    2  A    between atoms: C_5  and  C_8
REMARK    3  A    between atoms: C_8  and  N_9
REMARK    4  A    between atoms: C_10  and  C_12
REMARK    5  A    between atoms: C_12  and  C_14
REMARK    6  A    between atoms: C_12  and  N_18
REMARK    7  A    between atoms: C_14  and  C_15
REMARK    8  A    between atoms: C_15  and  C_16
REMARK    9  A    between atoms: C_15  and  C_17
REMARK   10  A    between atoms: C_19  and  C_21
REMARK   11  A    between atoms: C_25  and  S_27
REMARK   12  A    between atoms: S_27  and  C_28
REMARK   13  A    between atoms: C_28  and  C_29
REMARK   14  A    between atoms: C_33  and  C_35
REMARK                            x       y       z     vdW  Elec       q    Type
REMARK                         _______ _______ _______ _____ _____    ______ ____
ROOT
ATOM      1  N   UNL     1       3.156  -8.016  -0.059  0.00  0.00    -0.299 N 
ATOM      2  C   UNL     1       4.220  -8.674  -0.562  0.00  0.00    +0.265 C 
ATOM      3  O   UNL     1       5.163  -8.052  -1.008  0.00  0.00    -0.268 OA
ATOM      4  H   UNL     1       2.403  -8.513   0.297  0.00  0.00    +0.150 HD
ENDROOT
BRANCH   2   5
ATOM      5  C   UNL     1       4.239 -10.157  -0.570  0.00  0.00    +0.148 A 
ATOM      6  C   UNL     1       5.338 -10.850  -1.083  0.00  0.00    +0.090 A 
ATOM      7  C   UNL     1       5.309 -12.239  -1.069  0.00  0.00    +0.136 A 
ATOM      8  N   UNL     1       4.252 -12.857  -0.575  0.00  0.00    -0.229 NA
ATOM      9  C   UNL     1       3.223 -12.172  -0.094  0.00  0.00    +0.189 A 
ATOM     10  N   UNL     1       3.212 -10.849  -0.084  0.00  0.00    -0.216 NA
ATOM     11 CL   UNL     1       6.707  -9.995  -1.723  0.00  0.00    -0.080 Cl
BRANCH   9  12
ATOM     12  S   UNL     1       1.838 -13.047   0.553  0.00  0.00    -0.081 S 
BRANCH  12  13
ATOM     13  C   UNL     1       2.285 -14.793   0.345  0.00  0.00    +0.112 C 
BRANCH  13  14
ATOM     14  C   UNL     1       1.170 -15.662   0.867  0.00  0.00    -0.037 A 
ATOM     15  C   UNL     1       1.162 -16.056   2.192  0.00  0.00    +0.004 A 
ATOM     16  C   UNL     1       0.140 -16.854   2.670  0.00  0.00    +0.001 A 
ATOM     17  C   UNL     1      -0.876 -17.258   1.823  0.00  0.00    +0.003 A 
ATOM     18  C   UNL     1      -0.869 -16.863   0.498  0.00  0.00    -0.050 A 
ATOM     19  C   UNL     1       0.152 -16.062   0.021  0.00  0.00    +0.007 A 
ATOM     20  C   UNL     1      -1.975 -17.304  -0.425  0.00  0.00    +0.044 C 
ENDBRANCH  13  14
ENDBRANCH  12  13
ENDBRANCH   9  12
ENDBRANCH   2   5
BRANCH   1  21
ATOM     21  C   UNL     1       3.137  -6.551  -0.051  0.00  0.00    +0.159 C 
BRANCH  21  23
ATOM     22  N   UNL     1       1.447  -4.746  -0.032  0.00  0.00    -0.310 N 
ATOM     23  C   UNL     1       1.710  -6.067  -0.040  0.00  0.00    +0.234 C 
ATOM     24  O   UNL     1       0.799  -6.867  -0.040  0.00  0.00    -0.274 OA
ATOM     25  H   UNL     1       2.176  -4.106  -0.032  0.00  0.00    +0.149 HD
BRANCH  22  26
ATOM     26  C   UNL     1       0.059  -4.275  -0.021  0.00  0.00    +0.139 C 
BRANCH  26  31
ATOM     27  C   UNL     1      -0.018   1.503   0.010  0.00  0.00    +0.044 C 
ATOM     28  C   UNL     1       0.002  -0.004   0.002  0.00  0.00    -0.050 A 
ATOM     29  C   UNL     1       0.006  -0.689  -1.199  0.00  0.00    +0.003 A 
ATOM     30  C   UNL     1       0.025  -2.071  -1.206  0.00  0.00    +0.005 A 
ATOM     31  C   UNL     1       0.040  -2.768  -0.013  0.00  0.00    -0.030 A 
ATOM     32  C   UNL     1       0.037  -2.084   1.188  0.00  0.00    +0.005 A 
ATOM     33  C   UNL     1       0.023  -0.702   1.195  0.00  0.00    +0.003 A 
ENDBRANCH  26  31
ENDBRANCH  22  26
ENDBRANCH  21  23
BRANCH  21  34
ATOM     34  C   UNL     1       3.859  -6.039   1.197  0.00  0.00    +0.034 C 
BRANCH  34  35
ATOM     35  C   UNL     1       5.338  -6.424   1.126  0.00  0.00    -0.015 C 
ATOM     36  C   UNL     1       5.997  -5.700  -0.050  0.00  0.00    +0.007 C 
ATOM     37  C   UNL     1       6.033  -6.022   2.428  0.00  0.00    +0.007 C 
ENDBRANCH  34  35
ENDBRANCH  21  34
ENDBRANCH   1  21
TORSDOF 10
