REMARK  Name = ZINC51397298
REMARK  3 active torsions:
REMARK  status: ('A' for Active; 'I' for Inactive)
REMARK    1  A    between atoms: C_1  and  C_2
REMARK    2  A    between atoms: C_13  and  C_19
REMARK    3  A    between atoms: C_19  and  N_20
REMARK                            x       y       z     vdW  Elec       q    Type
REMARK                         _______ _______ _______ _____ _____    ______ ____
ROOT
ATOM      1  C   UNL     1      -0.192   1.215  -0.896  0.00  0.00    +0.033 C 
ATOM      2  C   UNL     1      -0.121  -0.284  -0.598  0.00  0.00    +0.103 C 
ATOM      3  C   UNL     1       0.532  -1.015  -1.769  0.00  0.00    -0.017 A 
ATOM      4  C   UNL     1      -0.110  -1.231  -2.988  0.00  0.00    +0.013 A 
ATOM      5  C   UNL     1       0.532  -1.883  -3.984  0.00  0.00    +0.046 A 
ATOM      6  S   UNL     1       2.115  -2.234  -3.234  0.00  0.00    -0.101 S 
ATOM      7  C   UNL     1       1.802  -1.491  -1.655  0.00  0.00    -0.004 A 
ATOM      8  C   UNL     1       2.710  -1.408  -0.471  0.00  0.00    +0.061 C 
ATOM      9  C   UNL     1       2.164  -0.345   0.495  0.00  0.00    +0.112 C 
ATOM     10  N   UNL     1       0.706  -0.515   0.595  0.00  0.00    -0.308 N 
ATOM     11  C   UNL     1       0.119  -0.890   1.798  0.00  0.00    +0.123 A 
ATOM     12  C   UNL     1      -0.179  -2.229   2.032  0.00  0.00    -0.024 A 
ATOM     13  C   UNL     1      -0.763  -2.588   3.233  0.00  0.00    +0.021 A 
ATOM     14  C   UNL     1      -1.030  -1.592   4.165  0.00  0.00    +0.036 A 
ATOM     15  C   UNL     1      -0.707  -0.283   3.866  0.00  0.00    +0.128 A 
ATOM     16  N   UNL     1      -0.145   0.029   2.713  0.00  0.00    -0.239 NA
ATOM     17 BR   UNL     1      -1.827  -2.025   5.824  0.00  0.00    -0.049 Br
ENDROOT
BRANCH  12  18
ATOM     18  C   UNL     1       0.128  -3.273   0.990  0.00  0.00    -0.047 C 
BRANCH  18  19
ATOM     19  N   UNL     1       1.508  -3.747   1.163  0.00  0.00    +0.381 N 
ATOM     20  H   UNL     1       2.116  -2.958   1.327  0.00  0.00    -0.090 HD
ATOM     21  H   UNL     1       1.552  -4.374   1.952  0.00  0.00    -0.090 HD
ATOM     22  H   UNL     1       1.804  -4.232   0.330  0.00  0.00    -0.090 HD
ENDBRANCH  18  19
ENDBRANCH  12  18
TORSDOF 2
