REMARK  Name = ZINC20555620
REMARK  7 active torsions:
REMARK  status: ('A' for Active; 'I' for Inactive)
REMARK    1  A    between atoms: C_1  and  C_2
REMARK    2  A    between atoms: C_3  and  C_23
REMARK    3  A    between atoms: C_8  and  N_10
REMARK    4  A    between atoms: N_13  and  C_14
REMARK    5  A    between atoms: C_19  and  O_20
REMARK    6  A    between atoms: O_20  and  C_21
REMARK    7  A    between atoms: C_23  and  C_24
REMARK                            x       y       z     vdW  Elec       q    Type
REMARK                         _______ _______ _______ _____ _____    ______ ____
ROOT
ATOM      1  N   UNL     1       2.487  -2.373   0.718  0.00  0.00    -0.179 NA
ATOM      2  C   UNL     1       3.533  -1.710   0.255  0.00  0.00    +0.203 C 
ATOM      3  N   UNL     1       4.795  -2.080   0.626  0.00  0.00    -0.369 N 
ATOM      4  N   UNL     1       3.352  -0.656  -0.596  0.00  0.00    -0.323 N 
ATOM      5  H   UNL     1       4.971  -2.991   0.906  0.00  0.00    +0.159 HD
ATOM      6  H   UNL     1       2.455  -0.365  -0.824  0.00  0.00    +0.169 HD
ATOM      7  H   UNL     1       5.515  -1.430   0.609  0.00  0.00    +0.159 HD
ENDROOT
BRANCH   1  15
ATOM      8  C   UNL     1       0.022  -0.790  -3.031  0.00  0.00    +0.066 C 
ATOM      9  C   UNL     1       0.077  -1.538  -1.724  0.00  0.00    +0.051 A 
ATOM     10  C   UNL     1      -1.056  -2.110  -1.219  0.00  0.00    +0.052 A 
ATOM     11  C   UNL     1      -0.986  -2.804   0.001  0.00  0.00    +0.257 A 
ATOM     12  O   UNL     1      -1.980  -3.326   0.477  0.00  0.00    -0.267 OA
ATOM     13  N   UNL     1       0.203  -2.884   0.636  0.00  0.00    -0.291 N 
ATOM     14  H   UNL     1       0.275  -3.358   1.479  0.00  0.00    +0.172 HD
ATOM     15  C   UNL     1       1.307  -2.292   0.084  0.00  0.00    +0.234 A 
ATOM     16  N   UNL     1       1.228  -1.645  -1.070  0.00  0.00    -0.217 NA
BRANCH  10  17
ATOM     17  C   UNL     1      -2.364  -1.998  -1.959  0.00  0.00    +0.160 C 
BRANCH  17  18
ATOM     18  C   UNL     1      -2.559  -3.193  -2.795  0.00  0.00    +0.067 C 
ATOM     19  N   UNL     1      -2.710  -4.116  -3.440  0.00  0.00    -0.196 NA
ENDBRANCH  17  18
ENDBRANCH  10  17
ENDBRANCH   1  15
BRANCH   4  20
ATOM     20  C   UNL     1       4.462   0.005  -1.138  0.00  0.00    +0.085 A 
ATOM     21  C   UNL     1       5.666  -0.667  -1.288  0.00  0.00    +0.049 A 
ATOM     22  C   UNL     1       6.760  -0.012  -1.824  0.00  0.00    +0.043 A 
ATOM     23  C   UNL     1       6.656   1.312  -2.211  0.00  0.00    +0.024 A 
ATOM     24  C   UNL     1       5.459   1.988  -2.063  0.00  0.00    +0.049 A 
ATOM     25  C   UNL     1       4.357   1.337  -1.532  0.00  0.00    +0.143 A 
ATOM     26 CL   UNL     1       8.267  -0.854  -2.012  0.00  0.00    -0.083 Cl
BRANCH  25  27
ATOM     27  O   UNL     1       3.177   1.998  -1.392  0.00  0.00    -0.493 OA
ATOM     28  C   UNL     1       3.143   3.362  -1.818  0.00  0.00    +0.277 C 
ENDBRANCH  25  27
ENDBRANCH   4  20
TORSDOF 5
