REMARK  Name = ZINC12602538
REMARK  10 active torsions:
REMARK  status: ('A' for Active; 'I' for Inactive)
REMARK    1  A    between atoms: C_1  and  O_2
REMARK    2  A    between atoms: O_2  and  C_3
REMARK    3  A    between atoms: C_6  and  S_9
REMARK    4  A    between atoms: S_9  and  N_12
REMARK    5  A    between atoms: N_12  and  C_13
REMARK    6  A    between atoms: C_13  and  C_14
REMARK    7  A    between atoms: C_23  and  C_25
REMARK    8  A    between atoms: C_25  and  N_26
REMARK    9  A    between atoms: C_29  and  C_32
REMARK   10  A    between atoms: C_32  and  C_33
REMARK                            x       y       z     vdW  Elec       q    Type
REMARK                         _______ _______ _______ _____ _____    ______ ____
ROOT
ATOM      1  C   UNL     1      -2.088   3.787   5.024  0.00  0.00    +0.072 C 
ATOM      2  C   UNL     1      -3.298   2.848   5.034  0.00  0.00    +0.024 C 
ATOM      3  C   UNL     1      -2.800   1.398   5.026  0.00  0.00    -0.006 C 
ATOM      4  C   UNL     1      -1.919   1.176   6.262  0.00  0.00    +0.019 C 
ATOM      5  C   UNL     1      -0.748   2.162   6.218  0.00  0.00    +0.085 C 
ATOM      6  N   UNL     1      -0.854   2.990   5.009  0.00  0.00    -0.298 NA
ATOM      7  C   UNL     1      -0.772   2.166   3.796  0.00  0.00    +0.086 C 
ATOM      8  C   UNL     1      -1.944   1.181   3.771  0.00  0.00    -0.010 C 
ENDROOT
BRANCH   1   9
ATOM      9  C   UNL     1      -2.139   4.673   3.777  0.00  0.00    +0.124 C 
BRANCH   9  10
ATOM     10  N   UNL     1      -0.922   5.484   3.704  0.00  0.00    -0.188 NA
ATOM     11  H   UNL     1      -0.360   5.717   4.621  0.00  0.00    +0.148 HD
BRANCH  10  12
ATOM     12  S   UNL     1      -0.523   6.254   2.293  0.00  0.00    +0.058 S 
ATOM     13  O   UNL     1       0.678   6.970   2.547  0.00  0.00    -0.153 OA
ATOM     14  O   UNL     1      -0.630   5.286   1.258  0.00  0.00    -0.153 OA
BRANCH  12  18
ATOM     15  C   UNL     1      -3.732   9.350   1.506  0.00  0.00    +0.120 A 
ATOM     16  C   UNL     1      -2.610   9.687   2.248  0.00  0.00    +0.047 A 
ATOM     17  C   UNL     1      -1.632   8.740   2.487  0.00  0.00    +0.032 A 
ATOM     18  C   UNL     1      -1.772   7.459   1.987  0.00  0.00    +0.105 A 
ATOM     19  C   UNL     1      -2.887   7.123   1.243  0.00  0.00    +0.032 A 
ATOM     20  C   UNL     1      -3.871   8.064   1.006  0.00  0.00    +0.047 A 
BRANCH  15  22
ATOM     21  C   UNL     1      -5.824   9.863   0.499  0.00  0.00    +0.277 C 
ATOM     22  O   UNL     1      -4.696  10.280   1.270  0.00  0.00    -0.495 OA
ENDBRANCH  15  22
ENDBRANCH  12  18
ENDBRANCH  10  12
ENDBRANCH   9  10
ENDBRANCH   1   9
BRANCH   8  23
ATOM     23  C   UNL     1      -2.794   1.427   2.523  0.00  0.00    -0.074 C 
BRANCH  23  24
ATOM     24  N   UNL     1      -3.895   0.455   2.481  0.00  0.00    +0.380 N 
ATOM     25  C   UNL     1      -3.391  -0.918   2.629  0.00  0.00    -0.079 C 
ATOM     26  C   UNL     1      -4.571  -1.887   2.726  0.00  0.00    -0.015 C 
ATOM     27  C   UNL     1      -5.428  -1.770   1.462  0.00  0.00    -0.010 C 
ATOM     28  C   UNL     1      -5.899  -0.322   1.306  0.00  0.00    -0.015 C 
ATOM     29  C   UNL     1      -4.681   0.603   1.249  0.00  0.00    -0.079 C 
ATOM     30  H   UNL     1      -4.563   0.660   3.330  0.00  0.00    -0.082 HD
BRANCH  27  31
ATOM     31  C   UNL     1      -6.641  -2.695   1.579  0.00  0.00    +0.038 C 
BRANCH  31  32
ATOM     32  C   UNL     1      -7.416  -2.672   0.287  0.00  0.00    -0.047 A 
ATOM     33  C   UNL     1      -8.432  -1.752   0.106  0.00  0.00    +0.003 A 
ATOM     34  C   UNL     1      -9.140  -1.728  -1.081  0.00  0.00    +0.000 A 
ATOM     35  C   UNL     1      -8.839  -2.632  -2.083  0.00  0.00    +0.000 A 
ATOM     36  C   UNL     1      -7.827  -3.556  -1.900  0.00  0.00    +0.000 A 
ATOM     37  C   UNL     1      -7.116  -3.576  -0.715  0.00  0.00    +0.003 A 
ENDBRANCH  31  32
ENDBRANCH  27  31
ENDBRANCH  23  24
ENDBRANCH   8  23
TORSDOF 9
