REMARK  Name = ZINC15848831
REMARK  11 active torsions:
REMARK  status: ('A' for Active; 'I' for Inactive)
REMARK    1  A    between atoms: C_1  and  C_2
REMARK    2  A    between atoms: C_5  and  C_35
REMARK    3  A    between atoms: N_8  and  S_10
REMARK    4  A    between atoms: S_10  and  C_13
REMARK    5  A    between atoms: C_16  and  C_19
REMARK    6  A    between atoms: C_19  and  O_21
REMARK    7  A    between atoms: O_21  and  C_22
REMARK    8  A    between atoms: C_22  and  C_24
REMARK    9  A    between atoms: C_22  and  C_25
REMARK   10  A    between atoms: N_27  and  C_28
REMARK   11  A    between atoms: C_29  and  C_33
REMARK                            x       y       z     vdW  Elec       q    Type
REMARK                         _______ _______ _______ _____ _____    ______ ____
ROOT
ATOM      1  C   UNL     1       0.002  -0.004   0.002  0.00  0.00    +0.106 A 
ATOM      2  C   UNL     1       1.116  -0.680   0.468  0.00  0.00    +0.029 A 
ATOM      3  C   UNL     1       1.139  -2.059   0.469  0.00  0.00    +0.017 A 
ATOM      4  C   UNL     1       0.040  -2.773  -0.014  0.00  0.00    +0.059 A 
ATOM      5  C   UNL     1      -1.078  -2.084  -0.488  0.00  0.00    +0.017 A 
ATOM      6  C   UNL     1      -1.091  -0.705  -0.477  0.00  0.00    +0.029 A 
ENDROOT
BRANCH   1   7
ATOM      7  S   UNL     1      -0.022   1.758   0.012  0.00  0.00    +0.061 S 
ATOM      8  O   UNL     1       1.334   2.182   0.001  0.00  0.00    -0.153 OA
ATOM      9  O   UNL     1      -0.953   2.157  -0.985  0.00  0.00    -0.153 OA
BRANCH   7  15
ATOM     10  C   UNL     1      -2.418   0.110   2.496  0.00  0.00    +0.009 C 
ATOM     11  C   UNL     1      -2.589   1.597   2.813  0.00  0.00    +0.002 C 
ATOM     12  C   UNL     1      -1.766   1.953   4.053  0.00  0.00    +0.009 C 
ATOM     13  C   UNL     1      -0.293   1.623   3.803  0.00  0.00    +0.002 C 
ATOM     14  C   UNL     1       0.221   2.458   2.626  0.00  0.00    +0.112 C 
ATOM     15  N   UNL     1      -0.654   2.231   1.467  0.00  0.00    -0.176 NA
ATOM     16  C   UNL     1      -2.101   2.438   1.623  0.00  0.00    +0.112 C 
ATOM     17  C   UNL     1       0.523   1.948   5.055  0.00  0.00    +0.009 C 
ENDBRANCH   7  15
ENDBRANCH   1   7
BRANCH   4  18
ATOM     18  C   UNL     1       0.060  -4.250  -0.023  0.00  0.00    +0.340 C 
ATOM     19  O   UNL     1      -0.897  -4.868  -0.443  0.00  0.00    -0.245 OA
BRANCH  18  20
ATOM     20  O   UNL     1       1.141  -4.912   0.435  0.00  0.00    -0.449 OA
BRANCH  20  21
ATOM     21  C   UNL     1       1.091  -6.362   0.397  0.00  0.00    +0.259 C 
ATOM     22  C   UNL     1       1.645  -6.856  -0.942  0.00  0.00    +0.062 C 
BRANCH  21  23
ATOM     23  C   UNL     1       1.921  -6.924   1.522  0.00  0.00    +0.258 C 
ATOM     24  O   UNL     1       2.498  -6.175   2.282  0.00  0.00    -0.271 OA
ATOM     25  N   UNL     1       2.023  -8.258   1.683  0.00  0.00    -0.276 N 
ATOM     26  H   UNL     1       1.562  -8.857   1.076  0.00  0.00    +0.155 HD
BRANCH  25  27
ATOM     27  C   UNL     1       2.788  -8.775   2.720  0.00  0.00    +0.089 A 
ATOM     28  C   UNL     1       3.007 -10.107   3.049  0.00  0.00    +0.080 A 
ATOM     29  C   UNL     1       3.857 -10.363   4.187  0.00  0.00    +0.028 A 
ATOM     30  C   UNL     1       4.355  -9.294   4.835  0.00  0.00    +0.048 A 
ATOM     31  S   UNL     1       3.694  -7.917   3.920  0.00  0.00    -0.081 S 
BRANCH  28  32
ATOM     32  C   UNL     1       2.421 -11.173   2.294  0.00  0.00    +0.102 C 
ATOM     33  N   UNL     1       1.957 -12.019   1.695  0.00  0.00    -0.191 NA
ENDBRANCH  28  32
ENDBRANCH  25  27
ENDBRANCH  21  23
ENDBRANCH  20  21
ENDBRANCH  18  20
ENDBRANCH   4  18
TORSDOF 8
