REMARK  Name = ZINC39521206
REMARK  4 active torsions:
REMARK  status: ('A' for Active; 'I' for Inactive)
REMARK    1  A    between atoms: C_4  and  O_28
REMARK    2  A    between atoms: C_5  and  C_7
REMARK    3  A    between atoms: N_13  and  C_14
REMARK    4  A    between atoms: C_19  and  O_20
REMARK                            x       y       z     vdW  Elec       q    Type
REMARK                         _______ _______ _______ _____ _____    ______ ____
ROOT
ATOM      1  C   UNL     1       0.538  -0.531  -1.121  0.00  0.00    +0.108 C 
ATOM      2  C   UNL     1       0.270  -0.790  -2.607  0.00  0.00    +0.027 C 
ATOM      3  C   UNL     1       0.733  -2.204  -2.966  0.00  0.00    +0.004 C 
ATOM      4  C   UNL     1      -0.061  -3.225  -2.148  0.00  0.00    +0.026 C 
ATOM      5  C   UNL     1       0.200  -2.992  -0.657  0.00  0.00    +0.037 C 
ATOM      6  N   UNL     1      -0.101  -1.592  -0.331  0.00  0.00    -0.314 N 
ATOM      7  C   UNL     1      -0.695  -3.914   0.171  0.00  0.00    +0.026 C 
ATOM      8  C   UNL     1      -0.435  -3.674   1.660  0.00  0.00    +0.003 C 
ATOM      9  C   UNL     1       1.033  -3.966   1.975  0.00  0.00    +0.015 C 
ATOM     10  C   UNL     1       1.927  -3.041   1.146  0.00  0.00    +0.059 C 
ATOM     11  C   UNL     1       1.668  -3.282  -0.342  0.00  0.00    +0.040 C 
ATOM     12 BR   UNL     1       1.521  -1.169   1.588  0.00  0.00    -0.088 Br
ENDROOT
BRANCH   1  17
ATOM     13  C   UNL     1      -1.935   2.219  -0.360  0.00  0.00    +0.001 A 
ATOM     14  C   UNL     1      -1.096   3.261  -0.012  0.00  0.00    +0.004 A 
ATOM     15  C   UNL     1       0.273   3.080  -0.023  0.00  0.00    +0.046 A 
ATOM     16  C   UNL     1       0.806   1.850  -0.382  0.00  0.00    +0.122 A 
ATOM     17  C   UNL     1      -0.038   0.806  -0.730  0.00  0.00    +0.014 A 
ATOM     18  C   UNL     1      -1.407   0.993  -0.718  0.00  0.00    +0.009 A 
BRANCH  16  19
ATOM     19  O   UNL     1       2.153   1.669  -0.394  0.00  0.00    -0.506 OA
ATOM     20  H   UNL     1       2.515   1.358   0.448  0.00  0.00    +0.292 HD
ENDBRANCH  16  19
ENDBRANCH   1  17
BRANCH   6  21
ATOM     21  C   UNL     1      -0.981  -1.276   0.710  0.00  0.00    +0.073 A 
ATOM     22  C   UNL     1      -0.579  -0.419   1.725  0.00  0.00    +0.027 A 
ATOM     23  C   UNL     1      -1.450  -0.107   2.751  0.00  0.00    +0.002 A 
ATOM     24  C   UNL     1      -2.722  -0.647   2.771  0.00  0.00    +0.004 A 
ATOM     25  C   UNL     1      -3.130  -1.502   1.763  0.00  0.00    +0.047 A 
ATOM     26  C   UNL     1      -2.265  -1.815   0.728  0.00  0.00    +0.138 A 
BRANCH  26  27
ATOM     27  O   UNL     1      -2.667  -2.652  -0.267  0.00  0.00    -0.505 OA
ATOM     28  H   UNL     1      -3.053  -3.480   0.049  0.00  0.00    +0.292 HD
ENDBRANCH  26  27
ENDBRANCH   6  21
TORSDOF 4
