REMARK  Name = ZINC62605547
REMARK  8 active torsions:
REMARK  status: ('A' for Active; 'I' for Inactive)
REMARK    1  A    between atoms: C_1  and  C_2
REMARK    2  A    between atoms: C_2  and  C_3
REMARK    3  A    between atoms: C_6  and  C_9
REMARK    4  A    between atoms: C_9  and  C_10
REMARK    5  A    between atoms: C_10  and  C_11
REMARK    6  A    between atoms: C_19  and  S_23
REMARK    7  A    between atoms: S_23  and  N_26
REMARK    8  A    between atoms: N_26  and  C_27
REMARK                            x       y       z     vdW  Elec       q    Type
REMARK                         _______ _______ _______ _____ _____    ______ ____
ROOT
ATOM      1  C   UNL     1      -7.811  -1.351   0.064  0.00  0.00    +0.216 C 
ATOM      2  O   UNL     1      -8.016  -2.547   0.063  0.00  0.00    -0.276 OA
ATOM      3  N   UNL     1      -8.848  -0.490   0.073  0.00  0.00    -0.297 N 
ATOM      4  C   UNL     1     -10.240  -0.968   0.090  0.00  0.00    +0.113 C 
ATOM      5  C   UNL     1     -10.875  -0.520   1.406  0.00  0.00    +0.054 C 
ATOM      6  C   UNL     1     -10.589   0.935   1.671  0.00  0.00    -0.041 A 
ATOM      7  C   UNL     1     -11.418   1.602   2.565  0.00  0.00    +0.006 A 
ATOM      8  C   UNL     1     -11.205   2.932   2.860  0.00  0.00    +0.029 A 
ATOM      9  C   UNL     1     -10.159   3.610   2.263  0.00  0.00    +0.106 A 
ATOM     10  C   UNL     1      -9.337   2.951   1.372  0.00  0.00    +0.034 A 
ATOM     11  C   UNL     1      -9.553   1.614   1.070  0.00  0.00    -0.025 A 
ATOM     12  C   UNL     1      -8.634   0.961   0.074  0.00  0.00    +0.143 C 
ENDROOT
BRANCH   9  13
ATOM     13  S   UNL     1      -9.877   5.309   2.638  0.00  0.00    +0.058 S 
ATOM     14  O   UNL     1      -9.169   5.856   1.534  0.00  0.00    -0.153 OA
ATOM     15  O   UNL     1     -11.117   5.837   3.085  0.00  0.00    -0.153 OA
BRANCH  13  16
ATOM     16  N   UNL     1      -8.846   5.359   3.933  0.00  0.00    -0.193 NA
ATOM     17  C   UNL     1      -7.477   4.854   3.800  0.00  0.00    +0.127 C 
ATOM     18  H   UNL     1      -9.148   5.723   4.779  0.00  0.00    +0.148 HD
ENDBRANCH  13  16
ENDBRANCH   9  13
BRANCH   1  19
ATOM     19  C   UNL     1      -6.398  -0.829   0.053  0.00  0.00    +0.100 C 
BRANCH  19  20
ATOM     20  C   UNL     1      -5.419  -2.005   0.043  0.00  0.00    +0.044 C 
BRANCH  20  24
ATOM     21  C   UNL     1      -1.412  -0.526   0.013  0.00  0.00    -0.048 A 
ATOM     22  C   UNL     1      -2.051  -0.766   1.215  0.00  0.00    +0.004 A 
ATOM     23  C   UNL     1      -3.348  -1.244   1.225  0.00  0.00    +0.004 A 
ATOM     24  C   UNL     1      -4.006  -1.482   0.032  0.00  0.00    -0.047 A 
ATOM     25  C   UNL     1      -3.367  -1.241  -1.170  0.00  0.00    +0.004 A 
ATOM     26  C   UNL     1      -2.072  -0.758  -1.179  0.00  0.00    +0.004 A 
BRANCH  21  28
ATOM     27  C   UNL     1      -0.019   1.526   0.010  0.00  0.00    +0.009 C 
ATOM     28  C   UNL     1       0.002  -0.004   0.002  0.00  0.00    +0.032 C 
ENDBRANCH  21  28
ENDBRANCH  20  24
ENDBRANCH  19  20
ENDBRANCH   1  19
TORSDOF 6
