REMARK  Name = ZINC32543396
REMARK  11 active torsions:
REMARK  status: ('A' for Active; 'I' for Inactive)
REMARK    1  A    between atoms: C_1  and  C_2
REMARK    2  A    between atoms: C_3  and  C_16
REMARK    3  A    between atoms: C_4  and  C_15
REMARK    4  A    between atoms: N_5  and  C_7
REMARK    5  A    between atoms: C_7  and  C_8
REMARK    6  A    between atoms: C_16  and  N_17
REMARK    7  A    between atoms: N_17  and  C_18
REMARK    8  A    between atoms: N_17  and  C_19
REMARK    9  A    between atoms: C_19  and  C_20
REMARK   10  A    between atoms: C_32  and  C_33
REMARK   11  A    between atoms: C_32  and  C_34
REMARK                            x       y       z     vdW  Elec       q    Type
REMARK                         _______ _______ _______ _____ _____    ______ ____
ROOT
ATOM      1  N   UNL     1       0.871   6.626   5.146  0.00  0.00    +0.386 N 
ATOM      2  C   UNL     1       0.270   6.837   3.823  0.00  0.00    -0.095 C 
ATOM      3  H   UNL     1       1.782   7.240   5.206  0.00  0.00    -0.081 HD
ENDROOT
BRANCH   1   4
ATOM      4  C   UNL     1       1.261   5.222   5.330  0.00  0.00    -0.039 C 
BRANCH   4   7
ATOM      5  C   UNL     1       4.365   5.508   5.902  0.00  0.00    +0.068 C 
ATOM      6  C   UNL     1       3.744   5.006   4.624  0.00  0.00    +0.062 A 
ATOM      7  C   UNL     1       2.374   4.880   4.372  0.00  0.00    -0.021 A 
ATOM      8  C   UNL     1       2.224   4.403   3.115  0.00  0.00    +0.038 A 
ATOM      9  N   UNL     1       3.456   4.225   2.593  0.00  0.00    -0.264 N 
ATOM     10  N   UNL     1       4.393   4.614   3.558  0.00  0.00    -0.176 NA
ATOM     11  C   UNL     1       0.916   4.119   2.422  0.00  0.00    +0.065 C 
BRANCH   9  12
ATOM     12  C   UNL     1       3.759   3.719   1.252  0.00  0.00    +0.180 C 
BRANCH  12  13
ATOM     13  C   UNL     1       3.891   2.219   1.298  0.00  0.00    -0.008 A 
ATOM     14  C   UNL     1       2.837   1.419   0.896  0.00  0.00    +0.007 A 
ATOM     15  C   UNL     1       2.958   0.043   0.939  0.00  0.00    +0.000 A 
ATOM     16  C   UNL     1       4.133  -0.535   1.383  0.00  0.00    +0.001 A 
ATOM     17  C   UNL     1       5.187   0.264   1.785  0.00  0.00    +0.020 A 
ATOM     18  C   UNL     1       5.066   1.641   1.743  0.00  0.00    +0.046 A 
ATOM     19 CL   UNL     1       6.390   2.645   2.248  0.00  0.00    -0.083 Cl
ENDBRANCH  12  13
ENDBRANCH   9  12
ENDBRANCH   4   7
ENDBRANCH   1   4
BRANCH   1  20
ATOM     20  C   UNL     1      -0.039   7.063   6.213  0.00  0.00    +0.019 C 
BRANCH  20  21
ATOM     21  C   UNL     1      -0.222   8.557   6.137  0.00  0.00    +0.204 C 
ATOM     22  O   UNL     1       0.119   9.160   5.141  0.00  0.00    -0.277 OA
ATOM     23  N   UNL     1      -0.765   9.223   7.175  0.00  0.00    -0.257 N 
ATOM     24  C   UNL     1      -1.082   8.564   8.373  0.00  0.00    +0.058 A 
ATOM     25  C   UNL     1      -1.427   7.225   8.381  0.00  0.00    +0.025 A 
ATOM     26  C   UNL     1      -1.739   6.604   9.578  0.00  0.00    +0.002 A 
ATOM     27  C   UNL     1      -1.705   7.319  10.761  0.00  0.00    +0.002 A 
ATOM     28  C   UNL     1      -1.358   8.657  10.760  0.00  0.00    +0.025 A 
ATOM     29  C   UNL     1      -1.043   9.287   9.566  0.00  0.00    +0.055 A 
ATOM     30  N   UNL     1      -0.680  10.638   9.544  0.00  0.00    -0.282 N 
ATOM     31  C   UNL     1      -0.643  11.321   8.385  0.00  0.00    +0.241 C 
ATOM     32  O   UNL     1      -0.282  12.479   8.383  0.00  0.00    -0.273 OA
ATOM     33  C   UNL     1      -1.039  10.666   7.091  0.00  0.00    +0.113 C 
ATOM     34  C   UNL     1      -0.232  11.274   5.942  0.00  0.00    +0.042 C 
ATOM     35  C   UNL     1      -2.532  10.890   6.845  0.00  0.00    +0.042 C 
ATOM     36  H   UNL     1      -0.420  11.153  10.480  0.00  0.00    +0.155 HD
ENDBRANCH  20  21
ENDBRANCH   1  20
TORSDOF 6
