REMARK  Name = ZINC02242802
REMARK  9 active torsions:
REMARK  status: ('A' for Active; 'I' for Inactive)
REMARK    1  A    between atoms: C_1  and  C_2
REMARK    2  A    between atoms: C_2  and  N_3
REMARK    3  A    between atoms: N_3  and  C_4
REMARK    4  A    between atoms: N_3  and  C_6
REMARK    5  A    between atoms: C_4  and  C_5
REMARK    6  A    between atoms: C_6  and  C_7
REMARK    7  A    between atoms: C_8  and  C_18
REMARK    8  A    between atoms: N_20  and  N_21
REMARK    9  A    between atoms: C_22  and  C_23
REMARK                            x       y       z     vdW  Elec       q    Type
REMARK                         _______ _______ _______ _____ _____    ______ ____
ROOT
ATOM      1  C   UNL     1      -2.031  -2.485   0.247  0.00  0.00    +0.079 A 
ATOM      2  C   UNL     1      -0.898  -1.743   0.033  0.00  0.00    +0.154 A 
ATOM      3  N   UNL     1       0.140  -2.642   0.052  0.00  0.00    -0.183 N 
ATOM      4  N   UNL     1      -0.353  -3.811   0.269  0.00  0.00    -0.058 NA
ATOM      5  N   UNL     1      -1.632  -3.750   0.385  0.00  0.00    -0.135 NA
ATOM      6  C   UNL     1       1.493  -2.341  -0.130  0.00  0.00    +0.241 A 
ATOM      7  C   UNL     1       2.584  -3.315  -0.222  0.00  0.00    +0.206 A 
ATOM      8  N   UNL     1       3.702  -2.664  -0.391  0.00  0.00    -0.032 NA
ATOM      9  O   UNL     1       3.399  -1.281  -0.416  0.00  0.00    -0.239 OA
ATOM     10  N   UNL     1       1.999  -1.146  -0.253  0.00  0.00    -0.027 NA
ATOM     11  N   UNL     1       2.451  -4.697  -0.142  0.00  0.00    -0.337 N 
ATOM     12  H   UNL     1       3.339  -5.341  -0.224  0.00  0.00    +0.144 HD
ATOM     13  H   UNL     1       1.457  -5.146   0.002  0.00  0.00    +0.144 HD
ENDROOT
BRANCH   2  14
ATOM     14  C   UNL     1      -0.813  -0.290  -0.178  0.00  0.00    +0.284 C 
ATOM     15  O   UNL     1      -0.932   0.470   0.764  0.00  0.00    -0.267 OA
ATOM     16  N   UNL     1      -0.603   0.199  -1.417  0.00  0.00    -0.202 N 
ATOM     17  H   UNL     1      -0.405  -0.487  -2.253  0.00  0.00    +0.178 HD
BRANCH  16  18
ATOM     18  N   UNL     1      -0.638   1.582  -1.638  0.00  0.00    -0.187 NA
ATOM     19  C   UNL     1      -0.436   2.054  -2.832  0.00  0.00    +0.139 C 
BRANCH  19  20
ATOM     20  C   UNL     1      -0.472   3.506  -3.065  0.00  0.00    +0.002 A 
ATOM     21  C   UNL     1      -0.199   4.030  -4.323  0.00  0.00    +0.010 A 
ATOM     22  C   UNL     1      -0.240   5.401  -4.540  0.00  0.00    +0.001 A 
ATOM     23  C   UNL     1      -0.533   6.278  -3.542  0.00  0.00    +0.008 A 
ATOM     24  C   UNL     1      -0.814   5.819  -2.244  0.00  0.00    -0.017 A 
ATOM     25  C   UNL     1      -0.790   4.429  -1.976  0.00  0.00    -0.009 A 
ATOM     26  C   UNL     1      -1.070   3.968  -0.685  0.00  0.00    +0.009 A 
ATOM     27  C   UNL     1      -1.362   4.862   0.301  0.00  0.00    +0.001 A 
ATOM     28  C   UNL     1      -1.386   6.231   0.042  0.00  0.00    +0.001 A 
ATOM     29  C   UNL     1      -1.119   6.713  -1.203  0.00  0.00    +0.008 A 
ENDBRANCH  19  20
ENDBRANCH  16  18
ENDBRANCH   2  14
BRANCH   1  30
ATOM     30  C   UNL     1      -3.447  -1.973   0.313  0.00  0.00    -0.018 C 
BRANCH  30  31
ATOM     31  N   UNL     1      -4.039  -1.998  -1.031  0.00  0.00    +0.383 N 
ATOM     32  H   UNL     1      -3.897  -3.007  -1.445  0.00  0.00    -0.081 HD
BRANCH  31  34
ATOM     33  C   UNL     1      -6.197  -2.930  -0.342  0.00  0.00    -0.017 C 
ATOM     34  C   UNL     1      -5.483  -1.733  -0.974  0.00  0.00    -0.082 C 
ENDBRANCH  31  34
BRANCH  31  35
ATOM     35  C   UNL     1      -3.364  -1.045  -1.922  0.00  0.00    -0.082 C 
ATOM     36  C   UNL     1      -3.805  -1.296  -3.365  0.00  0.00    -0.017 C 
ENDBRANCH  31  35
ENDBRANCH  30  31
ENDBRANCH   1  30
TORSDOF 7
