REMARK  Name = ZINC20907206
REMARK  7 active torsions:
REMARK  status: ('A' for Active; 'I' for Inactive)
REMARK    1  A    between atoms: C_9  and  O_32
REMARK    2  A    between atoms: C_10  and  C_11
REMARK    3  A    between atoms: N_12  and  N_13
REMARK    4  A    between atoms: C_16  and  S_19
REMARK    5  A    between atoms: S_19  and  C_20
REMARK    6  A    between atoms: C_20  and  C_21
REMARK    7  A    between atoms: N_23  and  C_24
REMARK                            x       y       z     vdW  Elec       q    Type
REMARK                         _______ _______ _______ _____ _____    ______ ____
ROOT
ATOM      1  N   UNL     1       4.048   0.921   3.226  0.00  0.00    -0.205 N 
ATOM      2  C   UNL     1       3.221  -0.018   2.627  0.00  0.00    +0.232 A 
ATOM      3  N   UNL     1       2.152  -0.637   3.213  0.00  0.00    -0.186 NA
ATOM      4  C   UNL     1       1.602  -1.487   2.296  0.00  0.00    +0.211 A 
ATOM      5  N   UNL     1       2.302  -1.398   1.190  0.00  0.00    -0.144 NA
ATOM      6  N   UNL     1       3.328  -0.468   1.400  0.00  0.00    -0.245 N 
ATOM      7  H   UNL     1       3.868   1.228   4.267  0.00  0.00    +0.177 HD
ATOM      8  H   UNL     1       4.130  -0.097   0.746  0.00  0.00    +0.192 HD
ENDROOT
BRANCH   1  10
ATOM      9  C   UNL     1       5.889   2.357   3.067  0.00  0.00    +0.142 C 
ATOM     10  N   UNL     1       5.114   1.477   2.506  0.00  0.00    -0.187 NA
BRANCH   9  20
ATOM     11  C   UNL     1       9.594   5.809   4.037  0.00  0.00    +0.001 A 
ATOM     12  C   UNL     1       8.545   5.280   4.785  0.00  0.00    +0.001 A 
ATOM     13  C   UNL     1       7.700   4.354   4.248  0.00  0.00    +0.009 A 
ATOM     14  C   UNL     1       7.888   3.930   2.927  0.00  0.00    -0.006 A 
ATOM     15  C   UNL     1       8.954   4.467   2.164  0.00  0.00    -0.017 A 
ATOM     16  C   UNL     1       9.806   5.419   2.750  0.00  0.00    +0.008 A 
ATOM     17  C   UNL     1       9.141   4.039   0.838  0.00  0.00    +0.012 A 
ATOM     18  C   UNL     1       8.312   3.116   0.281  0.00  0.00    +0.046 A 
ATOM     19  C   UNL     1       7.253   2.556   0.993  0.00  0.00    +0.126 A 
ATOM     20  C   UNL     1       7.007   2.940   2.312  0.00  0.00    +0.044 A 
BRANCH  19  21
ATOM     21  O   UNL     1       6.453   1.634   0.399  0.00  0.00    -0.506 OA
ATOM     22  H   UNL     1       5.616   1.190   0.957  0.00  0.00    +0.292 HD
ENDBRANCH  19  21
ENDBRANCH   9  20
ENDBRANCH   1  10
BRANCH   4  23
ATOM     23  S   UNL     1       0.199  -2.522   2.554  0.00  0.00    -0.075 S 
BRANCH  23  24
ATOM     24  C   UNL     1      -0.008  -3.383   0.971  0.00  0.00    +0.173 C 
BRANCH  24  25
ATOM     25  C   UNL     1      -1.190  -4.313   1.056  0.00  0.00    +0.228 C 
ATOM     26  O   UNL     1      -1.831  -4.388   2.083  0.00  0.00    -0.275 OA
ATOM     27  N   UNL     1      -1.537  -5.062  -0.010  0.00  0.00    -0.280 N 
ATOM     28  H   UNL     1      -1.010  -4.934  -0.967  0.00  0.00    +0.155 HD
BRANCH  27  29
ATOM     29  C   UNL     1      -2.569  -6.004   0.101  0.00  0.00    +0.105 A 
ATOM     30  C   UNL     1      -2.285  -7.305   0.499  0.00  0.00    +0.147 A 
ATOM     31  C   UNL     1      -3.307  -8.230   0.612  0.00  0.00    +0.040 A 
ATOM     32  C   UNL     1      -4.608  -7.865   0.321  0.00  0.00    +0.006 A 
ATOM     33  C   UNL     1      -4.894  -6.573  -0.081  0.00  0.00    +0.040 A 
ATOM     34  C   UNL     1      -3.878  -5.641  -0.192  0.00  0.00    +0.147 A 
ATOM     35  F   UNL     1      -4.158  -4.379  -0.585  0.00  0.00    -0.203 F 
ATOM     36  F   UNL     1      -1.013  -7.664   0.779  0.00  0.00    -0.203 F 
ENDBRANCH  27  29
ENDBRANCH  24  25
ENDBRANCH  23  24
ENDBRANCH   4  23
TORSDOF 7
