REMARK  Name = ZINC12603042
REMARK  10 active torsions:
REMARK  status: ('A' for Active; 'I' for Inactive)
REMARK    1  A    between atoms: C_1  and  C_2
REMARK    2  A    between atoms: C_5  and  N_9
REMARK    3  A    between atoms: C_6  and  C_8
REMARK    4  A    between atoms: N_9  and  S_10
REMARK    5  A    between atoms: S_10  and  C_13
REMARK    6  A    between atoms: C_17  and  C_19
REMARK    7  A    between atoms: N_21  and  N_22
REMARK    8  A    between atoms: C_26  and  C_33
REMARK    9  A    between atoms: C_33  and  C_34
REMARK   10  A    between atoms: C_33  and  C_35
REMARK                            x       y       z     vdW  Elec       q    Type
REMARK                         _______ _______ _______ _____ _____    ______ ____
ROOT
ATOM      1  C   UNL     1       2.517  -4.719  -1.127  0.00  0.00    +0.109 A 
ATOM      2  C   UNL     1       3.106  -3.635  -1.754  0.00  0.00    +0.029 A 
ATOM      3  C   UNL     1       4.469  -3.423  -1.647  0.00  0.00    +0.003 A 
ATOM      4  C   UNL     1       5.250  -4.293  -0.913  0.00  0.00    +0.013 A 
ATOM      5  C   UNL     1       4.662  -5.388  -0.279  0.00  0.00    +0.040 A 
ATOM      6  C   UNL     1       3.284  -5.593  -0.386  0.00  0.00    +0.042 A 
ENDROOT
BRANCH   5   7
ATOM      7  C   UNL     1       5.491  -6.324   0.508  0.00  0.00    +0.263 C 
ATOM      8  O   UNL     1       4.976  -7.276   1.060  0.00  0.00    -0.268 OA
ATOM      9  N   UNL     1       6.820  -6.121   0.614  0.00  0.00    -0.202 N 
ATOM     10  H   UNL     1       7.231  -5.361   0.173  0.00  0.00    +0.178 HD
BRANCH   9  11
ATOM     11  N   UNL     1       7.606  -7.008   1.359  0.00  0.00    -0.174 NA
ATOM     12  C   UNL     1       8.899  -6.811   1.462  0.00  0.00    +0.153 C 
ATOM     13  C   UNL     1       9.882  -7.640   2.197  0.00  0.00    +0.028 A 
ATOM     14  C   UNL     1       9.772  -8.801   2.955  0.00  0.00    +0.016 A 
ATOM     15  C   UNL     1      10.899  -9.352   3.530  0.00  0.00    -0.044 A 
ATOM     16  C   UNL     1      12.134  -8.752   3.353  0.00  0.00    +0.006 A 
ATOM     17  C   UNL     1      12.254  -7.599   2.602  0.00  0.00    +0.024 A 
ATOM     18  C   UNL     1      11.129  -7.029   2.014  0.00  0.00    +0.043 A 
ATOM     19  N   UNL     1      10.975  -5.895   1.225  0.00  0.00    -0.280 N 
ATOM     20  C   UNL     1       9.692  -5.718   0.866  0.00  0.00    +0.269 C 
ATOM     21  O   UNL     1       9.260  -4.815   0.173  0.00  0.00    -0.268 OA
ATOM     22  H   UNL     1      11.701  -5.308   0.964  0.00  0.00    +0.155 HD
BRANCH  15  23
ATOM     23  C   UNL     1      10.786 -10.610   4.353  0.00  0.00    +0.013 C 
ATOM     24  C   UNL     1      11.645 -11.709   3.725  0.00  0.00    +0.012 C 
ATOM     25  C   UNL     1      11.271 -10.334   5.777  0.00  0.00    +0.012 C 
ENDBRANCH  15  23
ENDBRANCH   9  11
ENDBRANCH   5   7
BRANCH   1  26
ATOM     26  S   UNL     1       0.780  -4.979  -1.271  0.00  0.00    +0.072 S 
ATOM     27  O   UNL     1       0.556  -6.363  -1.040  0.00  0.00    -0.150 OA
ATOM     28  O   UNL     1       0.369  -4.331  -2.467  0.00  0.00    -0.150 OA
BRANCH  26  29
ATOM     29  N   UNL     1       0.058  -4.167  -0.021  0.00  0.00    -0.216 N 
ATOM     30  H   UNL     1      -0.470  -4.653   0.632  0.00  0.00    +0.174 HD
BRANCH  29  35
ATOM     31  C   UNL     1       0.671   1.451   0.442  0.00  0.00    +0.044 C 
ATOM     32  C   UNL     1       0.508  -0.042   0.319  0.00  0.00    -0.050 A 
ATOM     33  C   UNL     1       0.416  -0.625  -0.932  0.00  0.00    +0.005 A 
ATOM     34  C   UNL     1       0.267  -1.993  -1.048  0.00  0.00    +0.025 A 
ATOM     35  C   UNL     1       0.209  -2.784   0.093  0.00  0.00    +0.051 A 
ATOM     36  C   UNL     1       0.302  -2.195   1.347  0.00  0.00    -0.028 A 
ATOM     37  C   UNL     1       0.457  -0.826   1.456  0.00  0.00    +0.008 A 
ATOM     38  C   UNL     1       0.239  -3.048   2.588  0.00  0.00    +0.046 C 
ENDBRANCH  29  35
ENDBRANCH  26  29
ENDBRANCH   1  26
TORSDOF 6
