REMARK  Name = ZINC44792755
REMARK  5 active torsions:
REMARK  status: ('A' for Active; 'I' for Inactive)
REMARK    1  A    between atoms: C_3  and  C_22
REMARK    2  A    between atoms: C_6  and  C_7
REMARK    3  A    between atoms: C_7  and  S_8
REMARK    4  A    between atoms: S_8  and  C_9
REMARK    5  A    between atoms: N_10  and  C_11
REMARK                            x       y       z     vdW  Elec       q    Type
REMARK                         _______ _______ _______ _____ _____    ______ ____
ROOT
ATOM      1  C   UNL     1      -3.569  -1.749  -1.382  0.00  0.00    +0.130 C 
ATOM      2  N   UNL     1      -4.396  -2.103  -2.424  0.00  0.00    -0.296 N 
ATOM      3  N   UNL     1      -3.901  -2.046  -0.156  0.00  0.00    -0.381 N 
ATOM      4  H   UNL     1      -4.692  -2.580   0.017  0.00  0.00    +0.158 HD
ATOM      5  H   UNL     1      -3.356  -1.734   0.583  0.00  0.00    +0.158 HD
ATOM      6  H   UNL     1      -5.359  -2.099  -2.302  0.00  0.00    +0.154 HD
ENDROOT
BRANCH   2   7
ATOM      7  C   UNL     1      -3.848  -2.469  -3.660  0.00  0.00    +0.036 A 
ATOM      8  C   UNL     1      -4.593  -2.318  -4.822  0.00  0.00    +0.027 A 
ATOM      9  C   UNL     1      -4.053  -2.680  -6.041  0.00  0.00    +0.051 A 
ATOM     10  C   UNL     1      -2.767  -3.193  -6.109  0.00  0.00    +0.162 A 
ATOM     11  C   UNL     1      -2.018  -3.343  -4.948  0.00  0.00    +0.164 A 
ATOM     12  C   UNL     1      -2.559  -2.977  -3.725  0.00  0.00    +0.072 A 
ATOM     13  O   UNL     1      -0.751  -3.838  -4.995  0.00  0.00    -0.485 OA
ATOM     14  C   UNL     1      -0.376  -4.537  -6.188  0.00  0.00    +0.270 C 
ATOM     15  C   UNL     1      -0.832  -3.705  -7.394  0.00  0.00    +0.270 C 
ATOM     16  O   UNL     1      -2.253  -3.548  -7.319  0.00  0.00    -0.485 OA
ENDBRANCH   2   7
BRANCH   1  17
ATOM     17  S   UNL     1      -2.062  -0.895  -1.704  0.00  0.00    -0.088 S 
BRANCH  17  18
ATOM     18  C   UNL     1      -1.335  -0.652  -0.060  0.00  0.00    +0.112 C 
BRANCH  18  24
ATOM     19  C   UNL     1       0.002   1.461  -0.156  0.00  0.00    +0.005 A 
ATOM     20  C   UNL     1       1.200   2.135  -0.278  0.00  0.00    +0.013 A 
ATOM     21  C   UNL     1       2.387   1.419  -0.440  0.00  0.00    +0.037 A 
ATOM     22  C   UNL     1       2.354   0.024  -0.477  0.00  0.00    +0.013 A 
ATOM     23  C   UNL     1       1.150  -0.638  -0.354  0.00  0.00    +0.005 A 
ATOM     24  C   UNL     1      -0.023   0.078  -0.194  0.00  0.00    -0.037 A 
BRANCH  21  25
ATOM     25  C   UNL     1       3.674   2.135  -0.571  0.00  0.00    +0.247 C 
ATOM     26  O   UNL     1       3.687   3.345  -0.689  0.00  0.00    -0.270 OA
ATOM     27  N   UNL     1       4.832   1.447  -0.561  0.00  0.00    -0.298 N 
ATOM     28  C   UNL     1       4.958  -0.018  -0.539  0.00  0.00    +0.108 C 
ATOM     29  C   UNL     1       6.466  -0.348  -0.508  0.00  0.00    +0.020 C 
ATOM     30  C   UNL     1       7.094   0.953   0.057  0.00  0.00    +0.020 C 
ATOM     31  C   UNL     1       6.183   2.037  -0.576  0.00  0.00    +0.108 C 
ENDBRANCH  21  25
ENDBRANCH  18  24
ENDBRANCH  17  18
ENDBRANCH   1  17
TORSDOF 5
