REMARK  Name = ZINC45728119
REMARK  7 active torsions:
REMARK  status: ('A' for Active; 'I' for Inactive)
REMARK    1  A    between atoms: C_1  and  C_2
REMARK    2  A    between atoms: C_9  and  C_12
REMARK    3  A    between atoms: N_14  and  N_15
REMARK    4  A    between atoms: C_18  and  C_22
REMARK    5  A    between atoms: C_18  and  C_23
REMARK    6  A    between atoms: C_23  and  C_24
REMARK    7  A    between atoms: C_24  and  C_25
REMARK                            x       y       z     vdW  Elec       q    Type
REMARK                         _______ _______ _______ _____ _____    ______ ____
ROOT
ATOM      1  N   UNL     1       0.568  -7.975   3.266  0.00  0.00    -0.137 N 
ATOM      2  C   UNL     1       0.362  -9.234   2.831  0.00  0.00    +0.263 C 
ATOM      3  O   UNL     1      -0.455  -9.603   2.015  0.00  0.00    -0.271 OA
ATOM      4  C   UNL     1       1.366 -10.093   3.574  0.00  0.00    +0.112 C 
ATOM      5  N   UNL     1       2.088  -9.128   4.421  0.00  0.00    -0.284 N 
ATOM      6  C   UNL     1       1.555  -7.920   4.167  0.00  0.00    +0.326 C 
ATOM      7  O   UNL     1       1.926  -6.892   4.700  0.00  0.00    -0.251 OA
ATOM      8  C   UNL     1       0.650 -11.135   4.436  0.00  0.00    +0.041 C 
ATOM      9  H   UNL     1       2.810  -9.325   5.038  0.00  0.00    +0.151 HD
ENDROOT
BRANCH   1  12
ATOM     10  C   UNL     1       0.403  -5.989   1.965  0.00  0.00    +0.243 C 
ATOM     11  O   UNL     1       1.537  -6.167   1.574  0.00  0.00    -0.273 OA
ATOM     12  N   UNL     1      -0.159  -6.862   2.824  0.00  0.00    -0.223 N 
ATOM     13  H   UNL     1      -1.066  -6.719   3.137  0.00  0.00    +0.174 HD
BRANCH  10  22
ATOM     14  C   UNL     1      -0.018   1.503   0.010  0.00  0.00    +0.044 C 
ATOM     15  C   UNL     1       0.002  -0.004   0.002  0.00  0.00    -0.049 A 
ATOM     16  C   UNL     1       0.006  -0.699  -1.194  0.00  0.00    +0.004 A 
ATOM     17  C   UNL     1       0.033  -2.075  -1.211  0.00  0.00    +0.005 A 
ATOM     18  C   UNL     1       0.055  -2.812  -0.024  0.00  0.00    -0.032 A 
ATOM     19  C   UNL     1       0.035  -2.093   1.169  0.00  0.00    +0.012 A 
ATOM     20  C   UNL     1       0.023  -0.711   1.189  0.00  0.00    +0.018 A 
ATOM     21  S   UNL     1       0.019  -3.293   2.483  0.00  0.00    -0.112 S 
ATOM     22  C   UNL     1      -0.378  -4.791   1.490  0.00  0.00    +0.143 C 
ATOM     23  C   UNL     1       0.107  -4.314   0.102  0.00  0.00    +0.060 C 
ENDBRANCH  10  22
ENDBRANCH   1  12
BRANCH   4  24
ATOM     24  C   UNL     1       2.325 -10.772   2.593  0.00  0.00    +0.040 C 
BRANCH  24  25
ATOM     25  C   UNL     1       3.325 -11.631   3.369  0.00  0.00    +0.038 C 
BRANCH  25  26
ATOM     26  C   UNL     1       4.269 -12.299   2.403  0.00  0.00    -0.047 A 
ATOM     27  C   UNL     1       3.957 -13.538   1.877  0.00  0.00    +0.003 A 
ATOM     28  C   UNL     1       4.823 -14.151   0.991  0.00  0.00    +0.000 A 
ATOM     29  C   UNL     1       6.001 -13.524   0.630  0.00  0.00    +0.000 A 
ATOM     30  C   UNL     1       6.313 -12.284   1.156  0.00  0.00    +0.000 A 
ATOM     31  C   UNL     1       5.445 -11.670   2.039  0.00  0.00    +0.003 A 
ENDBRANCH  25  26
ENDBRANCH  24  25
ENDBRANCH   4  24
TORSDOF 5
