REMARK  Name = ZINC16611902
REMARK  19 active torsions:
REMARK  status: ('A' for Active; 'I' for Inactive)
REMARK    1  A    between atoms: C_1  and  C_2
REMARK    2  A    between atoms: C_2  and  N_79
REMARK    3  A    between atoms: C_3  and  C_4
REMARK    4  A    between atoms: C_3  and  N_79
REMARK    5  A    between atoms: C_5  and  C_6
REMARK    6  A    between atoms: C_5  and  N_79
REMARK    7  A    between atoms: C_6  and  C_7
REMARK    8  A    between atoms: C_7  and  C_8
REMARK    9  A    between atoms: C_8  and  C_10
REMARK   10  A    between atoms: C_8  and  N_11
REMARK   11  A    between atoms: C_12  and  C_14
REMARK   12  A    between atoms: C_17  and  C_19
REMARK   13  A    between atoms: C_19  and  N_20
REMARK   14  A    between atoms: C_21  and  C_39
REMARK   15  A    between atoms: C_22  and  C_34
REMARK   16  A    between atoms: C_23  and  C_28
REMARK   17  A    between atoms: C_34  and  O_36
REMARK   18  A    between atoms: O_36  and  C_37
REMARK   19  A    between atoms: C_37  and  C_38
REMARK                            x       y       z     vdW  Elec       q    Type
REMARK                         _______ _______ _______ _____ _____    ______ ____
ROOT
ATOM      1  C   UNL     1       4.467   2.365   1.195  0.00  0.00    +0.189 A 
ATOM      2  C   UNL     1       5.537   1.701   1.722  0.00  0.00    +0.055 A 
ATOM      3  C   UNL     1       6.688   2.330   1.223  0.00  0.00    +0.047 A 
ATOM      4  C   UNL     1       6.276   3.343   0.430  0.00  0.00    +0.124 A 
ATOM      5  O   UNL     1       4.937   3.361   0.416  0.00  0.00    -0.453 OA
ENDROOT
BRANCH   1   7
ATOM      6  N   UNL     1       2.091   2.795   0.856  0.00  0.00    -0.306 N 
ATOM      7  C   UNL     1       3.054   2.054   1.438  0.00  0.00    +0.280 C 
ATOM      8  O   UNL     1       2.752   1.125   2.165  0.00  0.00    -0.267 OA
ATOM      9  H   UNL     1       2.332   3.535   0.277  0.00  0.00    +0.149 HD
BRANCH   6  10
ATOM     10  C   UNL     1       0.680   2.485   1.099  0.00  0.00    +0.070 C 
ATOM     11  C   UNL     1       0.223   3.167   2.390  0.00  0.00    +0.028 C 
BRANCH  10  12
ATOM     12  C   UNL     1      -0.163   2.992  -0.073  0.00  0.00    +0.020 C 
BRANCH  12  13
ATOM     13  C   UNL     1       0.210   2.220  -1.340  0.00  0.00    -0.017 C 
BRANCH  13  14
ATOM     14  C   UNL     1      -0.633   2.727  -2.512  0.00  0.00    -0.079 C 
BRANCH  14  15
ATOM     15  N   UNL     1      -0.247   1.987  -3.732  0.00  0.00    +0.379 N 
ATOM     16  H   UNL     1       0.773   2.034  -3.842  0.00  0.00    -0.082 HD
BRANCH  15  18
ATOM     17  C   UNL     1      -2.167   0.461  -3.427  0.00  0.00    -0.017 C 
ATOM     18  C   UNL     1      -0.653   0.571  -3.614  0.00  0.00    -0.082 C 
ENDBRANCH  15  18
BRANCH  15  19
ATOM     19  C   UNL     1      -0.886   2.599  -4.917  0.00  0.00    -0.082 C 
ATOM     20  C   UNL     1      -0.200   2.064  -6.176  0.00  0.00    -0.017 C 
ENDBRANCH  15  19
ENDBRANCH  14  15
ENDBRANCH  13  14
ENDBRANCH  12  13
ENDBRANCH  10  12
ENDBRANCH   6  10
ENDBRANCH   1   7
BRANCH   4  21
ATOM     21  C   UNL     1       7.174   4.296  -0.315  0.00  0.00    +0.187 C 
BRANCH  21  22
ATOM     22  N   UNL     1       7.374   3.812  -1.682  0.00  0.00    -0.268 N 
ATOM     23  C   UNL     1       8.473   3.048  -1.973  0.00  0.00    +0.021 C 
ATOM     24  C   UNL     1       8.847   2.820  -3.244  0.00  0.00    +0.061 C 
ATOM     25  C   UNL     1       8.086   3.438  -4.388  0.00  0.00    +0.066 C 
ATOM     26  C   UNL     1       6.605   3.543  -4.019  0.00  0.00    +0.109 C 
ATOM     27  C   UNL     1       6.473   4.118  -2.632  0.00  0.00    +0.221 C 
ATOM     28  O   UNL     1       5.553   4.864  -2.373  0.00  0.00    -0.275 OA
ATOM     29  C   UNL     1       9.279   2.453  -0.848  0.00  0.00    +0.061 C 
BRANCH  25  30
ATOM     30  C   UNL     1       8.632   4.814  -4.670  0.00  0.00    -0.039 A 
ATOM     31  C   UNL     1       8.596   5.786  -3.688  0.00  0.00    +0.004 A 
ATOM     32  C   UNL     1       9.101   7.047  -3.944  0.00  0.00    +0.000 A 
ATOM     33  C   UNL     1       9.633   7.339  -5.186  0.00  0.00    +0.000 A 
ATOM     34  C   UNL     1       9.664   6.368  -6.170  0.00  0.00    +0.000 A 
ATOM     35  C   UNL     1       9.164   5.106  -5.912  0.00  0.00    +0.004 A 
ENDBRANCH  25  30
BRANCH  24  36
ATOM     36  C   UNL     1       9.964   1.994  -3.509  0.00  0.00    +0.337 C 
ATOM     37  O   UNL     1      10.583   1.493  -2.588  0.00  0.00    -0.245 OA
BRANCH  36  38
ATOM     38  O   UNL     1      10.345   1.761  -4.782  0.00  0.00    -0.462 OA
BRANCH  38  39
ATOM     39  C   UNL     1      11.481   0.917  -4.977  0.00  0.00    +0.229 C 
ATOM     40  C   UNL     1      11.758   0.771  -6.474  0.00  0.00    +0.048 C 
ENDBRANCH  38  39
ENDBRANCH  36  38
ENDBRANCH  24  36
ENDBRANCH  21  22
ENDBRANCH   4  21
TORSDOF 14
