REMARK  Name = ZINC08951715
REMARK  7 active torsions:
REMARK  status: ('A' for Active; 'I' for Inactive)
REMARK    1  A    between atoms: C_1  and  C_2
REMARK    2  A    between atoms: C_4  and  C_32
REMARK    3  A    between atoms: C_6  and  N_8
REMARK    4  A    between atoms: C_9  and  C_11
REMARK    5  A    between atoms: C_11  and  C_30
REMARK    6  A    between atoms: N_13  and  C_24
REMARK    7  A    between atoms: C_17  and  C_18
REMARK                            x       y       z     vdW  Elec       q    Type
REMARK                         _______ _______ _______ _____ _____    ______ ____
ROOT
ATOM      1  C   UNL     1      -3.847   4.206   0.342  0.00  0.00    +0.144 C 
ATOM      2  C   UNL     1      -2.648   3.492   0.238  0.00  0.00    +0.111 A 
ATOM      3  N   UNL     1      -1.512   3.831  -0.452  0.00  0.00    -0.269 N 
ATOM      4  C   UNL     1      -0.459   3.030  -0.435  0.00  0.00    +0.270 A 
ATOM      5  O   UNL     1       0.564   3.310  -1.033  0.00  0.00    -0.266 OA
ATOM      6  C   UNL     1      -0.578   1.821   0.312  0.00  0.00    +0.080 A 
ATOM      7  C   UNL     1       0.336   0.824   0.496  0.00  0.00    +0.035 C 
ATOM      8  S   UNL     1      -2.240   1.964   0.950  0.00  0.00    -0.064 S 
ENDROOT
BRANCH   3   9
ATOM      9  C   UNL     1      -1.464   5.032  -1.171  0.00  0.00    +0.051 A 
ATOM     10  C   UNL     1      -1.863   5.064  -2.501  0.00  0.00    +0.026 A 
ATOM     11  C   UNL     1      -1.821   6.251  -3.205  0.00  0.00    +0.002 A 
ATOM     12  C   UNL     1      -1.369   7.405  -2.591  0.00  0.00    +0.000 A 
ATOM     13  C   UNL     1      -0.965   7.375  -1.269  0.00  0.00    +0.002 A 
ATOM     14  C   UNL     1      -1.011   6.193  -0.558  0.00  0.00    +0.026 A 
ENDBRANCH   3   9
BRANCH   7  15
ATOM     15  C   UNL     1       1.538   0.822  -0.248  0.00  0.00    +0.013 A 
ATOM     16  C   UNL     1       2.805   0.391   0.134  0.00  0.00    +0.015 A 
ATOM     17  C   UNL     1       3.806   0.499  -0.799  0.00  0.00    +0.008 A 
ATOM     18  C   UNL     1       3.522   1.022  -2.021  0.00  0.00    +0.046 A 
ATOM     19  S   UNL     1       1.829   1.378  -1.918  0.00  0.00    -0.097 S 
ENDBRANCH   7  15
BRANCH   1  21
ATOM     20  N   UNL     1      -6.149   4.300   1.125  0.00  0.00    -0.281 N 
ATOM     21  C   UNL     1      -4.994   3.612   1.025  0.00  0.00    +0.261 C 
ATOM     22  O   UNL     1      -4.907   2.495   1.504  0.00  0.00    -0.269 OA
ATOM     23  H   UNL     1      -6.238   5.163   0.692  0.00  0.00    +0.155 HD
BRANCH  20  29
ATOM     24  C   UNL     1      -9.993   4.989   4.111  0.00  0.00    +0.044 C 
ATOM     25  C   UNL     1      -9.098   4.079   3.309  0.00  0.00    -0.048 A 
ATOM     26  C   UNL     1      -9.334   2.717   3.293  0.00  0.00    +0.006 A 
ATOM     27  C   UNL     1      -8.515   1.879   2.559  0.00  0.00    -0.048 A 
ATOM     28  C   UNL     1      -7.458   2.400   1.839  0.00  0.00    +0.026 A 
ATOM     29  C   UNL     1      -7.218   3.768   1.853  0.00  0.00    +0.034 A 
ATOM     30  C   UNL     1      -8.040   4.607   2.595  0.00  0.00    +0.026 A 
ATOM     31  C   UNL     1      -8.776   0.394   2.544  0.00  0.00    +0.044 C 
ENDBRANCH  20  29
ENDBRANCH   1  21
BRANCH   1  32
ATOM     32  C   UNL     1      -3.950   5.519  -0.221  0.00  0.00    +0.107 C 
ATOM     33  N   UNL     1      -4.031   6.560  -0.667  0.00  0.00    -0.191 NA
ENDBRANCH   1  32
TORSDOF 5
