REMARK  Name = ZINC39677431
REMARK  5 active torsions:
REMARK  status: ('A' for Active; 'I' for Inactive)
REMARK    1  A    between atoms: C_6  and  C_7
REMARK    2  A    between atoms: C_7  and  N_8
REMARK    3  A    between atoms: C_9  and  C_11
REMARK    4  A    between atoms: C_22  and  C_24
REMARK    5  A    between atoms: C_27  and  C_31
REMARK                            x       y       z     vdW  Elec       q    Type
REMARK                         _______ _______ _______ _____ _____    ______ ____
ROOT
ATOM      1  C   UNL     1      -3.297  -1.906  -3.721  0.00  0.00    +0.100 C 
ATOM      2  C   UNL     1      -2.092  -2.765  -4.166  0.00  0.00    +0.121 C 
ATOM      3  N   UNL     1      -2.540  -4.165  -3.975  0.00  0.00    -0.296 N 
ATOM      4  C   UNL     1      -3.957  -4.161  -4.410  0.00  0.00    +0.115 C 
ATOM      5  C   UNL     1      -4.519  -2.824  -3.887  0.00  0.00    -0.004 C 
ATOM      6  C   UNL     1      -5.494  -2.228  -4.898  0.00  0.00    -0.010 C 
ATOM      7  C   UNL     1      -6.728  -3.129  -5.002  0.00  0.00    -0.082 C 
ATOM      8  N   UNL     1      -7.366  -3.243  -3.685  0.00  0.00    +0.379 N 
ATOM      9  C   UNL     1      -6.454  -3.901  -2.742  0.00  0.00    -0.082 C 
ATOM     10  C   UNL     1      -5.209  -3.033  -2.542  0.00  0.00    -0.010 C 
ATOM     11  C   UNL     1      -1.821  -5.207  -3.512  0.00  0.00    +0.247 C 
ATOM     12  O   UNL     1      -0.701  -5.026  -3.075  0.00  0.00    -0.270 OA
ATOM     13  H   UNL     1      -7.594  -2.321  -3.342  0.00  0.00    -0.086 HD
ATOM     14  H   UNL     1      -8.212  -3.786  -3.768  0.00  0.00    -0.086 HD
ENDROOT
BRANCH  11  15
ATOM     15  C   UNL     1      -2.394  -6.569  -3.536  0.00  0.00    +0.040 A 
ATOM     16  C   UNL     1      -3.450  -6.870  -4.398  0.00  0.00    +0.014 A 
ATOM     17  C   UNL     1      -3.981  -8.143  -4.417  0.00  0.00    +0.016 A 
ATOM     18  C   UNL     1      -3.470  -9.122  -3.583  0.00  0.00    +0.090 A 
ATOM     19  C   UNL     1      -2.423  -8.831  -2.724  0.00  0.00    +0.136 A 
ATOM     20  C   UNL     1      -1.879  -7.561  -2.701  0.00  0.00    +0.052 A 
ATOM     21  F   UNL     1      -1.929  -9.791  -1.913  0.00  0.00    -0.205 F 
BRANCH  18  22
ATOM     22  C   UNL     1      -4.055 -10.511  -3.610  0.00  0.00    +0.420 C 
ATOM     23  F   UNL     1      -5.092 -10.562  -4.547  0.00  0.00    -0.166 F 
ATOM     24  F   UNL     1      -3.061 -11.429  -3.963  0.00  0.00    -0.166 F 
ATOM     25  F   UNL     1      -4.556 -10.829  -2.343  0.00  0.00    -0.166 F 
ENDBRANCH  18  22
ENDBRANCH  11  15
BRANCH   1  27
ATOM     26  N   UNL     1      -3.778  -0.395  -1.822  0.00  0.00    -0.311 N 
ATOM     27  C   UNL     1      -3.143  -1.492  -2.280  0.00  0.00    +0.218 C 
ATOM     28  O   UNL     1      -2.447  -2.147  -1.532  0.00  0.00    -0.275 OA
ATOM     29  H   UNL     1      -4.334   0.129  -2.421  0.00  0.00    +0.149 HD
BRANCH  26  30
ATOM     30  C   UNL     1      -3.628   0.007  -0.422  0.00  0.00    +0.139 C 
BRANCH  30  36
ATOM     31  C   UNL     1      -5.750   1.156   0.241  0.00  0.00    +0.009 A 
ATOM     32  C   UNL     1      -6.492   2.299   0.473  0.00  0.00    +0.050 A 
ATOM     33  C   UNL     1      -5.918   3.548   0.295  0.00  0.00    +0.162 A 
ATOM     34  C   UNL     1      -4.593   3.648  -0.115  0.00  0.00    +0.162 A 
ATOM     35  C   UNL     1      -3.854   2.498  -0.346  0.00  0.00    +0.054 A 
ATOM     36  C   UNL     1      -4.433   1.256  -0.169  0.00  0.00    -0.027 A 
ATOM     37  O   UNL     1      -4.008   4.865  -0.288  0.00  0.00    -0.485 OA
ATOM     38  C   UNL     1      -4.885   5.990  -0.407  0.00  0.00    +0.270 C 
ATOM     39  C   UNL     1      -5.946   5.892   0.698  0.00  0.00    +0.270 C 
ATOM     40  O   UNL     1      -6.663   4.665   0.523  0.00  0.00    -0.485 OA
ENDBRANCH  30  36
ENDBRANCH  26  30
ENDBRANCH   1  27
TORSDOF 5
