REMARK  Name = ZINC42015232
REMARK  5 active torsions:
REMARK  status: ('A' for Active; 'I' for Inactive)
REMARK    1  A    between atoms: C_1  and  C_2
REMARK    2  A    between atoms: C_4  and  N_9
REMARK    3  A    between atoms: C_10  and  C_14
REMARK    4  A    between atoms: C_17  and  N_21
REMARK    5  A    between atoms: C_19  and  N_20
REMARK                            x       y       z     vdW  Elec       q    Type
REMARK                         _______ _______ _______ _____ _____    ______ ____
ROOT
ATOM      1  N   UNL     1      -0.084  -2.868  -2.390  0.00  0.00    -0.193 N 
ATOM      2  C   UNL     1       0.742  -3.898  -2.739  0.00  0.00    +0.189 A 
ATOM      3  N   UNL     1       0.562  -4.111  -4.028  0.00  0.00    -0.108 NA
ATOM      4  N   UNL     1      -0.309  -3.296  -4.502  0.00  0.00    -0.022 NA
ATOM      5  N   UNL     1      -0.752  -2.516  -3.576  0.00  0.00    -0.039 NA
ENDROOT
BRANCH   1   9
ATOM      6  C   UNL     1      -0.578   1.152   0.400  0.00  0.00    +0.045 C 
ATOM      7  C   UNL     1      -0.479  -0.345   0.259  0.00  0.00    -0.034 A 
ATOM      8  C   UNL     1      -0.328  -0.912  -0.992  0.00  0.00    +0.032 A 
ATOM      9  C   UNL     1      -0.236  -2.291  -1.122  0.00  0.00    +0.070 A 
ATOM     10  C   UNL     1      -0.297  -3.098   0.007  0.00  0.00    +0.029 A 
ATOM     11  C   UNL     1      -0.449  -2.526   1.255  0.00  0.00    +0.017 A 
ATOM     12  C   UNL     1      -0.534  -1.151   1.382  0.00  0.00    +0.021 A 
ATOM     13 BR   UNL     1      -0.734  -0.372   3.093  0.00  0.00    -0.050 Br
ENDBRANCH   1   9
BRANCH   2  14
ATOM     14  C   UNL     1       1.661  -4.631  -1.846  0.00  0.00    +0.042 A 
ATOM     15  C   UNL     1       2.516  -3.931  -0.993  0.00  0.00    +0.015 A 
ATOM     16  C   UNL     1       3.372  -4.617  -0.161  0.00  0.00    +0.023 A 
ATOM     17  C   UNL     1       3.388  -6.009  -0.165  0.00  0.00    +0.026 A 
ATOM     18  C   UNL     1       2.541  -6.715  -1.008  0.00  0.00    +0.046 A 
ATOM     19  C   UNL     1       1.672  -6.034  -1.846  0.00  0.00    +0.037 A 
BRANCH  19  20
ATOM     20  N   UNL     1       0.818  -6.740  -2.690  0.00  0.00    -0.357 N 
ATOM     21  H   UNL     1       0.263  -6.263  -3.327  0.00  0.00    +0.142 HD
ATOM     22  H   UNL     1       0.777  -7.708  -2.640  0.00  0.00    +0.142 HD
ENDBRANCH  19  20
BRANCH  17  23
ATOM     23  N   UNL     1       4.257  -6.696   0.682  0.00  0.00    -0.358 N 
ATOM     24  H   UNL     1       4.849  -6.205   1.272  0.00  0.00    +0.142 HD
ATOM     25  H   UNL     1       4.269  -7.666   0.680  0.00  0.00    +0.142 HD
ENDBRANCH  17  23
ENDBRANCH   2  14
TORSDOF 4
