REMARK  Name = ZINC38571107
REMARK  6 active torsions:
REMARK  status: ('A' for Active; 'I' for Inactive)
REMARK    1  A    between atoms: C_1  and  C_2
REMARK    2  A    between atoms: C_14  and  C_17
REMARK    3  A    between atoms: C_15  and  C_16
REMARK    4  A    between atoms: C_17  and  C_18
REMARK    5  A    between atoms: C_18  and  C_19
REMARK    6  A    between atoms: C_19  and  N_21
REMARK                            x       y       z     vdW  Elec       q    Type
REMARK                         _______ _______ _______ _____ _____    ______ ____
ROOT
ATOM      1  C   UNL     1      -0.015   1.582   0.090  0.00  0.00    +0.047 C 
ATOM      2  C   UNL     1       0.009   0.076   0.067  0.00  0.00    -0.005 A 
ATOM      3  C   UNL     1       0.020  -0.712  -1.017  0.00  0.00    +0.199 A 
ATOM      4  O   UNL     1       0.041  -2.005  -0.650  0.00  0.00    -0.463 OA
ATOM      5  C   UNL     1       0.043  -2.124   0.693  0.00  0.00    +0.139 A 
ATOM      6  C   UNL     1       0.031  -0.824   1.227  0.00  0.00    +0.024 A 
ATOM      7  C   UNL     1       0.040  -0.636   2.606  0.00  0.00    +0.019 A 
ATOM      8  C   UNL     1       0.061  -1.717   3.450  0.00  0.00    -0.001 A 
ATOM      9  C   UNL     1       0.070  -3.005   2.931  0.00  0.00    +0.139 A 
ATOM     10  C   UNL     1       0.058  -3.208   1.558  0.00  0.00    +0.093 A 
ATOM     11  O   UNL     1       0.070  -4.102   3.738  0.00  0.00    -0.425 OA
ATOM     12  C   UNL     1       0.283  -3.907   5.054  0.00  0.00    +0.316 C 
ATOM     13  O   UNL     1       0.980  -4.653   5.700  0.00  0.00    -0.250 OA
ATOM     14  C   UNL     1      -0.393  -2.707   5.687  0.00  0.00    +0.106 C 
ATOM     15  C   UNL     1       0.081  -1.459   4.936  0.00  0.00    +0.033 C 
ATOM     16  C   UNL     1       1.505  -1.113   5.373  0.00  0.00    +0.013 C 
ENDROOT
BRANCH  14  17
ATOM     17  C   UNL     1      -1.912  -2.842   5.564  0.00  0.00    +0.024 C 
BRANCH  17  18
ATOM     18  C   UNL     1      -2.385  -4.045   6.381  0.00  0.00    +0.099 C 
BRANCH  18  19
ATOM     19  C   UNL     1      -3.882  -4.178   6.260  0.00  0.00    +0.239 C 
ATOM     20  O   UNL     1      -4.509  -3.386   5.584  0.00  0.00    -0.274 OA
BRANCH  19  21
ATOM     21  N   UNL     1      -4.515  -5.162   6.891  0.00  0.00    -0.147 NA
ATOM     22  C   UNL     1      -5.844  -5.218   6.870  0.00  0.00    +0.198 A 
ATOM     23  N   UNL     1      -6.655  -4.403   6.147  0.00  0.00    -0.326 N 
ATOM     24  H   UNL     1      -6.364  -3.685   5.562  0.00  0.00    +0.169 HD
ATOM     25  C   UNL     1      -7.974  -4.774   6.387  0.00  0.00    +0.065 A 
ATOM     26  C   UNL     1      -9.192  -4.296   5.925  0.00  0.00    +0.028 A 
ATOM     27  C   UNL     1     -10.367  -4.882   6.352  0.00  0.00    +0.002 A 
ATOM     28  C   UNL     1     -10.336  -5.944   7.239  0.00  0.00    +0.002 A 
ATOM     29  C   UNL     1      -9.130  -6.426   7.706  0.00  0.00    +0.028 A 
ATOM     30  C   UNL     1      -7.943  -5.845   7.283  0.00  0.00    +0.065 A 
ATOM     31  N   UNL     1      -6.605  -6.105   7.564  0.00  0.00    -0.326 N 
ATOM     32  H   UNL     1      -6.273  -6.799   8.155  0.00  0.00    +0.169 HD
ENDBRANCH  19  21
ENDBRANCH  18  19
ENDBRANCH  17  18
ENDBRANCH  14  17
TORSDOF 4
