REMARK  Name = ZINC39970028
REMARK  6 active torsions:
REMARK  status: ('A' for Active; 'I' for Inactive)
REMARK    1  A    between atoms: C_1  and  O_2
REMARK    2  A    between atoms: O_2  and  C_3
REMARK    3  A    between atoms: C_5  and  C_18
REMARK    4  A    between atoms: C_8  and  O_9
REMARK    5  A    between atoms: O_9  and  C_10
REMARK    6  A    between atoms: C_10  and  C_11
REMARK                            x       y       z     vdW  Elec       q    Type
REMARK                         _______ _______ _______ _____ _____    ______ ____
ROOT
ATOM      1  C   UNL     1       0.371  -0.658   1.218  0.00  0.00    +0.162 A 
ATOM      2  C   UNL     1       0.948   0.097   2.226  0.00  0.00    +0.053 A 
ATOM      3  C   UNL     1       1.836  -0.490   3.108  0.00  0.00    -0.039 A 
ATOM      4  C   UNL     1       2.152  -1.830   2.986  0.00  0.00    +0.008 A 
ATOM      5  C   UNL     1       1.581  -2.590   1.982  0.00  0.00    +0.050 A 
ATOM      6  C   UNL     1       0.685  -2.009   1.099  0.00  0.00    +0.162 A 
ENDROOT
BRANCH   3   7
ATOM      7  C   UNL     1       2.462   0.334   4.204  0.00  0.00    +0.047 C 
ATOM      8  C   UNL     1       2.329  -0.401   5.541  0.00  0.00    +0.105 C 
ATOM      9  C   UNL     1       3.248  -1.586   5.596  0.00  0.00    +0.219 C 
ATOM     10  O   UNL     1       3.009  -2.458   6.403  0.00  0.00    -0.275 OA
ATOM     11  N   UNL     1       4.317  -1.734   4.801  0.00  0.00    -0.273 N 
ATOM     12  C   UNL     1       4.593  -0.825   3.820  0.00  0.00    +0.117 C 
ATOM     13  N   UNL     1       5.382  -1.133   2.830  0.00  0.00    -0.205 NA
ATOM     14  C   UNL     1       5.582  -0.309   1.795  0.00  0.00    +0.206 C 
ATOM     15  N   UNL     1       4.958   0.854   1.688  0.00  0.00    -0.147 NA
ATOM     16  C   UNL     1       4.154   1.304   2.642  0.00  0.00    +0.250 C 
ATOM     17  O   UNL     1       3.571   2.359   2.483  0.00  0.00    -0.273 OA
ATOM     18  C   UNL     1       3.951   0.537   3.911  0.00  0.00    +0.148 C 
ATOM     19  N   UNL     1       6.460  -0.681   0.815  0.00  0.00    -0.329 N 
ATOM     20  H   UNL     1       4.903  -2.497   4.925  0.00  0.00    +0.156 HD
ATOM     21  H   UNL     1       6.926  -1.529   0.877  0.00  0.00    +0.145 HD
ATOM     22  H   UNL     1       6.618  -0.096   0.057  0.00  0.00    +0.145 HD
ENDBRANCH   3   7
BRANCH   1  24
ATOM     23  C   UNL     1      -0.778   1.308   0.532  0.00  0.00    +0.277 C 
ATOM     24  O   UNL     1      -0.503  -0.083   0.349  0.00  0.00    -0.491 OA
ENDBRANCH   1  24
BRANCH   6  25
ATOM     25  O   UNL     1       0.118  -2.756   0.114  0.00  0.00    -0.484 OA
BRANCH  25  26
ATOM     26  C   UNL     1       0.486  -4.135   0.052  0.00  0.00    +0.264 C 
BRANCH  26  27
ATOM     27  C   UNL     1      -0.236  -4.797  -1.093  0.00  0.00    -0.010 A 
ATOM     28  C   UNL     1      -1.477  -5.371  -0.888  0.00  0.00    +0.008 A 
ATOM     29  C   UNL     1      -2.140  -5.978  -1.938  0.00  0.00    +0.020 A 
ATOM     30  C   UNL     1      -1.561  -6.012  -3.194  0.00  0.00    +0.041 A 
ATOM     31  C   UNL     1      -0.319  -5.438  -3.399  0.00  0.00    +0.020 A 
ATOM     32  C   UNL     1       0.340  -4.826  -2.349  0.00  0.00    +0.008 A 
ATOM     33 CL   UNL     1      -2.393  -6.775  -4.513  0.00  0.00    -0.084 Cl
ENDBRANCH  26  27
ENDBRANCH  25  26
ENDBRANCH   6  25
TORSDOF 5
